data_mof_unit_63374.cif
_audit_creation_date              2012-10-26T18:03:12-0400
_audit_creation_method            fapswitch 2.2
_symmetry_space_group_name_H-M    P1
_symmetry_Int_Tables_number       1
_space_group_crystal_system       triclinic
_cell_length_a                    18.38066
_cell_length_b                    18.382027
_cell_length_c                    35.75203
_cell_angle_alpha                 89.978172
_cell_angle_beta                  90.027658
_cell_angle_gamma                 90.010631
_cell_volume                      12079.6713275

loop_
_atom_site_label
_atom_site_type_symbol
_atom_type_description
_atom_site_fract_x
_atom_site_fract_y
_atom_site_fract_z
_atom_type_partial_charge
C1    C     C_R   0.499998 0.139783 0.500038 0.552164
C2    C     C_1   0.717581 0.499993 0.500020 -0.049271
C3    C     C_3   0.082852 0.351697 0.108575 -0.054933
C4    C     C_3   0.648373 0.917195 0.891559 -0.054850
C5    C     C_3   0.917001 0.351703 0.891513 -0.054847
C6    C     C_3   0.351719 0.082898 0.891415 -0.054913
C7    C     C_3   0.082898 0.648297 0.891456 -0.054871
C8    C     C_3   0.148310 0.582884 0.608558 -0.055408
C9    C     C_3   0.417026 0.148256 0.608473 -0.055822
C10   C     C_3   0.851672 0.417039 0.608472 -0.055014
C11   C     C_3   0.583065 0.851798 0.608563 -0.055226
C12   C     C_3   0.148049 0.416600 0.391515 -0.053352
C13   C     C_1   0.500045 0.717582 0.499984 -0.051823
C14   C     C_3   0.326013 0.031016 0.384034 -0.045551
C15   C     C_3   0.851990 0.583508 0.391392 -0.054636
C16   C     C_3   0.584497 0.851635 0.392465 -0.059871
C17   C     C_1   0.282418 0.500009 0.499981 -0.049328
C18   C     C_1   0.000011 0.782419 0.000015 -0.049868
C19   C     C_1   0.217581 0.999988 0.000020 -0.049936
C20   C     C_1   0.999987 0.217581 0.999985 -0.049771
C21   C     C_1   0.782418 0.000013 0.999981 -0.050277
C22   C     C_1   0.499986 0.217204 0.500055 -0.038429
C23   C     C_1   0.782802 0.499988 0.500016 -0.057284
C24   C     C_1   0.500029 0.782801 0.499987 -0.059936
C25   C     C_R   0.860220 0.499995 0.500005 0.532753
C26   C     C_1   0.217198 0.500013 0.499985 -0.057822
C27   C     C_1   0.000014 0.717200 0.000013 -0.057648
C28   C     C_1   0.282802 0.999986 0.000017 -0.057543
C29   C     C_1   0.999985 0.282800 0.999988 -0.057543
C30   C     C_1   0.717198 0.000015 0.999983 -0.058424
C31   C     C_R   0.499919 0.999758 0.427822 0.582766
C32   C     C_R   0.000000 0.500012 0.427872 0.563585
C33   C     C_R   0.500015 0.000003 0.572127 0.563854
C34   C     C_R   0.000000 0.499988 0.572126 0.563716
C35   C     C_R   0.999985 0.500002 0.927873 0.563100
C36   C     C_R   0.500004 0.860218 0.499996 0.531458
C37   C     C_R   0.500008 0.000012 0.927874 0.563061
C38   C     C_R   0.000015 0.500008 0.072126 0.563121
C39   C     C_R   0.500250 0.999985 0.072108 0.564168
C40   C     C_R   0.542433 0.053674 0.172364 0.233784
C41   C     C_R   0.944593 0.537281 0.172670 0.233854
C42   C     C_R   0.464255 0.945294 0.172853 0.234324
C43   C     C_R   0.055551 0.462887 0.172712 0.233644
C44   C     C_R   0.537263 0.944568 0.827330 0.234090
C45   C     C_R   0.944414 0.462817 0.827309 0.234082
C46   C     C_R   0.462917 0.055553 0.827286 0.234088
C47   C     C_R   0.139780 0.500005 0.499995 0.532418
C48   C     C_R   0.055453 0.537130 0.827304 0.234089
C49   C     C_R   0.037123 0.555461 0.672700 0.234035
C50   C     C_R   0.444546 0.037157 0.672679 0.233921
C51   C     C_R   0.962790 0.444440 0.672686 0.234019
C52   C     C_R   0.555617 0.962934 0.672711 0.233996
C53   C     C_R   0.037013 0.444440 0.327317 0.233596
C54   C     C_R   0.447570 0.037400 0.326659 0.228336
C55   C     C_R   0.963081 0.555699 0.327283 0.232934
C56   C     C_R   0.557761 0.961965 0.327616 0.234782
C57   C     C_R   0.542369 0.052337 0.133087 0.262805
C58   C     C_R   0.000005 0.639782 0.000004 0.532028
C59   C     C_R   0.946287 0.538798 0.133406 0.262795
C60   C     C_R   0.461646 0.947184 0.133607 0.262838
C61   C     C_R   0.053826 0.461321 0.133448 0.262618
C62   C     C_R   0.538780 0.946264 0.866594 0.262751
C63   C     C_R   0.946136 0.461290 0.866574 0.262730
C64   C     C_R   0.461342 0.053828 0.866550 0.262741
C65   C     C_R   0.053755 0.538695 0.866566 0.262740
C66   C     C_R   0.038694 0.553759 0.633437 0.262675
C67   C     C_R   0.446233 0.038691 0.633415 0.262905
C68   C     C_R   0.961268 0.446158 0.633421 0.262600
C69   C     C_R   0.360220 0.999994 0.000007 0.532439
C70   C     C_R   0.553886 0.961372 0.633447 0.262561
C71   C     C_R   0.038548 0.446124 0.366581 0.262037
C72   C     C_R   0.444529 0.033976 0.365956 0.256751
C73   C     C_R   0.961510 0.553977 0.366547 0.261569
C74   C     C_R   0.554915 0.960534 0.366858 0.260966
C75   C     C_R   0.501301 0.999924 0.113511 -0.076031
C76   C     C_R   0.000045 0.500042 0.113562 -0.076772
C77   C     C_R   0.500042 0.000036 0.886437 -0.076711
C78   C     C_R   0.999954 0.499999 0.886436 -0.076734
C79   C     C_R   0.999991 0.499963 0.613563 -0.076735
C80   C     C_R   0.999994 0.360218 0.999996 0.532080
C81   C     C_R   0.500047 0.000022 0.613565 -0.076378
C82   C     C_R   0.000018 0.500039 0.386432 -0.076890
C83   C     C_R   0.499783 0.998230 0.386302 -0.072018
C84   C     C_R   0.359856 0.500002 0.499993 0.559389
C85   C     C_R   0.499982 0.359858 0.500010 0.560496
C86   C     C_R   0.640144 0.500001 0.500007 0.558839
C87   C     C_R   0.500032 0.640144 0.499994 0.557962
C88   C     C_R   0.859856 0.000005 0.999993 0.559881
C89   C     C_R   0.000004 0.859856 0.000006 0.559868
C90   C     C_R   0.140144 0.999996 0.000007 0.559855
C91   C     C_R   0.639780 0.000005 0.999990 0.531688
C92   C     C_R   0.999996 0.140144 0.999994 0.559871
C93   C     C_R   0.503941 0.999399 0.192554 -0.069437
C94   C     C_R   0.000076 0.500091 0.192647 -0.067945
C95   C     C_R   0.500100 0.000064 0.807351 -0.067493
C96   C     C_R   0.999929 0.499963 0.807350 -0.067492
C97   C     C_R   0.999944 0.499948 0.692649 -0.067467
C98   C     C_R   0.500091 0.000051 0.692651 -0.067496
C99   C     C_R   0.000055 0.500078 0.307344 -0.067862
C100  C     C_R   0.503610 0.000135 0.307220 -0.066276
C101  C     C_1   0.504506 0.999622 0.233020 -0.037838
C102  C     C_1   0.499976 0.282424 0.500040 -0.038749
C103  C     C_1   0.000074 0.500092 0.233126 -0.034137
C104  C     C_1   0.500105 0.000062 0.766872 -0.033350
C105  C     C_1   0.999920 0.499945 0.766870 -0.033347
C106  C     C_1   0.999926 0.499941 0.733129 -0.033345
C107  C     C_1   0.500104 0.000057 0.733131 -0.033335
C108  C     C_1   0.000066 0.500089 0.266865 -0.034124
C109  C     C_1   0.504480 0.999858 0.266752 -0.037989
C110  C     C_3   0.651986 0.078184 0.107249 -0.055503
C111  C     C_3   0.917257 0.648396 0.108446 -0.055235
C112  C     C_3   0.350629 0.921549 0.109305 -0.056877
Cu1   Cu    Cu3+1 0.572400 0.000000 0.500000 1.046552
Cu2   Cu    Cu3+1 0.500000 0.500000 0.537120 0.966564
Cu3   Cu    Cu3+1 0.000000 1.000000 0.962880 0.967790
Cu4   Cu    Cu3+1 0.000000 0.000000 0.037120 0.965345
Cu5   Cu    Cu3+1 0.000000 0.572400 0.500000 1.033133
Cu6   Cu    Cu3+1 0.427600 0.000000 0.500000 1.006811
Cu7   Cu    Cu3+1 1.000000 0.427600 0.500000 1.037284
Cu8   Cu    Cu3+1 0.072400 0.500000 0.000000 1.039510
Cu9   Cu    Cu3+1 0.500000 0.072400 0.000000 1.039983
Cu10  Cu    Cu3+1 0.927600 0.500000 0.000000 1.039859
Cu11  Cu    Cu3+1 0.500000 0.927600 0.000000 1.039606
Cu12  Cu    Cu3+1 0.500000 0.500000 0.462880 0.981475
H1    H     H_    0.577660 0.105389 0.216954 0.338236
H2    H     H_    0.389691 0.066473 0.717357 0.331545
H3    H     H_    0.933402 0.389582 0.717375 0.331529
H4    H     H_    0.610527 0.933666 0.717417 0.331526
H5    H     H_    0.066206 0.389519 0.282638 0.331655
H6    H     H_    0.404682 0.081536 0.281634 0.339885
H7    H     H_    0.933950 0.610672 0.282575 0.331309
H8    H     H_    0.613108 0.931326 0.283312 0.336912
H9    H     H_    0.651055 0.027731 0.090039 0.089362
H10   H     H_    0.681484 0.068278 0.133966 0.151320
H11   H     H_    0.682886 0.119811 0.091365 0.152492
H12   H     H_    0.889803 0.566734 0.217345 0.331789
H13   H     H_    0.967626 0.649534 0.091172 0.089533
H14   H     H_    0.926448 0.677229 0.135410 0.150961
H15   H     H_    0.874666 0.678615 0.092886 0.152628
H16   H     H_    0.350650 0.971855 0.091956 0.090061
H17   H     H_    0.322746 0.931730 0.136434 0.150234
H18   H     H_    0.318715 0.879858 0.094006 0.152220
H19   H     H_    0.032476 0.350528 0.091283 0.089802
H20   H     H_    0.073677 0.322899 0.135557 0.151368
H21   H     H_    0.125441 0.321461 0.093054 0.152538
H22   H     H_    0.649531 0.967560 0.908835 0.089823
H23   H     H_    0.433603 0.891833 0.217785 0.334881
H24   H     H_    0.677213 0.926372 0.864597 0.151534
H25   H     H_    0.678577 0.874595 0.907119 0.152688
H26   H     H_    0.967384 0.350515 0.908799 0.089743
H27   H     H_    0.926133 0.322876 0.864547 0.151554
H28   H     H_    0.874388 0.321510 0.907058 0.152729
H29   H     H_    0.350528 0.032529 0.908706 0.089748
H30   H     H_    0.322919 0.073731 0.864429 0.151566
H31   H     H_    0.321496 0.125498 0.906933 0.152664
H32   H     H_    0.032541 0.649484 0.908737 0.089779
H33   H     H_    0.073720 0.677107 0.864473 0.151533
H34   H     H_    0.110403 0.433538 0.217423 0.331715
H35   H     H_    0.125529 0.678508 0.906988 0.152723
H36   H     H_    0.149494 0.532529 0.591275 0.089998
H37   H     H_    0.177117 0.573704 0.635543 0.151635
H38   H     H_    0.178531 0.625506 0.593030 0.151965
H39   H     H_    0.467394 0.149486 0.591200 0.087669
H40   H     H_    0.426169 0.177089 0.635442 0.151909
H41   H     H_    0.374387 0.178416 0.592917 0.151803
H42   H     H_    0.850494 0.467417 0.591187 0.089790
H43   H     H_    0.822841 0.426177 0.635436 0.151555
H44   H     H_    0.821473 0.374433 0.592923 0.152674
H45   H     H_    0.566676 0.889753 0.782655 0.331544
H46   H     H_    0.532692 0.850566 0.591270 0.090482
H47   H     H_    0.573929 0.822976 0.635542 0.151568
H48   H     H_    0.625697 0.821628 0.593039 0.152076
H49   H     H_    0.149436 0.466961 0.408790 0.088687
H50   H     H_    0.176896 0.425655 0.364544 0.153602
H51   H     H_    0.178093 0.373874 0.407066 0.155051
H52   H     H_    0.334389 0.974758 0.394805 0.099973
H53   H     H_    0.302382 0.029043 0.355442 0.170094
H54   H     H_    0.285605 0.057819 0.402486 0.147164
H55   H     H_    0.850569 0.533140 0.408680 0.090760
H56   H     H_    0.889540 0.433449 0.782616 0.331540
H57   H     H_    0.823174 0.574472 0.364400 0.152608
H58   H     H_    0.821936 0.626236 0.406906 0.150853
H59   H     H_    0.575857 0.822259 0.365607 0.149161
H60   H     H_    0.533935 0.850376 0.409585 0.081455
H61   H     H_    0.627151 0.822038 0.408295 0.153283
H62   H     H_    0.433622 0.110430 0.782577 0.331540
H63   H     H_    0.110321 0.566431 0.782613 0.331543
H64   H     H_    0.066423 0.610329 0.717394 0.331532
O1    O     O_R   0.561120 0.105710 0.500130 -0.504996
O2    O     O_R   0.394290 0.061120 0.000130 -0.505262
O3    O     O_R   0.938880 0.394290 0.000130 -0.504726
O4    O     O_R   0.605710 0.938880 0.000130 -0.505301
O5    O     O_R   0.061120 0.394290 0.999870 -0.504838
O6    O     O_R   0.394290 0.938880 0.999870 -0.503899
O7    O     O_R   0.938880 0.605710 0.999870 -0.504812
O8    O     O_R   0.605710 0.061120 0.999870 -0.504007
O9    O     O_R   0.561120 0.999900 0.445770 -0.460643
O10   O     O_R   0.000100 0.561120 0.445770 -0.470975
O11   O     O_R   0.438880 0.000100 0.445770 -0.496619
O12   O     O_R   0.894290 0.561120 0.500130 -0.505473
O13   O     O_R   0.999900 0.438880 0.445770 -0.469610
O14   O     O_R   0.561120 0.000100 0.554230 -0.470564
O15   O     O_R   0.000100 0.438880 0.554230 -0.469824
O16   O     O_R   0.438880 0.999900 0.554230 -0.470338
O17   O     O_R   0.999900 0.561120 0.554230 -0.469837
O18   O     O_R   0.061120 0.499900 0.945770 -0.469815
O19   O     O_R   0.500100 0.061120 0.945770 -0.469864
O20   O     O_R   0.938880 0.500100 0.945770 -0.469844
O21   O     O_R   0.499900 0.938880 0.945770 -0.469858
O22   O     O_R   0.061120 0.500100 0.054230 -0.469967
O23   O     O_R   0.438880 0.894290 0.500130 -0.512473
O24   O     O_R   0.500100 0.938880 0.054230 -0.470701
O25   O     O_R   0.938880 0.499900 0.054230 -0.469731
O26   O     O_R   0.499900 0.061120 0.054230 -0.470380
O27   O     O_R   0.394010 0.499860 0.468680 -0.503074
O28   O     O_R   0.500140 0.394010 0.468680 -0.493929
O29   O     O_R   0.605990 0.500140 0.468680 -0.504001
O30   O     O_R   0.499860 0.605990 0.468680 -0.506715
O31   O     O_R   0.394010 0.500140 0.531320 -0.505295
O32   O     O_R   0.500140 0.605990 0.531320 -0.504609
O33   O     O_R   0.605990 0.499860 0.531320 -0.505270
O34   O     O_R   0.105710 0.438880 0.500130 -0.504776
O35   O     O_R   0.499860 0.394010 0.531320 -0.508447
O36   O     O_R   0.894010 0.999860 0.968680 -0.504255
O37   O     O_R   0.000140 0.894010 0.968680 -0.504332
O38   O     O_R   0.105990 0.000140 0.968680 -0.504320
O39   O     O_R   0.999860 0.105990 0.968680 -0.504380
O40   O     O_R   0.894010 0.000140 0.031320 -0.504920
O41   O     O_R   0.000140 0.105990 0.031320 -0.504618
O42   O     O_R   0.105990 0.999860 0.031320 -0.504886
O43   O     O_R   0.999860 0.894010 0.031320 -0.504767
O44   O     O_3   0.581583 0.108804 0.189452 -0.642108
O45   O     O_R   0.561120 0.894290 0.499870 -0.503686
O46   O     O_3   0.887984 0.573812 0.189972 -0.642239
O47   O     O_3   0.426259 0.889934 0.190427 -0.645306
O48   O     O_3   0.112174 0.426380 0.190058 -0.642200
O49   O     O_3   0.573771 0.887944 0.810028 -0.642395
O50   O     O_3   0.887751 0.426334 0.809986 -0.642405
O51   O     O_3   0.426439 0.112190 0.809940 -0.642413
O52   O     O_3   0.112106 0.573597 0.809978 -0.642393
O53   O     O_3   0.073598 0.612108 0.690030 -0.642651
O54   O     O_3   0.387881 0.073593 0.689986 -0.642717
O55   O     O_3   0.926294 0.387789 0.690004 -0.642582
O56   O     O_R   0.894290 0.438880 0.499870 -0.503994
O57   O     O_3   0.612300 0.926511 0.690052 -0.642558
O58   O     O_3   0.073302 0.387681 0.310010 -0.642156
O59   O     O_3   0.395034 0.078766 0.308778 -0.657479
O60   O     O_3   0.926812 0.612476 0.309940 -0.643034
O61   O     O_3   0.614677 0.925120 0.310752 -0.641850
O62   O     O_3   0.581156 0.104818 0.113795 -0.493488
O63   O     O_3   0.892715 0.576601 0.114385 -0.492907
O64   O     O_3   0.421762 0.894821 0.114831 -0.493865
O65   O     O_3   0.107387 0.423502 0.114468 -0.493168
O66   O     O_3   0.576564 0.892683 0.885615 -0.493142
O67   O     O_R   0.438880 0.105710 0.499870 -0.495593
O68   O     O_3   0.892538 0.423521 0.885577 -0.493148
O69   O     O_3   0.423540 0.107402 0.885528 -0.493166
O70   O     O_3   0.107367 0.576482 0.885562 -0.493139
O71   O     O_3   0.076492 0.607360 0.614446 -0.493649
O72   O     O_3   0.392600 0.076419 0.614400 -0.493462
O73   O     O_3   0.923490 0.392568 0.614413 -0.493472
O74   O     O_3   0.607501 0.923635 0.614465 -0.493538
O75   O     O_3   0.076131 0.392388 0.385594 -0.494617
O76   O     O_3   0.390912 0.072103 0.384776 -0.503348
O77   O     O_3   0.923923 0.607702 0.385526 -0.494675
O78   O     O_R   0.105710 0.561120 0.499870 -0.505978
O79   O     O_3   0.608527 0.923523 0.386262 -0.491157
O80   O     O_R   0.061120 0.605710 0.000130 -0.504839

loop_
_geom_bond_atom_site_label_1
_geom_bond_atom_site_label_2
_ccdc_geom_bond_type
C51   C97   A    
C96   C105  S    
C63   C78   A    
C11   H47   S    
Cu8   O80   S    
C15   H55   S    
Cu4   O41   S    
C42   C93   A    
C64   C77   A    
C33   O14   A    
C62   C77   A    
C28   C69   S    
Cu7   O13   S    
C4    O66   S    
C40   C93   A    
H1    O44   S    
C44   O49   S    
C31   O11   A    
H63   O52   S    
H64   O53   S    
C16   H59   S    
C111  H15   S    
Cu10  O3    S    
C38   C76   S    
C110  O62   S    
C38   O22   A    
Cu1   O45   S    
C99   C108  S    
C20   C92   S    
C43   C61   A    
Cu10  O7    S    
C24   C36   S    
C5    H28   S    
C105  C106  T    
Cu4   O40   S    
C6    O69   S    
C17   C26   T    
C5    O68   S    
C56   C100  A    
C54   O59   S    
Cu3   O37   S    
Cu5   O17   S    
C43   O48   S    
Cu5   Cu7   S    
C87   O30   A    
C7    H35   S    
C41   O46   S    
C54   C72   A    
C111  O63   S    
Cu3   Cu4   S    
C4    H24   S    
C15   H58   S    
C15   H57   S    
C58   O7    A    
C43   C94   A    
C31   C83   S    
C70   O74   S    
C42   O47   S    
C11   O74   S    
C112  H18   S    
C32   O13   A    
C9    H39   S    
C70   C81   A    
C112  H16   S    
C53   O58   S    
C32   O10   A    
H34   O48   S    
C45   O50   S    
Cu1   O9    S    
C3    H19   S    
C7    H32   S    
C41   C94   A    
C92   O39   A    
C10   H43   S    
H12   O46   S    
H2    O54   S    
C14   H52   S    
C88   O36   A    
Cu11  O6    S    
C103  C108  T    
C40   C57   A    
C86   O33   A    
C39   C75   S    
C48   C65   A    
C40   O44   S    
C50   C67   A    
Cu2   O31   S    
Cu9   O8    S    
Cu5   O78   S    
C84   O27   A    
C20   C29   T    
C71   C82   A    
Cu2   Cu12  S    
C68   C79   A    
C4    H25   S    
C21   C88   S    
C1    C22   S    
C61   C76   A    
H45   O49   S    
C85   C102  S    
C52   O57   S    
Cu8   O22   S    
C37   O19   A    
C54   C100  A    
C110  H11   S    
Cu6   O11   S    
C68   O73   S    
C48   O52   S    
Cu8   Cu10  S    
H8    O61   S    
C112  O64   S    
Cu6   O16   S    
H5    O58   S    
C34   O17   A    
C71   O75   S    
Cu12  O30   S    
C50   C98   A    
C56   C74   A    
C49   C66   A    
C46   C95   A    
C6    H29   S    
C74   C83   A    
Cu10  O20   S    
Cu3   O36   S    
Cu7   O15   S    
C41   C59   A    
Cu3   O38   S    
C66   O71   S    
H7    O60   S    
C85   O28   A    
C42   C60   A    
Cu9   O2    S    
Cu10  O25   S    
C36   O23   A    
C35   C78   S    
C44   C62   A    
C36   O45   A    
Cu1   O14   S    
C72   O76   S    
C37   C77   S    
C45   C63   A    
Cu7   O34   S    
C53   C99   A    
C5    H26   S    
H62   O51   S    
C13   C24   T    
C46   C64   A    
Cu6   O23   S    
C12   O75   S    
C55   C99   A    
C112  H17   S    
C3    H20   S    
C9    H40   S    
C3    O65   S    
Cu3   O39   S    
C66   C79   A    
C84   O31   A    
C34   C79   S    
C80   O5    A    
C74   O79   S    
C35   O18   A    
C63   O68   S    
H56   O50   S    
C34   O15   A    
C10   H42   S    
C4    H22   S    
Cu11  O24   S    
C13   C87   S    
C6    H31   S    
H3    O55   S    
C21   C30   T    
C14   H54   S    
C46   O51   S    
C89   O43   A    
C19   C28   T    
C85   O35   A    
C37   O21   A    
C6    H30   S    
Cu5   O12   S    
C73   O77   S    
C26   C47   S    
C12   H51   S    
C97   C106  S    
C47   O78   A    
C47   O34   A    
C94   C103  S    
C3    H21   S    
C55   O60   S    
Cu4   O43   S    
C59   O63   S    
Cu2   O35   S    
C80   O3    A    
C110  H10   S    
H4    O57   S    
C38   O25   A    
C93   C101  S    
C8    H36   S    
C73   C82   A    
C31   O9    A    
C32   C82   S    
C95   C104  S    
C111  H13   S    
C12   H50   S    
Cu12  O28   S    
C25   O56   A    
C62   O66   S    
Cu12  O29   S    
C61   O65   S    
C65   C78   A    
C48   C96   A    
C39   O26   A    
Cu4   O42   S    
C18   C89   S    
C90   O38   A    
C51   O55   S    
C18   C27   T    
C56   O61   S    
Cu2   O32   S    
C30   C91   S    
C15   O77   S    
C27   C58   S    
C5    H27   S    
C69   O2    A    
C86   O29   A    
C49   O53   S    
H6    O59   S    
C16   H60   S    
C67   C81   A    
C16   O79   S    
C7    H33   S    
Cu7   O56   S    
Cu1   O1    S    
C91   O4    A    
C33   O16   A    
Cu8   O5    S    
C22   C102  T    
C10   O73   S    
H23   O47   S    
C8    H37   S    
C17   C84   S    
Cu8   O18   S    
Cu9   O26   S    
C57   C75   A    
C8    O71   S    
C9    H41   S    
C65   O70   S    
C57   O62   S    
C25   O12   A    
C8    H38   S    
C91   O8    A    
C45   C96   A    
C60   O64   S    
C88   O40   A    
C29   C80   S    
C33   C81   S    
C92   O41   A    
C14   H53   S    
Cu11  O21   S    
C52   C98   A    
C69   O6    A    
C39   O24   A    
C2    C86   S    
C51   C68   A    
C23   C25   S    
Cu2   O33   S    
C14   O76   S    
Cu9   Cu11  S    
C72   C83   A    
C52   C70   A    
Cu6   O67   S    
C98   C107  S    
C87   O32   A    
C49   C97   A    
Cu1   Cu6   S    
C55   C73   A    
C35   O20   A    
C100  C109  S    
C89   O37   A    
C50   O54   S    
C11   H46   S    
C10   H44   S    
C9    O72   S    
C58   O80   A    
C2    C23   T    
C19   C90   S    
Cu9   O19   S    
C64   O69   S    
C90   O42   A    
C7    O70   S    
C60   C75   A    
C67   O72   S    
Cu11  O4    S    
C110  H9    S    
C16   H61   S    
C101  C109  T    
C59   C76   A    
C11   H48   S    
C104  C107  T    
C44   C95   A    
Cu5   O10   S    
C1    O67   A    
C111  H14   S    
C1    O1    A    
C12   H49   S    
Cu12  O27   S    
C53   C71   A    
