data_mof_unit_9203.cif
_audit_creation_date              2012-12-11T14:30:06-0500
_audit_creation_method            fapswitch 2.2
_symmetry_space_group_name_H-M    P1
_symmetry_Int_Tables_number       1
_space_group_crystal_system       triclinic
_cell_length_a                    12.992071
_cell_length_b                    13.098736
_cell_length_c                    26.856771
_cell_angle_alpha                 89.883168
_cell_angle_beta                  90.105511
_cell_angle_gamma                 119.587872
_cell_volume                      3974.47464894

loop_
_atom_site_label
_atom_site_type_symbol
_atom_type_description
_atom_site_fract_x
_atom_site_fract_y
_atom_site_fract_z
_atom_type_partial_charge
C1    C     C_R   0.558971 0.454736 0.822475 0.537339
C2    C     C_R   0.897756 0.443263 0.678103 0.570669
C3    C     C_R   0.543571 0.100868 0.821073 0.554291
C4    C     C_R   0.556448 0.454207 0.678073 0.568516
C5    C     C_R   0.885488 0.434356 0.824908 0.581821
C6    C     C_R   0.546113 0.103329 0.677772 0.567723
C7    C     C_R   0.456014 0.558856 0.321888 0.547764
C8    C     C_R   0.443169 0.897195 0.177399 0.587435
C9    C     C_R   0.103796 0.544636 0.322191 0.567412
C10   C     C_R   0.456381 0.555249 0.179355 0.582223
C11   C     C_R   0.440880 0.896425 0.322052 0.553722
C12   C     C_R   0.097703 0.543622 0.179431 0.556140
C13   C     C_R   0.920210 0.488511 0.984358 -0.049769
C14   C     C_R   0.512960 0.973471 0.528668 -0.050936
C15   C     C_R   0.497348 0.463691 0.978474 -0.050950
C16   C     C_R   0.028626 0.542896 0.529396 -0.045467
C17   C     C_R   0.526884 0.014670 0.972123 -0.059698
C18   C     C_R   0.462076 0.486318 0.528367 -0.049209
C19   C     C_R   0.502715 0.961880 0.476408 -0.046328
C20   C     C_R   0.935896 0.499912 0.036567 -0.058822
C21   C     C_R   0.462788 0.494972 0.475866 -0.056103
C22   C     C_R   0.526983 0.007565 0.024691 -0.047482
C23   C     C_R   0.037220 0.541779 0.476922 -0.050372
C24   C     C_R   0.489261 0.464287 0.031317 -0.046559
C25   C     C_R   0.989881 0.698032 0.977933 0.258636
C26   C     C_R   0.722419 0.035498 0.522250 0.282664
C27   C     C_R   0.289578 0.318489 0.972893 0.276143
C28   C     C_R   0.951744 0.677715 0.521680 0.293435
C29   C     C_R   0.688618 0.971533 0.966900 0.261947
C30   C     C_R   0.311861 0.281140 0.522686 0.274888
C31   C     C_R   0.711965 0.017829 0.469674 0.269792
C32   C     C_R   0.998798 0.706043 0.030408 0.280128
C33   C     C_R   0.306332 0.291339 0.470202 0.271549
C34   C     C_R   0.681042 0.954031 0.019257 0.274997
C35   C     C_R   0.952718 0.670540 0.469249 0.300049
C36   C     C_R   0.279275 0.328174 0.025045 0.263772
C37   C     C_R   0.950086 0.572573 0.900214 0.024641
C38   C     C_R   0.636956 0.066849 0.600289 -0.016047
C39   C     C_R   0.413608 0.387792 0.895716 0.018609
C40   C     C_R   0.937803 0.574528 0.601815 -0.018240
C41   C     C_R   0.602823 0.007274 0.889272 0.058095
C42   C     C_R   0.424271 0.364882 0.601585 -0.016607
C43   C     C_R   0.587102 0.980178 0.393070 -0.023920
C44   C     C_R   0.034758 0.624399 0.106500 0.017310
C45   C     C_R   0.391060 0.412094 0.392831 0.038056
C46   C     C_R   0.571171 0.931739 0.099095 -0.020589
C47   C     C_R   0.015364 0.604593 0.393344 0.021672
C48   C     C_R   0.374711 0.407547 0.108629 0.004131
C49   C     C_R   0.020190 0.525877 0.134713 -0.028497
C50   C     C_R   0.474950 0.947348 0.372684 -0.031654
C51   C     C_R   0.473752 0.500251 0.133599 0.015672
C52   C     C_R   0.050879 0.527269 0.372837 -0.034351
C53   C     C_R   0.492953 0.956992 0.127775 0.012171
C54   C     C_R   0.474281 0.521149 0.371891 -0.039223
C55   C     C_R   0.534587 0.040928 0.629580 -0.011553
C56   C     C_R   0.914079 0.459357 0.879577 -0.021931
C57   C     C_R   0.503475 0.466314 0.630153 -0.009851
C58   C     C_R   0.521512 0.037206 0.868885 -0.020386
C59   C     C_R   0.963124 0.496848 0.630499 -0.007362
C60   C     C_R   0.522607 0.470205 0.873600 -0.040443
C61   C     C_R   0.956000 0.588673 0.953458 -0.054223
C62   C     C_R   0.624779 0.024208 0.550808 -0.056629
C63   C     C_R   0.398963 0.388142 0.948762 -0.046519
C64   C     C_R   0.976189 0.602167 0.551663 -0.065824
C65   C     C_R   0.605306 0.993861 0.942304 -0.053216
C66   C     C_R   0.397239 0.376845 0.551375 -0.057733
C67   C     C_R   0.602596 0.988162 0.446092 -0.047939
C68   C     C_R   0.990084 0.610771 0.057881 -0.045916
C69   C     C_R   0.386212 0.397416 0.445947 -0.048394
C70   C     C_R   0.593788 0.964013 0.047992 -0.062811
C71   C     C_R   0.000566 0.606180 0.446161 -0.052418
C72   C     C_R   0.379739 0.395880 0.055575 -0.065537
C73   C     C_R   0.881022 0.363397 0.912113 0.210871
C74   C     C_R   0.422149 0.964623 0.609786 0.280849
C75   C     C_R   0.608947 0.558835 0.903682 0.235947
C76   C     C_R   0.041864 0.463380 0.610613 0.276077
C77   C     C_R   0.428927 0.028581 0.898165 0.236865
C78   C     C_R   0.541726 0.577853 0.609360 0.282170
C79   C     C_R   0.385477 0.942895 0.403362 0.238958
C80   C     C_R   0.933040 0.413751 0.118427 0.228607
C81   C     C_R   0.563351 0.605799 0.402238 0.238355
C82   C     C_R   0.455193 0.030899 0.106282 0.284600
C83   C     C_R   0.059827 0.445933 0.404287 0.227226
C84   C     C_R   0.584748 0.549618 0.111182 0.283224
C85   C     C_R   0.872732 0.376267 0.963626 0.018368
C86   C     C_R   0.411373 0.940803 0.558348 0.056311
C87   C     C_R   0.603317 0.545449 0.955295 0.021588
C88   C     C_R   0.067194 0.479019 0.559260 0.059498
C89   C     C_R   0.446214 0.042043 0.949326 0.033536
C90   C     C_R   0.531591 0.587095 0.557522 0.059765
C91   C     C_R   0.392841 0.932186 0.454484 0.035194
C92   C     C_R   0.894774 0.400319 0.067976 0.015701
C93   C     C_R   0.546255 0.600911 0.453423 0.054585
C94   C     C_R   0.461519 0.046263 0.053776 0.052863
C95   C     C_R   0.071824 0.465966 0.455315 0.032889
C96   C     C_R   0.591268 0.538779 0.059577 0.048454
C97   C     C_R   0.823434 0.289809 0.046875 -0.137579
C98   C     C_R   0.291673 0.892632 0.484097 -0.129516
C99   C     C_R   0.697008 0.611460 0.035347 -0.080415
C100  C     C_R   0.117261 0.410176 0.485154 -0.127818
C101  C     C_R   0.402224 0.096974 0.029060 -0.136304
C102  C     C_R   0.610528 0.701185 0.482531 -0.084507
C103  C     C_R   0.300711 0.891792 0.535443 -0.105372
C104  C     C_R   0.818646 0.277916 0.995133 -0.131994
C105  C     C_R   0.597120 0.694955 0.533773 -0.091760
C106  C     C_R   0.389985 0.089291 0.977576 -0.135963
C107  C     C_R   0.122180 0.423400 0.536357 -0.114194
C108  C     C_R   0.702493 0.615766 0.984101 -0.123042
Cr1   Cr    Cr6+3 0.487630 0.241180 0.750000 1.098293
Cr2   Cr    Cr6+3 0.753550 0.512370 0.750000 1.096184
Cr3   Cr    Cr6+3 0.758820 0.246450 0.750000 1.111840
Cr4   Cr    Cr6+3 0.241180 0.487630 0.250000 1.089958
Cr5   Cr    Cr6+3 0.512370 0.753550 0.250000 1.102951
Cr6   Cr    Cr6+3 0.246450 0.758820 0.250000 1.085943
H1    H     H_    0.781827 0.211922 0.069755 0.137488
H2    H     H_    0.205254 0.861861 0.467596 0.147792
H3    H     H_    0.773107 0.671852 0.056228 0.239600
H4    H     H_    0.149092 0.356415 0.468736 0.194628
H5    H     H_    0.358645 0.136502 0.048563 0.113040
H6    H     H_    0.668930 0.785087 0.465606 0.178094
H7    H     H_    0.221912 0.859382 0.557243 0.136088
H8    H     H_    0.774887 0.191691 0.979592 0.174091
H9    H     H_    0.642853 0.773269 0.555062 0.133347
H10   H     H_    0.340101 0.124326 0.959286 0.165584
H11   H     H_    0.163085 0.384742 0.558104 0.130308
H12   H     H_    0.784184 0.676768 0.966747 0.211473
O1    O     O_R   0.460870 0.120930 0.805240 -0.466484
O2    O     O_R   0.660060 0.539130 0.694760 -0.447469
O3    O     O_R   0.879070 0.339940 0.805240 -0.460138
O4    O     O_R   0.460870 0.120930 0.694760 -0.451551
O5    O     O_R   0.660060 0.539130 0.805240 -0.460178
O6    O     O_R   0.879070 0.339940 0.694760 -0.447145
O7    O     O_R   0.120930 0.460870 0.305240 -0.467102
O8    O     O_R   0.539130 0.660060 0.194760 -0.452571
O9    O     O_R   0.339940 0.879070 0.305240 -0.467932
O10   O     O_R   0.120930 0.460870 0.194760 -0.495124
O11   O     O_R   0.539130 0.660060 0.305240 -0.485373
O12   O     O_R   0.339940 0.879070 0.194760 -0.481536
O13   O     O_R   0.498910 0.350470 0.801870 -0.481127
O14   O     O_R   0.851560 0.501090 0.698130 -0.493982
O15   O     O_R   0.649530 0.148440 0.801870 -0.466244
O16   O     O_R   0.498910 0.350470 0.698130 -0.492444
O17   O     O_R   0.851560 0.501090 0.801870 -0.474327
O18   O     O_R   0.649530 0.148440 0.698130 -0.492821
O19   O     O_R   0.350470 0.498910 0.301870 -0.466540
O20   O     O_R   0.501090 0.851560 0.198130 -0.480421
O21   O     O_R   0.148440 0.649530 0.301870 -0.468575
O22   O     O_R   0.350470 0.498910 0.198130 -0.480356
O23   O     O_R   0.501090 0.851560 0.301870 -0.482455
O24   O     O_R   0.148440 0.649530 0.198130 -0.476259
O25   O     O_3   0.666667 0.333333 0.750000 -0.312196
O26   O     O_3   0.333333 0.666667 0.250000 -0.306862
C109  C     C_2   0.109368 0.743657 0.124661 0.635034
O27   O     O_2   0.211438 0.798716 0.110160 -0.571637
O28   O     O_R   0.064243 0.788629 0.160416 -0.679612
H13   H     H_    0.125915 0.865550 0.175206 0.314158
C110  C     C_2   0.686983 0.029033 0.357056 0.615430
O29   O     O_2   0.706882 0.116502 0.333363 -0.518664
O30   O     O_R   0.749525 0.971188 0.345263 -0.645449
H14   H     H_    0.717330 0.893822 0.363185 0.371572
C111  C     C_2   0.278755 0.318289 0.141133 0.596865
O31   O     O_2   0.174918 0.288651 0.134777 -0.510785
O32   O     O_R   0.311376 0.280390 0.184129 -0.691984
H15   H     H_    0.240903 0.225872 0.205379 0.324171
C112  C     C_2   0.999374 0.683746 0.358557 0.619408
O33   O     O_2   0.051358 0.789553 0.365664 -0.495816
O34   O     O_R   0.935057 0.637661 0.314552 -0.726343
H16   H     H_    0.940548 0.700815 0.291029 0.326325
C113  C     C_2   0.620798 0.861194 0.119793 0.671891
O35   O     O_2   0.590849 0.765378 0.101650 -0.473326
O36   O     O_R   0.706898 0.906986 0.157228 -0.685998
H17   H     H_    0.738997 0.852731 0.166066 0.371890
C114  C     C_2   0.324885 0.314642 0.357081 0.624321
O37   O     O_2   0.380506 0.291102 0.326949 -0.567966
O38   O     O_R   0.201898 0.260952 0.353109 -0.597735
H18   H     H_    0.168867 0.200172 0.325599 0.311124
C115  C     C_2   0.757471 0.151592 0.617522 0.675289
O39   O     O_2   0.811771 0.246578 0.596705 -0.479678
O40   O     O_R   0.811996 0.118321 0.654154 -0.686728
H19   H     H_    0.899544 0.176123 0.657762 0.369798
C116  C     C_2   0.986488 0.670096 0.864043 0.603656
O41   O     O_2   0.934267 0.726044 0.861937 -0.440941
O42   O     O_R   0.066798 0.683056 0.826608 -0.750714
H20   H     H_    0.065984 0.732579 0.797718 0.322903
C117  C     C_2   0.383381 0.244781 0.620286 0.676998
O43   O     O_2   0.420465 0.185333 0.600681 -0.468156
O44   O     O_R   0.296937 0.197396 0.657524 -0.691064
H21   H     H_    0.268210 0.111178 0.663837 0.364845
C118  C     C_2   0.665442 0.973714 0.852121 0.600753
O45   O     O_2   0.773119 0.022752 0.850519 -0.471792
O46   O     O_R   0.598950 0.896630 0.813877 -0.759038
H22   H     H_    0.650054 0.888884 0.787326 0.323658
C119  C     C_2   0.854569 0.611722 0.620094 0.677028
O47   O     O_2   0.757011 0.570361 0.600895 -0.461945
O48   O     O_R   0.890800 0.699342 0.656437 -0.695912
H23   H     H_    0.831536 0.727257 0.661770 0.368027
C120  C     C_2   0.316301 0.307567 0.862331 0.658082
O49   O     O_2   0.277970 0.201733 0.864664 -0.460872
O50   O     O_R   0.272146 0.354199 0.826822 -0.709632
H24   H     H_    0.206799 0.291200 0.805830 0.334694
O51   O     O_3   0.976440 0.785000 0.056291 -0.556024
C121  C     C_3   0.067439 0.901771 0.052191 -0.073799
H25   H     H_    0.043484 0.946005 0.023287 0.124173
H26   H     H_    0.155913 0.910500 0.045918 0.121544
H27   H     H_    0.071699 0.947259 0.087518 0.142541
O52   O     O_3   0.797154 0.008841 0.441404 -0.613175
C122  C     C_3   0.915297 0.089635 0.453878 -0.072586
H28   H     H_    0.947933 0.051155 0.482121 0.138611
H29   H     H_    0.927678 0.175995 0.466164 0.174548
H30   H     H_    0.971181 0.103757 0.420732 0.182340
O53   O     O_3   0.167003 0.281425 0.043920 -0.559292
C123  C     C_3   0.129828 0.365148 0.037907 -0.086660
H31   H     H_    0.138718 0.397768 0.998964 0.126175
H32   H     H_    0.177329 0.440055 0.063987 0.142830
H33   H     H_    0.035546 0.320743 0.046992 0.133427
O54   O     O_3   0.886275 0.705836 0.441021 -0.559798
C124  C     C_3   0.928099 0.827028 0.445571 -0.029972
H34   H     H_    0.023238 0.875001 0.454280 0.087533
H35   H     H_    0.875975 0.843532 0.473634 0.173641
H36   H     H_    0.915763 0.861761 0.409774 0.174249
O55   O     O_3   0.764015 0.932364 0.041993 -0.546707
C125  C     C_3   0.858707 0.039303 0.058829 -0.101225
H37   H     H_    0.830730 0.069758 0.091506 0.124190
H38   H     H_    0.892795 0.108150 0.029504 0.120462
H39   H     H_    0.932128 0.024806 0.070710 0.163679
O56   O     O_3   0.210680 0.208035 0.443355 -0.568193
C126  C     C_3   0.190994 0.093904 0.451022 -0.095758
H40   H     H_    0.124134 0.051562 0.480387 0.135359
H41   H     H_    0.272409 0.090308 0.460732 0.164025
H42   H     H_    0.151858 0.043336 0.416624 0.154294
O57   O     O_3   0.830164 0.069830 0.545098 -0.580407
C127  C     C_3   0.824401 0.975944 0.572858 -0.130072
H43   H     H_    0.831135 0.912663 0.547705 0.138551
H44   H     H_    0.745018 0.932422 0.597129 0.150022
H45   H     H_    0.899914 0.011554 0.598859 0.145798
O58   O     O_3   0.995556 0.791750 0.952403 -0.582134
C128  C     C_3   0.113264 0.867216 0.938144 -0.088494
H46   H     H_    0.163972 0.820887 0.931236 0.118987
H47   H     H_    0.161848 0.934793 0.965965 0.095095
H48   H     H_    0.110557 0.914684 0.904639 0.199449
O59   O     O_3   0.238524 0.173900 0.544866 -0.571465
C129  C     C_3   0.143311 0.176320 0.568473 -0.118138
H49   H     H_    0.084034 0.184329 0.540887 0.145995
H50   H     H_    0.173207 0.245638 0.597355 0.163639
H51   H     H_    0.092776 0.092636 0.588594 0.138411
O60   O     O_3   0.792127 0.996419 0.942071 -0.571199
C130  C     C_3   0.818989 0.904996 0.946349 -0.052089
H52   H     H_    0.859528 0.898743 0.911086 0.188906
H53   H     H_    0.739838 0.819445 0.954387 0.150608
H54   H     H_    0.886409 0.925414 0.975485 0.170296
O61   O     O_3   0.914245 0.750210 0.542621 -0.556232
C131  C     C_3   0.010577 0.844403 0.567025 -0.138854
H55   H     H_    0.073836 0.907787 0.539811 0.106755
H56   H     H_    0.056592 0.815245 0.593468 0.154772
H57   H     H_    0.976363 0.889931 0.590380 0.142200
O62   O     O_3   0.188055 0.257925 0.944364 -0.580734
C132  C     C_3   0.121288 0.139478 0.959292 -0.078292
H58   H     H_    0.091101 0.083446 0.925639 0.162042
H59   H     H_    0.041586 0.126301 0.979326 0.152256
H60   H     H_    0.170333 0.109530 0.983508 0.081317
O63   O     O_3   0.867283 0.328476 0.153540 -0.560710
C133  C     C_3   0.907225 0.246750 0.158830 -0.072547
H61   H     H_    0.962533 0.246188 0.127459 0.139494
H62   H     H_    0.828526 0.158254 0.162316 0.160778
H63   H     H_    0.956317 0.262216 0.194295 0.189172
O64   O     O_3   0.288914 0.946711 0.383673 -0.542513
C134  C     C_3   0.329183 0.057674 0.360933 -0.042592
H64   H     H_    0.391595 0.075293 0.329697 0.166733
H65   H     H_    0.374111 0.129922 0.388347 0.125326
H66   H     H_    0.251944 0.060260 0.344814 0.169216
O65   O     O_3   0.685228 0.623022 0.138262 -0.545644
C135  C     C_3   0.732075 0.554695 0.157964 -0.080632
H67   H     H_    0.813750 0.613060 0.179077 0.184905
H68   H     H_    0.756875 0.512555 0.127866 0.136199
H69   H     H_    0.668823 0.487087 0.184272 0.145613
O66   O     O_3   0.063765 0.349832 0.385451 -0.527296
C136  C     C_3   0.951287 0.271562 0.365454 -0.024825
H70   H     H_    0.926189 0.310181 0.334044 0.165544
H71   H     H_    0.881545 0.242623 0.394491 0.133435
H72   H     H_    0.953253 0.193907 0.350339 0.195189
O67   O     O_3   0.436569 0.104465 0.137432 -0.544958
C137  C     C_3   0.315842 0.070421 0.140531 -0.071138
H73   H     H_    0.256831 0.991449 0.119382 0.124808
H74   H     H_    0.302158 0.139871 0.124526 0.146155
H75   H     H_    0.288841 0.058435 0.180206 0.164905
O68   O     O_3   0.664679 0.697843 0.382308 -0.584443
C138  C     C_3   0.728370 0.652930 0.356463 -0.028649
H76   H     H_    0.685309 0.607657 0.321350 0.140490
H77   H     H_    0.742145 0.590048 0.379502 0.183023
H78   H     H_    0.814510 0.728469 0.345881 0.178683
O69   O     O_3   0.322112 0.930391 0.638568 -0.551002
C139  C     C_3   0.289297 0.819359 0.659136 -0.151470
H79   H     H_    0.359693 0.823592 0.684186 0.110016
H80   H     H_    0.267978 0.752225 0.629596 0.089409
H81   H     H_    0.208245 0.790506 0.681806 0.157902
O70   O     O_3   0.862033 0.257128 0.893671 -0.528637
C140  C     C_3   0.970527 0.257376 0.897752 -0.009849
H82   H     H_    0.043239 0.332800 0.877503 0.141333
H83   H     H_    0.962331 0.176618 0.881084 0.217916
H84   H     H_    0.994512 0.258761 0.937496 0.141084
O71   O     O_3   0.608327 0.677539 0.637573 -0.557730
C141  C     C_3   0.531756 0.715598 0.656408 -0.155673
H85   H     H_    0.464431 0.648762 0.681783 0.111643
H86   H     H_    0.487738 0.737461 0.625860 0.088862
H87   H     H_    0.584771 0.796825 0.678344 0.157155
O72   O     O_3   0.326973 0.018355 0.876953 -0.540017
C142  C     C_3   0.274510 0.918435 0.845228 -0.078946
H88   H     H_    0.260687 0.837799 0.864662 0.127318
H89   H     H_    0.325838 0.925260 0.811387 0.147219
H90   H     H_    0.189673 0.908303 0.831550 0.161301
O73   O     O_3   0.077268 0.398015 0.639052 -0.562771
C143  C     C_3   0.187011 0.475872 0.661099 -0.144379
H91   H     H_    0.178669 0.537878 0.686865 0.116178
H92   H     H_    0.255976 0.525256 0.632465 0.084278
H93   H     H_    0.217204 0.424010 0.683278 0.168780
O74   O     O_3   0.703446 0.656836 0.882987 -0.529195
C144  C     C_3   0.660426 0.725598 0.860157 -0.057613
H94   H     H_    0.616845 0.755006 0.887737 0.113211
H95   H     H_    0.596452 0.679191 0.829623 0.144046
H96   H     H_    0.736585 0.803044 0.843166 0.184925

loop_
_geom_bond_atom_site_label_1
_geom_bond_atom_site_label_2
_ccdc_geom_bond_type
C110  O29   D    
C82   C94   A    
C18   C21   A    
C140  H83   S    
O69   C139  S    
Cr6   O26   S    
C50   C79   A    
C12   C49   S    
C77   O72   S    
O71   C141  S    
C31   C67   A    
C20   C92   A    
C77   C89   A    
C137  H73   S    
Cr1   O25   S    
C48   C72   A    
C24   C96   A    
C4    O16   A    
C47   C112  S    
C5    O17   A    
O65   C135  S    
C96   C99   A    
C105  H9    S    
C8    O12   A    
C32   O51   S    
C120  O50   S    
C55   C74   A    
Cr1   O1    S    
C38   C55   A    
C135  H67   S    
C30   O59   S    
C89   C106  A    
C122  H30   S    
C129  H50   S    
C138  H77   S    
Cr1   O16   S    
C97   H1    S    
C35   O54   S    
C33   C69   A    
C35   C71   A    
O50   H24   S    
C9    C52   S    
C10   C51   S    
C57   C78   A    
C111  O32   S    
C116  O42   S    
C129  H51   S    
C121  H25   S    
C45   C69   A    
O46   H22   S    
C12   O24   A    
C17   C89   A    
C1    C60   S    
C7    O11   A    
O52   C122  S    
C53   C82   A    
Cr5   O20   S    
C80   C92   A    
C144  H96   S    
O42   H20   S    
C45   C114  S    
C76   O73   S    
C126  H40   S    
C37   C116  S    
C127  H44   S    
O72   C142  S    
Cr2   O5    S    
C47   C71   A    
O70   C140  S    
Cr5   O11   S    
Cr6   O24   S    
C103  H7    S    
C130  H54   S    
C56   C73   A    
C13   C20   A    
C14   C19   A    
C20   C68   A    
C90   C105  A    
C1    O5    A    
C41   C65   A    
C47   C52   A    
C49   C80   A    
C41   C118  S    
C139  H80   S    
C28   O61   S    
C21   C93   A    
C135  H69   S    
C39   C60   A    
C46   C53   A    
C23   C95   A    
C91   C98   A    
C74   O69   S    
C46   C70   A    
O48   H23   S    
C123  H31   S    
C119  O47   D    
C13   C85   A    
O28   H13   S    
C108  H12   S    
C54   C81   A    
C10   O22   A    
C131  H55   S    
C38   C62   A    
C9    O7    A    
C29   O60   S    
C3    O15   A    
C6    O4    A    
C99   C108  A    
C41   C58   A    
O63   C133  S    
C134  H66   S    
C117  O44   S    
C104  H8    S    
C14   C62   A    
Cr4   O19   S    
C132  H58   S    
C118  O46   S    
C58   C77   A    
C28   C35   A    
C115  O40   S    
C27   O62   S    
C79   C91   A    
C112  O34   S    
C38   C115  S    
C136  H70   S    
C22   C94   A    
Cr2   O17   S    
Cr4   O10   S    
Cr3   O3    S    
C92   C97   A    
C40   C119  S    
C114  O38   S    
C141  H86   S    
C14   C86   A    
C125  H39   S    
C124  H34   S    
C21   C69   A    
C110  O30   S    
O55   C125  S    
C99   H3    S    
C123  H33   S    
C125  H38   S    
C73   C85   A    
C131  H57   S    
C29   C65   A    
C42   C117  S    
C75   C87   A    
C15   C24   A    
C126  H41   S    
C16   C23   A    
C6    O18   A    
C24   C72   A    
C113  O36   S    
C101  C106  A    
O60   C130  S    
C84   O65   S    
C8    O20   A    
C43   C110  S    
C8    C53   S    
C134  H64   S    
C43   C50   A    
C133  H61   S    
C26   O57   S    
C18   C66   A    
C137  H74   S    
C143  H93   S    
C142  H90   S    
C128  H47   S    
Cr6   O12   S    
C120  O49   D    
C44   C68   A    
Cr3   O15   S    
O66   C136  S    
C137  H75   S    
C135  H68   S    
O56   C126  S    
C12   O10   A    
C136  H72   S    
Cr2   O2    S    
C122  H29   S    
C59   C76   A    
C22   C70   A    
C36   C72   A    
C7    O19   A    
C5    C56   S    
C6    C55   S    
O36   H17   S    
C133  H63   S    
C111  O31   D    
O61   C131  S    
C116  O41   D    
C78   C90   A    
C124  H36   S    
C121  H26   S    
C73   O70   S    
C98   C103  A    
C79   O64   S    
C102  C105  A    
C113  O35   D    
C144  H95   S    
C11   O23   A    
C25   O58   S    
C121  H27   S    
C2    O6    A    
Cr4   O26   S    
C19   C67   A    
C109  O28   S    
C34   C70   A    
C1    O13   A    
C34   O55   S    
C5    O3    A    
C39   C120  S    
C37   C56   A    
Cr5   O26   S    
C42   C57   A    
C130  H53   S    
C4    O2    A    
C122  H28   S    
C18   C90   A    
C23   C71   A    
Cr2   O25   S    
O34   H16   S    
C88   C107  A    
C95   C100  A    
C48   C111  S    
C29   C34   A    
C142  H88   S    
C52   C83   A    
C11   O9    A    
O30   H14   S    
C129  H49   S    
C138  H78   S    
C25   C61   A    
C85   C104  A    
C27   C63   A    
C28   C64   A    
C123  H32   S    
C33   O56   S    
Cr5   O8    S    
C100  H4    S    
C102  H6    S    
C131  H56   S    
C2    C59   S    
C93   C102  A    
Cr6   O21   S    
C27   C36   A    
C60   C75   A    
C17   C22   A    
C132  H60   S    
O44   H21   S    
C11   C50   S    
C134  H65   S    
C117  O43   D    
C127  H43   S    
C143  H92   S    
C118  O45   D    
C97   C104  A    
C19   C91   A    
C36   O53   S    
O40   H19   S    
C3    C58   S    
C115  O39   D    
C16   C88   A    
O74   C144  S    
C7    C54   S    
C51   C84   A    
C44   C49   A    
C78   O71   S    
O73   C143  S    
C112  O33   D    
C140  H82   S    
O32   H15   S    
Cr4   O7    S    
C114  O37   D    
O58   C128  S    
C141  H87   S    
C44   C109  S    
C139  H79   S    
O59   C129  S    
O68   C138  S    
C3    O1    A    
C84   C96   A    
C48   C51   A    
C87   C108  A    
O38   H18   S    
C94   C101  A    
C119  O48   S    
C4    C57   S    
Cr6   O9    S    
C76   C88   A    
C75   O74   S    
C32   C68   A    
C25   C32   A    
C26   C31   A    
C40   C59   A    
C144  H94   S    
C86   C103  A    
C101  H5    S    
Cr5   O23   S    
O54   C124  S    
C31   O52   S    
C133  H62   S    
O67   C137  S    
C9    O21   A    
C127  H45   S    
Cr4   O22   S    
C132  H59   S    
O53   C123  S    
C143  H91   S    
C81   C93   A    
C98   H2    S    
C83   C95   A    
O62   C132  S    
C74   C86   A    
C30   C66   A    
Cr3   O18   S    
C43   C67   A    
C45   C54   A    
C107  H11   S    
C136  H71   S    
C138  H76   S    
C140  H84   S    
C128  H48   S    
C83   O66   S    
Cr1   O4    S    
C15   C87   A    
C141  H85   S    
C100  C107  A    
C30   C33   A    
C139  H81   S    
C80   O63   S    
C10   O8    A    
Cr3   O25   S    
C37   C61   A    
C130  H52   S    
C124  H35   S    
C39   C63   A    
C17   C65   A    
C40   C64   A    
C46   C113  S    
Cr1   O13   S    
C2    O14   A    
Cr2   O14   S    
C26   C62   A    
C142  H89   S    
C125  H37   S    
O64   C134  S    
Cr3   O6    S    
C126  H42   S    
C13   C61   A    
O51   C121  S    
O57   C127  S    
C42   C66   A    
C15   C63   A    
C81   O68   S    
C16   C64   A    
C106  H10   S    
C109  O27   D    
C128  H46   S    
C82   O67   S    
