data_mof_unit_39484.cif
_audit_creation_date              2012-12-10T18:45:04-0500
_audit_creation_method            fapswitch 2.2
_symmetry_space_group_name_H-M    P1
_symmetry_Int_Tables_number       1
_space_group_crystal_system       triclinic
_cell_length_a                    10.747086
_cell_length_b                    9.833669
_cell_length_c                    10.805287
_cell_angle_alpha                 89.743044
_cell_angle_beta                  92.034504
_cell_angle_gamma                 90.356316
_cell_volume                      1141.1859407

loop_
_atom_site_label
_atom_site_type_symbol
_atom_type_description
_atom_site_fract_x
_atom_site_fract_y
_atom_site_fract_z
_atom_type_partial_charge
C1    C     C_R   0.259901 0.499632 0.503295 0.918825
C2    C     C_R   0.739926 0.500468 0.496422 0.932842
C3    C     C_R   0.937069 0.623673 0.512817 -0.257723
C4    C     C_R   0.064877 0.623115 0.515737 -0.267536
C5    C     C_R   0.586461 0.072502 0.571048 0.388049
C6    C     C_R   0.413591 0.072799 0.427697 0.378797
C7    C     C_R   0.580912 0.927172 0.575620 0.420389
C8    C     C_R   0.418540 0.926471 0.424441 0.397899
C9    C     C_R   0.512322 0.500560 0.260912 0.952351
C10   C     C_R   0.497512 0.500311 0.740619 0.932472
C11   C     C_R   0.592923 0.748480 0.112181 0.646005
C12   C     C_R   0.443199 0.749802 0.892648 0.652575
C13   C     C_R   0.568129 0.871320 0.046662 -0.373260
C14   C     C_R   0.487876 0.871688 0.942695 -0.237854
C15   C     C_R   0.491063 0.625204 0.941605 -0.171331
C16   C     C_R   0.539825 0.626139 0.063343 -0.124044
C17   C     C_R   0.533331 0.501752 0.129408 -0.250765
C18   C     C_R   0.501900 0.501688 0.874434 -0.285679
C19   C     C_R   0.528914 0.378237 0.064580 0.383535
C20   C     C_R   0.538718 0.382190 0.937512 0.389528
C21   C     C_R   0.061519 0.376994 0.491764 0.517878
C22   C     C_R   0.935032 0.379686 0.474942 0.506427
C23   C     C_R   0.872190 0.501589 0.492727 -0.224484
C24   C     C_R   0.127267 0.499427 0.505484 -0.240881
H1    H     H_    0.607010 0.968026 0.075811 0.191851
H2    H     H_    0.461569 0.967017 0.899152 0.195814
H3    H     H_    0.889633 0.719118 0.526107 0.208474
H4    H     H_    0.114324 0.718758 0.527915 0.215698
N1    N     N_R   0.500000 0.857200 0.500000 -0.176321
N2    N     N_R   0.500000 0.142810 0.500000 -0.183769
O1    O     O_R   0.316770 0.614620 0.499990 -0.578716
O2    O     O_R   0.683230 0.614620 0.500010 -0.596650
O3    O     O_R   0.316800 0.385290 0.500000 -0.534870
O4    O     O_R   0.683200 0.385290 0.500000 -0.540827
O5    O     O_R   0.500010 0.614690 0.316770 -0.554761
O6    O     O_R   0.499990 0.614690 0.683230 -0.539208
O7    O     O_R   0.500040 0.385360 0.316770 -0.551799
O8    O     O_R   0.499960 0.385360 0.683230 -0.557734
Zn1   Zn    Zn3+2 0.500000 0.653120 0.500000 1.088563
Zn2   Zn    Zn3+2 0.500000 0.346880 0.500000 1.108018
O9    O     O_3   0.528751 0.253527 0.124575 -0.581923
C25   C     C_3   0.414299 0.187473 0.096385 -0.219280
H5    H     H_    0.398774 0.169068 0.995761 0.162567
H6    H     H_    0.335059 0.246986 0.130921 0.171176
H7    H     H_    0.415680 0.086534 0.142016 0.202871
O10   O     O_3   0.573345 0.265629 0.876356 -0.564600
C26   C     C_3   0.700660 0.239724 0.904279 -0.164699
H8    H     H_    0.729626 0.255746 0.003080 0.146881
H9    H     H_    0.759628 0.303893 0.844692 0.153640
H10   H     H_    0.718976 0.131261 0.885398 0.191653
O11   O     O_3   0.678228 0.737468 0.212724 -0.609869
C27   C     C_3   0.719441 0.863089 0.262182 -0.232052
H11   H     H_    0.640144 0.928550 0.286638 0.140366
H12   H     H_    0.781943 0.915853 0.197458 0.157692
H13   H     H_    0.774559 0.843150 0.348964 0.185213
O12   O     O_3   0.352991 0.757147 0.797974 -0.590218
C28   C     C_3   0.243315 0.691577 0.835412 -0.336958
H14   H     H_    0.214045 0.728534 0.927237 0.161277
H15   H     H_    0.254348 0.579306 0.836987 0.151503
H16   H     H_    0.167171 0.715473 0.766967 0.198704
F1    F     F_    0.118241 0.254589 0.496735 -0.659559
F2    F     F_    0.875072 0.263620 0.439676 -0.667851
O13   O     O_3   0.672031 0.146986 0.642488 -0.544082
C29   C     C_3   0.793103 0.091480 0.640409 -0.128558
H17   H     H_    0.861563 0.174274 0.659178 0.180988
H18   H     H_    0.814403 0.045366 0.549577 0.181113
H19   H     H_    0.807692 0.016340 0.716266 0.172578
O14   O     O_3   0.330251 0.150589 0.355742 -0.560338
C30   C     C_3   0.218767 0.082141 0.319933 -0.100857
H20   H     H_    0.149053 0.159032 0.289340 0.189631
H21   H     H_    0.179063 0.023455 0.397733 0.208080
H22   H     H_    0.232093 0.017331 0.237796 0.154217
F3    F     F_    0.654801 0.855337 0.655957 -0.659284
F4    F     F_    0.345536 0.851980 0.345281 -0.667800

loop_
_geom_bond_atom_site_label_1
_geom_bond_atom_site_label_2
_ccdc_geom_bond_type
C6    O14   S    
C15   C18   A    
O5    Zn1   S    
C22   F2    S    
C27   H13   S    
C7    N1    A    
O7    Zn2   S    
O9    C25   S    
C21   F1    S    
C19   C20   A    
C12   C15   A    
C12   C14   A    
C10   O8    A    
C29   H17   S    
N1    Zn1   S    
C3    H3    S    
C8    F4    S    
C1    O3    A    
O11   C27   S    
C7    F3    S    
C13   C14   A    
C14   H2    S    
O8    Zn2   S    
C11   C13   A    
C13   H1    S    
C28   H14   S    
C12   O12   S    
O12   C28   S    
C25   H6    S    
C10   C18   S    
O4    Zn2   S    
C8    N1    A    
C2    O2    A    
C6    N2    A    
O1    Zn1   S    
C21   C22   A    
C5    N2    A    
C26   H10   S    
C18   C20   A    
O2    Zn1   S    
C30   H20   S    
C4    C24   A    
C9    O5    A    
C28   H15   S    
O3    Zn2   S    
C11   O11   S    
C25   H5    S    
N2    Zn2   S    
O13   C29   S    
C29   H19   S    
C19   O9    S    
C30   H21   S    
C1    O1    A    
C30   H22   S    
C27   H11   S    
C5    O13   S    
C1    C24   S    
C26   H9    S    
C9    O7    A    
C11   C16   A    
C21   C24   A    
C9    C17   S    
C2    C23   S    
C5    C7    A    
C22   C23   A    
C17   C19   A    
C28   H16   S    
C6    C8    A    
C10   O6    A    
C4    H4    S    
C2    O4    A    
O10   C26   S    
C3    C23   A    
O6    Zn1   S    
C20   O10   S    
C3    C4    A    
C15   C16   A    
C16   C17   A    
C27   H12   S    
O14   C30   S    
C26   H8    S    
C25   H7    S    
C29   H18   S    
