data_mof_unit_43739.cif
_audit_creation_date              2012-12-11T15:21:12-0500
_audit_creation_method            fapswitch 2.2
_symmetry_space_group_name_H-M    P1
_symmetry_Int_Tables_number       1
_space_group_crystal_system       triclinic
_cell_length_a                    18.377733
_cell_length_b                    18.334798
_cell_length_c                    51.201474
_cell_angle_alpha                 90.115799
_cell_angle_beta                  89.699798
_cell_angle_gamma                 119.928528
_cell_volume                      14951.5916712

loop_
_atom_site_label
_atom_site_type_symbol
_atom_type_description
_atom_site_fract_x
_atom_site_fract_y
_atom_site_fract_z
_atom_type_partial_charge
C1    C     C_R   0.408130 0.584678 0.287808 0.543246
C2    C     C_R   0.500077 0.403571 0.856139 -0.062836
C3    C     C_R   0.421049 0.901649 0.092542 0.421381
C4    C     C_R   0.472607 0.013442 0.401847 0.420366
C5    C     C_R   0.487729 0.048974 0.102914 0.422247
C6    C     C_R   0.504831 0.919124 0.353591 -0.062443
C7    C     C_R   0.516265 0.942340 0.149595 -0.061411
C8    C     C_R   0.500449 0.894387 0.327561 -0.143972
C9    C     C_R   0.507057 0.906954 0.174421 -0.142055
C10   C     C_R   0.355883 0.863364 0.325719 -0.137671
C11   C     C_R   0.363767 0.879571 0.176483 -0.134934
C12   C     C_R   0.360365 0.887716 0.351751 -0.058082
C13   C     C_R   0.549556 0.491749 0.638215 0.230978
C14   C     C_R   0.373128 0.914798 0.151665 -0.055346
C15   C     C_R   0.434235 0.914053 0.365893 0.247288
C16   C     C_R   0.448771 0.944736 0.137897 0.245039
C17   C     C_R   0.438967 0.964040 0.446742 -0.031945
C18   C     C_R   0.456050 0.003752 0.057611 -0.031684
C19   C     C_R   0.402614 0.880422 0.437765 0.028620
C20   C     C_R   0.422305 0.919560 0.065832 0.030531
C21   C     C_R   0.370742 0.814489 0.455966 -0.112903
C22   C     C_R   0.392539 0.855287 0.047124 -0.117741
C23   C     C_R   0.141411 0.544448 0.410188 0.432003
C24   C     C_R   0.572466 0.428769 0.871344 0.242326
C25   C     C_R   0.112219 0.569539 0.092209 0.421465
C26   C     C_R   0.475013 0.031037 0.428681 0.028340
C27   C     C_R   0.490309 0.069111 0.076192 0.027119
C28   C     C_R   0.425235 0.864376 0.313522 0.010223
C29   C     C_R   0.429920 0.873161 0.187868 0.007445
C30   C     C_R   0.558856 0.129567 0.687522 0.009186
C31   C     C_R   0.564150 0.142177 0.814632 0.008768
C32   C     C_R   0.395210 0.930448 0.518705 0.019363
C33   C     C_R   0.408786 0.974206 0.986075 0.019436
C34   C     C_R   0.498171 0.079763 0.510251 0.019975
C35   C     C_R   0.575006 0.593124 0.488606 0.015203
C36   C     C_R   0.508072 0.124019 0.994646 0.016060
C37   C     C_R   0.452660 0.012334 0.528031 0.022247
C38   C     C_R   0.463465 0.056779 0.976790 0.020580
C39   C     C_R   0.337728 0.869876 0.536937 -0.019751
C40   C     C_R   0.350047 0.913748 0.968316 -0.018164
C41   C     C_R   0.355188 0.883500 0.563725 -0.101656
C42   C     C_R   0.364708 0.927924 0.941420 -0.099812
C43   C     C_R   0.418872 0.961005 0.573113 0.013301
C44   C     C_R   0.428182 0.005507 0.931811 0.014409
C45   C     C_R   0.465292 0.026795 0.555303 -0.037177
C46   C     C_R   0.623916 0.512826 0.023396 0.015411
C47   C     C_R   0.474336 0.071668 0.949467 -0.040108
C48   C     C_R   0.078511 0.587877 0.352933 -0.058195
C49   C     C_R   0.059294 0.580585 0.150869 -0.057907
C50   C     C_R   0.525376 0.106761 0.564704 0.032627
C51   C     C_R   0.532376 0.152152 0.939862 0.029534
C52   C     C_R   0.539648 0.119248 0.591684 0.422339
C53   C     C_R   0.547296 0.164035 0.912744 0.446261
C54   C     C_R   0.434618 0.975574 0.600093 0.419629
C55   C     C_R   0.444397 0.019374 0.904828 0.419038
C56   C     C_R   0.458716 0.086634 0.651891 -0.059729
C57   C     C_R   0.494221 0.553005 0.477091 0.035518
C58   C     C_R   0.465219 0.109286 0.850627 -0.045897
C59   C     C_R   0.482391 0.116724 0.677301 -0.139580
C60   C     C_R   0.485325 0.125739 0.824129 -0.138901
C61   C     C_R   0.608502 0.106818 0.672365 -0.133850
C62   C     C_R   0.621074 0.138512 0.832116 -0.136201
C63   C     C_R   0.584835 0.077119 0.646935 -0.055615
C64   C     C_R   0.601012 0.122601 0.858664 -0.058168
C65   C     C_R   0.510998 0.068985 0.636394 0.244141
C66   C     C_R   0.523585 0.109362 0.868125 0.243145
C67   C     C_R   0.399484 0.913119 0.491805 0.011413
C68   C     C_R   0.547801 0.456156 0.036359 0.032066
C69   C     C_R   0.416191 0.955875 0.012501 0.012471
C70   C     C_R   0.440622 0.980744 0.473903 0.033760
C71   C     C_R   0.456337 0.022462 0.030669 0.034386
C72   C     C_R   0.101964 0.605673 0.326761 -0.139966
C73   C     C_R   0.089303 0.599632 0.176338 -0.134432
C74   C     C_R   0.485456 0.064798 0.483010 0.017594
C75   C     C_R   0.498068 0.107249 0.022001 0.013882
C76   C     C_R   0.370762 0.830745 0.482525 -0.156745
C77   C     C_R   0.391132 0.873439 0.020875 -0.159958
C78   C     C_R   0.512782 0.113994 0.437823 -0.111297
C79   C     C_R   0.421207 0.511301 0.492934 0.015947
C80   C     C_R   0.526125 0.152759 0.067618 -0.112503
C81   C     C_R   0.557032 0.159411 0.520320 -0.142425
C82   C     C_R   0.562726 0.205014 0.984405 -0.144722
C83   C     C_R   0.570410 0.172436 0.546995 -0.111581
C84   C     C_R   0.574799 0.218535 0.957565 -0.119577
C85   C     C_R   0.518501 0.130698 0.464466 -0.144093
C86   C     C_R   0.530741 0.171636 0.041047 -0.148435
C87   C     C_R   0.549905 0.588652 0.406140 0.418235
C88   C     C_R   0.585025 0.554262 0.102851 0.421590
C89   C     C_R   0.399919 0.520847 0.410604 0.433132
C90   C     C_R   0.483331 0.386170 0.022809 0.013025
C91   C     C_R   0.444109 0.437864 0.101111 0.424374
C92   C     C_R   0.413989 0.488457 0.352343 -0.059022
C93   C     C_R   0.455980 0.467417 0.160095 -0.056251
C94   C     C_R   0.399578 0.495294 0.325927 -0.141672
C95   C     C_R   0.431700 0.486485 0.183898 -0.140205
C96   C     C_R   0.139540 0.496166 0.326178 -0.136441
C97   C     C_R   0.133304 0.495112 0.173771 -0.139010
C98   C     C_R   0.489561 0.646687 0.328492 -0.140435
C99   C     C_R   0.481607 0.629150 0.169131 -0.140393
C100  C     C_R   0.502768 0.639855 0.354923 -0.049971
C101  C     C_R   0.646081 0.626782 0.471936 -0.146963
C102  C     C_R   0.503744 0.609365 0.145015 -0.056423
C103  C     C_R   0.463771 0.560956 0.367185 0.241201
C104  C     C_R   0.490179 0.527926 0.140108 0.230262
C105  C     C_R   0.486432 0.553830 0.449471 -0.031656
C106  C     C_R   0.535321 0.470712 0.062992 -0.031993
C107  C     C_R   0.558586 0.589631 0.433435 0.031025
C108  C     C_R   0.599492 0.538473 0.076897 0.031000
C109  C     C_R   0.637885 0.624912 0.444959 -0.111329
C110  C     C_R   0.676572 0.589680 0.064510 -0.109573
C111  C     C_R   0.406512 0.518331 0.437921 0.028109
C112  C     C_R   0.409029 0.583982 0.212454 0.541024
C113  C     C_R   0.688586 0.577494 0.038380 -0.142677
C114  C     C_R   0.458034 0.418552 0.075537 0.031453
C115  C     C_R   0.435792 0.574730 0.313899 0.010306
C116  C     C_R   0.443519 0.567227 0.188532 0.009208
C117  C     C_R   0.573249 0.440675 0.687642 0.015998
C118  C     C_R   0.581102 0.425132 0.816206 0.011590
C119  C     C_R   0.582321 0.595807 0.516282 0.000292
C120  C     C_R   0.631681 0.504606 0.995930 0.000322
C121  C     C_R   0.116475 0.478869 0.352362 -0.050942
C122  C     C_R   0.103164 0.476197 0.148238 -0.056785
C123  C     C_R   0.429827 0.502545 0.520163 0.017693
C124  C     C_R   0.334953 0.482122 0.453906 -0.122101
C125  C     C_R   0.494600 0.373830 0.995938 0.014581
C126  C     C_R   0.510640 0.546413 0.531840 0.028167
C127  C     C_R   0.566035 0.436255 0.982270 0.021820
C128  C     C_R   0.659613 0.646536 0.528750 -0.120959
C129  C     C_R   0.702959 0.562856 0.981520 -0.122269
C130  C     C_R   0.670532 0.642903 0.555776 -0.000232
C131  C     C_R   0.708752 0.557398 0.954361 0.012865
C132  C     C_R   0.599211 0.587651 0.571379 0.027948
C133  C     C_R   0.637542 0.496563 0.940447 0.039740
C134  C     C_R   0.519822 0.539603 0.559165 -0.040465
C135  C     C_R   0.395272 0.349482 0.062031 -0.109154
C136  C     C_R   0.570458 0.431468 0.954565 -0.047647
C137  C     C_R   0.449241 0.483051 0.574142 0.033822
C138  C     C_R   0.506750 0.362252 0.940914 0.027207
C139  C     C_R   0.459299 0.468620 0.600424 0.425938
C140  C     C_R   0.509970 0.359908 0.913425 0.447454
C141  C     C_R   0.603760 0.577423 0.598779 0.409455
C142  C     C_R   0.628806 0.499279 0.913065 0.411744
C143  C     C_R   0.615807 0.475751 0.642495 -0.056512
C144  C     C_R   0.649228 0.454004 0.858567 -0.047661
C145  C     C_3   0.252818 0.795780 0.529149 -0.266174
C146  C     C_R   0.360481 0.449165 0.536027 -0.146106
C147  C     C_3   0.179124 0.798269 0.542711 -0.298084
C148  C     C_3   0.094704 0.727089 0.533187 -0.444895
C149  C     C_3   0.266233 0.839856 0.977078 -0.268945
C150  C     C_3   0.191427 0.844447 0.965661 -0.297459
C151  C     C_3   0.109655 0.783251 0.979558 -0.454022
C152  C     C_3   0.758408 0.694710 0.567637 -0.220844
C153  C     C_3   0.832053 0.745189 0.548662 -0.333982
C154  C     C_3   0.915690 0.788655 0.563111 -0.447682
C155  C     C_3   0.794149 0.613467 0.941596 -0.234999
C156  C     C_3   0.862683 0.598647 0.953245 -0.323347
C157  C     C_R   0.435660 0.302058 0.981940 -0.140247
C158  C     C_3   0.942197 0.639831 0.936477 -0.449071
C159  C     C_R   0.046341 0.495956 0.447498 -0.033056
C160  C     C_R   0.021704 0.497802 0.055272 -0.032519
C161  C     C_R   0.370296 0.438945 0.562342 -0.108996
C162  C     C_R   0.441849 0.296423 0.955017 -0.111334
C163  C     C_R   0.341978 0.478611 0.480836 -0.154001
C164  C     C_R   0.087918 0.526064 0.365950 0.243182
C165  C     C_R   0.407693 0.333203 0.036347 -0.142710
C166  C     C_R   0.591227 0.175331 0.712394 0.545063
C167  C     C_R   0.591936 0.177184 0.788040 0.543140
C168  C     C_R   0.825285 0.415879 0.712538 0.541605
C169  C     C_R   0.824298 0.415601 0.787625 0.538245
C170  C     C_R   0.584428 0.409124 0.712622 0.540337
C171  C     C_R   0.585499 0.406784 0.788296 0.539246
C172  C     C_R   0.977877 0.466266 0.430191 0.028214
C173  C     C_R   0.959945 0.440885 0.072766 0.028117
C174  C     C_R   0.896239 0.427783 0.440212 -0.111501
C175  C     C_R   0.068287 0.520597 0.136521 0.245232
C176  C     C_R   0.883749 0.376995 0.062936 -0.110944
C177  C     C_R   0.128709 0.535487 0.437347 0.026711
C178  C     C_R   0.098178 0.562906 0.065153 0.029375
C179  C     C_R   0.135016 0.561589 0.313348 0.010032
C180  C     C_R   0.129213 0.559113 0.187735 0.009749
C181  C     C_R   0.874229 0.429812 0.688325 0.006774
C182  C     C_R   0.867621 0.427988 0.812779 0.006768
C183  C     C_R   0.934767 0.432395 0.512150 0.017738
C184  C     C_R   0.913550 0.419237 0.990820 0.016271
C185  C     C_R   0.087815 0.512340 0.519700 0.009304
C186  C     C_R   0.628414 0.451924 0.667085 -0.132030
C187  C     C_R   0.059643 0.531988 0.983101 0.010534
C188  C     C_R   0.004170 0.468663 0.529489 0.026842
C189  C     C_R   0.979981 0.470795 0.973392 0.029640
C190  C     C_R   0.175885 0.591392 0.287711 0.546099
C191  C     C_R   0.175181 0.590975 0.212476 0.546122
C192  C     C_R   0.853100 0.384499 0.522835 -0.145186
C193  C     C_R   0.834026 0.362763 0.980175 -0.151733
C194  C     C_R   0.839676 0.376922 0.549573 -0.113733
C195  C     C_R   0.821276 0.354962 0.953390 -0.124136
C196  C     C_R   0.906997 0.416075 0.566837 0.028523
C197  C     C_R   0.653769 0.453719 0.831420 -0.141663
C198  C     C_R   0.886809 0.403495 0.936051 0.024528
C199  C     C_R   0.989594 0.461353 0.556937 -0.036041
C200  C     C_R   0.966592 0.461191 0.945953 -0.035338
C201  C     C_R   0.057455 0.499634 0.574472 0.024761
C202  C     C_R   0.032782 0.509921 0.928437 0.022850
C203  C     C_R   0.041606 0.493926 0.601540 0.420302
C204  C     C_R   0.017959 0.501187 0.901394 0.415242
C205  C     C_R   0.893273 0.410876 0.593899 0.415841
C206  C     C_R   0.873675 0.396886 0.908946 0.412365
C207  C     C_R   0.914031 0.371794 0.651931 -0.054605
C208  C     C_R   0.506521 0.455738 0.683612 -0.145996
C209  C     C_R   0.897026 0.367444 0.850636 -0.056814
C210  C     C_R   0.879944 0.363043 0.676869 -0.138636
C211  C     C_R   0.869795 0.360335 0.824905 -0.143050
C212  C     C_R   0.908718 0.507308 0.675129 -0.143448
C213  C     C_R   0.897827 0.504359 0.826377 -0.151804
C214  C     C_R   0.415107 0.823734 0.287807 0.543504
C215  C     C_R   0.415856 0.824841 0.212372 0.542560
C216  C     C_R   0.942952 0.515892 0.650193 -0.066233
C217  C     C_R   0.924843 0.511215 0.852103 -0.071587
C218  C     C_R   0.943266 0.447368 0.638234 0.244063
C219  C     C_R   0.504092 0.400242 0.828808 -0.145286
C220  C     C_R   0.922537 0.442160 0.864538 0.240681
C221  C     C_R   0.948869 0.444542 0.484823 0.016414
C222  C     C_R   0.928682 0.425595 0.018168 0.017097
C223  C     C_R   0.032390 0.486355 0.474961 0.032544
C224  C     C_R   0.007184 0.489440 0.027870 0.032829
C225  C     C_R   0.102035 0.518891 0.492234 0.017091
C226  C     C_R   0.071566 0.544787 0.010461 0.016827
C227  C     C_R   0.881909 0.417392 0.466900 -0.143865
C228  C     C_R   0.868258 0.369462 0.036262 -0.142787
C229  C     C_R   0.196587 0.565338 0.454470 -0.126762
C230  C     C_R   0.495703 0.482817 0.659143 -0.053285
C231  C     C_R   0.158846 0.620261 0.047869 -0.111483
C232  C     C_R   0.154440 0.548799 0.537887 -0.160141
C233  C     C_R   0.125403 0.577509 0.965006 -0.155824
C234  C     C_R   0.139404 0.543039 0.564626 -0.121409
C235  C     C_R   0.112061 0.566856 0.938278 -0.121035
C236  C     C_R   0.183782 0.557349 0.481291 -0.160354
C237  C     C_R   0.145867 0.611683 0.021106 -0.148836
C238  C     C_R   0.992602 0.476406 0.403140 0.418635
C239  C     C_R   0.976148 0.448866 0.099767 0.422550
C240  C     C_R   0.401515 0.864945 0.410812 0.418207
Cr1   Cr    Cr6+3 0.456550 0.732290 0.250000 1.028587
Cr2   Cr    Cr6+3 0.275740 0.543450 0.250000 1.024427
Cr3   Cr    Cr6+3 0.267710 0.724260 0.250000 1.021020
Cr4   Cr    Cr6+3 0.543450 0.275740 0.750000 1.024949
Cr5   Cr    Cr6+3 0.724260 0.267710 0.750000 1.019475
Cr6   Cr    Cr6+3 0.732290 0.456550 0.750000 1.028767
H1    H     H_    0.165055 0.461276 0.316448 0.139607
H2    H     H_    0.896787 0.557540 0.817621 0.138693
H3    H     H_    0.098113 0.717970 0.977963 0.162726
H4    H     H_    0.112650 0.800011 0.000539 0.159238
H5    H     H_    0.056565 0.786572 0.970588 0.146404
H6    H     H_    0.201692 0.909252 0.967951 0.176317
H7    H     H_    0.184990 0.828738 0.944522 0.165871
H8    H     H_    0.262790 0.779920 0.971116 0.129363
H9    H     H_    0.258729 0.839418 0.998541 0.160708
H10   H     H_    0.915606 0.832772 0.577997 0.166594
H11   H     H_    0.927296 0.741342 0.572852 0.156497
H12   H     H_    0.967482 0.824911 0.549001 0.147329
H13   H     H_    0.192731 0.573109 0.577637 0.167520
H14   H     H_    0.834867 0.702350 0.533795 0.162892
H15   H     H_    0.823747 0.794448 0.538765 0.165208
H16   H     H_    0.757171 0.740151 0.581786 0.196776
H17   H     H_    0.773033 0.650552 0.578128 0.189713
H18   H     H_    0.930126 0.608427 0.917131 0.161827
H19   H     H_    0.964039 0.707698 0.933598 0.156308
H20   H     H_    0.992423 0.633694 0.946299 0.158942
H21   H     H_    0.878805 0.625334 0.973261 0.157358
H22   H     H_    0.839709 0.530011 0.954429 0.184967
H23   H     H_    0.794037 0.601444 0.920472 0.206981
H24   H     H_    0.164432 0.604041 0.925282 0.167526
H25   H     H_    0.811787 0.680512 0.944152 0.152081
H26   H     H_    0.964611 0.574150 0.639541 0.125806
H27   H     H_    0.943951 0.568987 0.862784 0.125764
H28   H     H_    0.239866 0.581299 0.492824 0.105220
H29   H     H_    0.194898 0.659810 0.009272 0.097795
H30   H     H_    0.296857 0.840170 0.315562 0.134837
H31   H     H_    0.303508 0.854112 0.186228 0.135705
H32   H     H_    0.305619 0.883704 0.361194 0.124050
H33   H     H_    0.163915 0.463031 0.181982 0.142493
H34   H     H_    0.320296 0.915379 0.142617 0.127409
H35   H     H_    0.346374 0.749995 0.449749 0.160994
H36   H     H_    0.370412 0.790571 0.052698 0.160684
H37   H     H_    0.123650 0.430882 0.362378 0.140883
H38   H     H_    0.110799 0.430165 0.137103 0.135469
H39   H     H_    0.442716 0.133534 0.688467 0.137697
H40   H     H_    0.440349 0.128771 0.811250 0.132755
H41   H     H_    0.401937 0.081218 0.643771 0.131072
H42   H     H_    0.405205 0.099032 0.857710 0.143539
H43   H     H_    0.315888 0.834363 0.577429 0.162189
H44   H     H_    0.056414 0.624509 0.363417 0.130010
H45   H     H_    0.323832 0.879073 0.927940 0.161528
H46   H     H_    0.350078 0.778144 0.495777 0.112735
H47   H     H_    0.371267 0.822242 0.007096 0.115176
H48   H     H_    0.554765 0.895512 0.318807 0.134633
H49   H     H_    0.559198 0.902964 0.182581 0.138755
H50   H     H_    0.562108 0.939387 0.364488 0.126902
H51   H     H_    0.574562 0.964257 0.138936 0.129265
H52   H     H_    0.539481 0.166667 0.424372 0.165943
H53   H     H_    0.551922 0.204306 0.081460 0.166567
H54   H     H_    0.596478 0.212294 0.507957 0.103157
H55   H     H_    0.032740 0.615332 0.141816 0.126573
H56   H     H_    0.599672 0.258740 0.996710 0.107260
H57   H     H_    0.667807 0.116124 0.679600 0.135354
H58   H     H_    0.682765 0.152238 0.825567 0.132083
H59   H     H_    0.842591 0.405638 0.427382 0.166779
H60   H     H_    0.835454 0.332005 0.075903 0.167609
H61   H     H_    0.617087 0.234408 0.553705 0.156079
H62   H     H_    0.618075 0.281564 0.950709 0.151390
H63   H     H_    0.625870 0.064232 0.634965 0.128337
H64   H     H_    0.646454 0.122474 0.872013 0.136731
H65   H     H_    0.547896 0.196068 0.470011 0.110372
H66   H     H_    0.260474 0.595157 0.447148 0.166017
H67   H     H_    0.558847 0.237320 0.035974 0.114009
H68   H     H_    0.517573 0.708942 0.319933 0.138110
H69   H     H_    0.490406 0.691554 0.172140 0.134108
H70   H     H_    0.540794 0.696448 0.366135 0.144032
H71   H     H_    0.529166 0.656862 0.129855 0.151177
H72   H     H_    0.694395 0.651381 0.433101 0.164190
H73   H     H_    0.727810 0.641141 0.074860 0.164006
H74   H     H_    0.679624 0.439420 0.669860 0.132373
H75   H     H_    0.713697 0.471000 0.822436 0.139667
H76   H     H_    0.657212 0.480783 0.626611 0.150175
H77   H     H_    0.217182 0.672220 0.054998 0.162771
H78   H     H_    0.705703 0.472413 0.869726 0.150349
H79   H     H_    0.711854 0.691547 0.517362 0.108159
H80   H     H_    0.756172 0.614246 0.990815 0.105874
H81   H     H_    0.854154 0.302635 0.686546 0.132966
H82   H     H_    0.846772 0.300635 0.814991 0.129982
H83   H     H_    0.709201 0.652160 0.479127 0.105522
H84   H     H_    0.749774 0.620566 0.030611 0.105717
H85   H     H_    0.357746 0.438848 0.315186 0.133879
H86   H     H_    0.402699 0.437778 0.198620 0.132214
H87   H     H_    0.384115 0.427016 0.361495 0.139259
H88   H     H_    0.219475 0.584148 0.532219 0.104358
H89   H     H_    0.446103 0.404700 0.156967 0.151630
H90   H     H_    0.272728 0.455560 0.445604 0.167115
H91   H     H_    0.335259 0.307989 0.071199 0.165608
H92   H     H_    0.298013 0.410997 0.528429 0.113428
H93   H     H_    0.383938 0.248590 0.991277 0.111660
H94   H     H_    0.463479 0.447179 0.699392 0.123399
H95   H     H_    0.446968 0.376673 0.817566 0.130235
H96   H     H_    0.315270 0.395320 0.573450 0.167341
H97   H     H_    0.394095 0.240778 0.945173 0.159887
H98   H     H_    0.444914 0.495850 0.656426 0.156923
H99   H     H_    0.188848 0.620849 0.970871 0.108304
H100  H     H_    0.440322 0.385114 0.865436 0.148561
H101  H     H_    0.283952 0.451336 0.491739 0.113282
H102  H     H_    0.354909 0.280385 0.027286 0.112595
H103  H     H_    0.913420 0.318378 0.642642 0.128491
H104  H     H_    0.895107 0.313791 0.860134 0.131626
H105  H     H_    0.775740 0.340192 0.556699 0.163082
H106  H     H_    0.759373 0.310436 0.946250 0.168785
H107  H     H_    0.797647 0.350532 0.511109 0.104044
H108  H     H_    0.779385 0.324526 0.992000 0.107697
H109  H     H_    0.817144 0.389323 0.472788 0.107034
H110  H     H_    0.905497 0.559945 0.683474 0.141357
H111  H     H_    0.808723 0.317226 0.030465 0.111717
H112  H     H_    0.097888 0.656463 0.317433 0.134956
H113  H     H_    0.084840 0.648945 0.186615 0.137313
H114  H     H_    0.088723 0.731582 0.511754 0.158589
H115  H     H_    0.088364 0.665181 0.537946 0.173964
H116  H     H_    0.042979 0.731321 0.543024 0.142595
H117  H     H_    0.181725 0.791813 0.564189 0.169688
H118  H     H_    0.182701 0.859477 0.538540 0.173153
H119  H     H_    0.241512 0.796301 0.507958 0.162184
H120  H     H_    0.251357 0.736132 0.534129 0.140264
N1    N     N_R   0.073579 0.514941 0.393581 -0.393854
N2    N     N_R   0.507106 0.505717 0.114441 -0.381443
N3    N     N_R   0.536431 0.514363 0.612276 -0.376264
N4    N     N_R   0.569353 0.429299 0.899701 -0.369960
N5    N     N_R   0.051665 0.512472 0.109010 -0.391034
N6    N     N_R   0.960227 0.450140 0.610773 -0.390545
N7    N     N_R   0.938913 0.445754 0.892063 -0.390676
N8    N     N_R   0.436013 0.931230 0.393337 -0.391737
N9    N     N_R   0.452775 0.965978 0.110670 -0.390713
N10   N     N_R   0.494935 0.053776 0.608908 -0.388468
N11   N     N_R   0.504776 0.097397 0.895705 -0.384328
N12   N     N_R   0.471249 0.555417 0.395066 -0.384505
O1    O     O_R   0.475290 0.813700 0.278840 -0.514760
O2    O     O_2   0.405617 0.961813 0.889435 -0.515899
O3    O     O_2   0.503020 0.071059 0.386015 -0.508793
O4    O     O_2   0.516353 0.104986 0.119256 -0.505766
O5    O     O_2   0.591777 0.188469 0.599950 -0.493748
O6    O     O_2   0.598235 0.233478 0.904259 -0.473136
O7    O     O_2   0.612305 0.617166 0.392162 -0.520332
O8    O     O_2   0.641751 0.611420 0.115133 -0.520782
O9    O     O_2   0.667223 0.624394 0.610871 -0.548649
O10   O     O_2   0.670536 0.565222 0.901218 -0.539720
O11   O     O_2   0.330783 0.493250 0.400634 -0.495167
O12   O     O_R   0.475290 0.813700 0.221160 -0.511418
O13   O     O_2   0.375158 0.395317 0.111295 -0.522272
O14   O     O_2   0.399791 0.413783 0.612619 -0.523603
O15   O     O_2   0.459748 0.296493 0.901741 -0.518959
O16   O     O_R   0.448450 0.657720 0.276690 -0.496018
O17   O     O_R   0.448450 0.657720 0.223310 -0.489991
O18   O     O_R   0.524710 0.338410 0.721160 -0.503359
O19   O     O_R   0.524710 0.338410 0.778840 -0.508137
O20   O     O_R   0.551550 0.209270 0.723310 -0.494663
O21   O     O_R   0.551550 0.209270 0.776690 -0.495236
O22   O     O_R   0.661590 0.186300 0.721160 -0.513192
O23   O     O_2   0.212759 0.579126 0.401249 -0.453100
O24   O     O_R   0.661590 0.186300 0.778840 -0.512248
O25   O     O_R   0.790730 0.342280 0.723310 -0.496112
O26   O     O_R   0.790730 0.342280 0.776690 -0.496852
O27   O     O_R   0.813700 0.475290 0.721160 -0.510401
O28   O     O_R   0.813700 0.475290 0.778840 -0.518118
O29   O     O_R   0.657720 0.448450 0.723310 -0.489950
O30   O     O_R   0.657720 0.448450 0.776690 -0.495962
O31   O     O_3   0.666667 0.333333 0.750000 -0.233863
O32   O     O_R   0.338410 0.524710 0.278840 -0.514817
O33   O     O_R   0.338410 0.524710 0.221160 -0.509704
O34   O     O_2   0.178514 0.625811 0.100902 -0.487955
O35   O     O_R   0.209270 0.551550 0.276690 -0.496042
O36   O     O_R   0.209270 0.551550 0.223310 -0.494218
O37   O     O_R   0.186300 0.661590 0.278840 -0.515354
O38   O     O_R   0.186300 0.661590 0.221160 -0.514402
O39   O     O_R   0.342280 0.790730 0.276690 -0.496505
O40   O     O_R   0.342280 0.790730 0.223310 -0.494788
O41   O     O_3   0.333333 0.666667 0.250000 -0.231133
O42   O     O_2   0.933548 0.450728 0.388027 -0.509258
O43   O     O_2   0.923272 0.399514 0.115074 -0.505714
O44   O     O_2   0.821595 0.372253 0.602549 -0.498405
O45   O     O_2   0.099893 0.527724 0.616901 -0.507627
O46   O     O_2   0.803853 0.348649 0.900310 -0.497071
O47   O     O_2   0.075138 0.542999 0.886099 -0.511957
O48   O     O_2   0.370197 0.792614 0.402831 -0.483588
O49   O     O_2   0.391634 0.828701 0.099766 -0.490528
O50   O     O_2   0.394925 0.918913 0.615741 -0.511299

loop_
_geom_bond_atom_site_label_1
_geom_bond_atom_site_label_2
_ccdc_geom_bond_type
C91   N2    Am   
C194  C196  A    
C63   C65   A    
C158  H20   S    
C198  C206  A    
C215  O40   A    
C39   C41   A    
C166  O20   A    
C21   C76   A    
C191  O38   A    
C230  H98   S    
C139  N3    Am   
C58   C60   A    
C184  C193  A    
C61   C63   A    
C21   H35   S    
C80   C86   A    
C95   H86   S    
C140  O15   D    
C117  C170  S    
C70   C74   A    
C207  C210  A    
C50   C52   A    
C63   H63   S    
C34   C81   A    
C23   N1    Am   
C33   C69   A    
C195  C198  A    
C119  C128  A    
C87   O7    D    
C219  H95   S    
C53   N11   Am   
C41   C43   A    
C31   C62   A    
C72   H112  S    
C50   C83   A    
C7    H51   S    
C146  C161  A    
C171  O19   A    
C159  C172  A    
C110  H73   S    
C127  C136  A    
C99   C116  A    
C187  C226  A    
C25   C178  A    
C123  C126  A    
Cr4   O18   S    
C103  N12   S    
C64   C66   A    
C213  H2    S    
C174  C227  A    
C218  N6    S    
C43   C54   A    
C4    C26   A    
Cr5   O25   S    
C39   C145  S    
C232  C234  A    
C138  C162  A    
C160  C178  A    
Cr2   O41   S    
C187  C233  A    
C169  O26   A    
C138  C140  A    
C152  H17   S    
C136  C138  A    
C160  C224  A    
C31   C167  S    
C158  H18   S    
C25   N5    Am   
C90   C165  A    
C130  C152  S    
C204  O47   D    
C8    C28   A    
C49   C73   A    
C37   C45   A    
C212  H110  S    
C49   C175  A    
C234  H13   S    
C18   C71   A    
C190  O37   A    
C94   H85   S    
C191  O36   A    
C111  C124  A    
C142  N4    Am   
C143  H76   S    
C79   C123  A    
C94   C115  A    
C150  H6    S    
C48   C164  A    
C221  C227  A    
C33   C38   A    
C61   H57   S    
C56   C59   A    
C35   C57   A    
C229  C236  A    
C156  C158  S    
C183  C188  A    
C137  C161  A    
C44   C55   A    
C201  C234  A    
C231  H77   S    
C118  C171  S    
C88   C108  A    
C36   C38   A    
C192  H107  S    
C169  C182  S    
C23   C177  A    
C119  C126  A    
C87   C107  A    
C126  C134  A    
C200  C202  A    
C168  C181  S    
C16   N9    S    
C155  C156  S    
C125  C127  A    
C128  H79   S    
C198  C200  A    
C1    C115  S    
C165  H102  S    
C157  C162  A    
C172  C238  A    
C160  C173  A    
C69   C77   A    
C147  C148  S    
C117  C208  A    
C120  C127  A    
C58   H42   S    
C217  H27   S    
C209  H104  S    
C105  C107  A    
C133  C142  A    
C26   C78   A    
C96   C121  A    
C52   N10   Am   
C19   C21   A    
C216  C218  A    
C117  C186  A    
C29   C215  S    
C55   O2    D    
C169  O28   A    
C205  O44   D    
C5    C27   A    
C47   C51   A    
Cr3   O37   S    
C194  H105  S    
C147  H117  S    
C62   C64   A    
Cr2   O35   S    
C153  H15   S    
C96   H1    S    
C154  H12   S    
C208  H94   S    
C124  C163  A    
C40   C42   A    
C190  O35   A    
C210  H81   S    
C93   C95   A    
C226  C237  A    
C201  C203  A    
C174  H59   S    
C3    O49   D    
Cr4   O31   S    
C48   C72   A    
C196  C199  A    
C81   C83   A    
C172  C174  A    
C151  H4    S    
C176  C228  A    
C33   C40   A    
C120  C129  A    
C88   N2    Am   
C91   O13   D    
C27   C80   A    
C22   H36   S    
C97   C180  A    
C211  H82   S    
C227  H109  S    
C1    O16   A    
C181  C210  A    
C51   C53   A    
C192  C194  A    
C46   C68   A    
C36   C75   A    
C54   N10   Am   
Cr6   O27   S    
C23   O23   D    
C68   C90   A    
C156  H22   S    
C88   O8    D    
C95   C116  A    
C185  C225  A    
C30   C59   A    
C46   C120  A    
C32   C37   A    
C222  C224  A    
C43   C45   A    
C229  H66   S    
C32   C67   A    
C78   C85   A    
C132  C134  A    
C168  O27   A    
C186  H74   S    
Cr6   O29   S    
C30   C61   A    
Cr4   O19   S    
C112  C116  S    
C167  O24   A    
C86   H67   S    
C152  H16   S    
C132  C141  A    
C2    H100  S    
C185  C232  A    
C42   H45   S    
C203  O45   D    
C46   C113  A    
C225  C236  A    
Cr2   O32   S    
C10   H30   S    
C180  C191  S    
C223  C225  A    
C149  H9    S    
Cr1   O1    S    
C91   C114  A    
C67   C70   A    
C62   H58   S    
C49   H55   S    
C97   H33   S    
C113  H84   S    
C2    C24   A    
C112  O17   A    
C4    N8    Am   
C98   C115  A    
C106  C108  A    
C135  H91   S    
C52   O5    D    
C108  C110  A    
C74   C85   A    
C76   H46   S    
C48   H44   S    
C77   H47   S    
C93   H89   S    
C78   H52   S    
C102  H71   S    
C152  C153  S    
Cr6   O31   S    
C148  H115  S    
Cr3   O39   S    
C150  C151  S    
C121  H37   S    
C122  H38   S    
C82   H56   S    
C145  H119  S    
Cr1   O17   S    
C53   O6    D    
C34   C37   A    
C9    H49   S    
C183  C192  A    
C134  C137  A    
C154  H10   S    
C124  H90   S    
C217  C220  A    
C137  C139  A    
C215  O12   A    
C202  C204  A    
C181  C212  A    
C239  O43   D    
C228  H111  S    
C125  C157  A    
C101  C109  A    
C32   C39   A    
C238  O42   D    
C80   H53   S    
C145  C147  S    
C202  C235  A    
C73   C180  A    
C144  C197  A    
C129  H80   S    
Cr5   O24   S    
C182  C213  A    
C157  H93   S    
C232  H88   S    
Cr1   O41   S    
Cr4   O21   S    
C105  C111  A    
C158  H19   S    
C175  N5    S    
C107  C109  A    
C237  H29   S    
C100  H70   S    
C167  O21   A    
C193  H108  S    
C207  H103  S    
Cr5   O31   S    
C1    O32   A    
C66   N11   S    
C151  H3    S    
C81   H54   S    
C84   H62   S    
C150  H7    S    
C151  H5    S    
C100  C103  A    
C13   N3    S    
C31   C60   A    
C130  C132  A    
C24   N4    S    
C205  N6    Am   
C59   H39   S    
C12   C15   A    
C222  C228  A    
C220  N7    S    
Cr3   O40   S    
C173  C239  A    
C135  C165  A    
C3    C20   A    
C139  O14   D    
C3    N9    Am   
C4    O3    D    
C34   C74   A    
C7    C16   A    
C20   C22   A    
C98   C100  A    
C2    C219  A    
C143  C186  A    
C206  N7    Am   
C10   C28   A    
C207  C218  A    
C146  H92   S    
C238  N1    Am   
C171  O30   A    
C22   C77   A    
C35   C101  A    
C112  O33   A    
C128  C130  A    
C5    O4    D    
C6    C8    A    
C162  H97   S    
C131  C155  S    
C178  C231  A    
C142  O10   D    
C149  C150  S    
C25   O34   D    
C45   C50   A    
C24   C144  A    
Cr5   O26   S    
C99   H69   S    
C182  C211  A    
C90   C125  A    
C40   C149  S    
C13   C143  A    
C96   C179  A    
C99   C102  A    
C199  C201  A    
Cr2   O36   S    
C153  H14   S    
C51   C84   A    
C11   H31   S    
C240  O48   D    
C122  C175  A    
C57   C105  A    
C42   C44   A    
C148  H114  S    
C57   C79   A    
C35   C119  A    
C204  N7    Am   
C64   H64   S    
C197  H75   S    
C85   H65   S    
C101  H83   S    
C235  H24   S    
C184  C222  A    
C156  H21   S    
C8    H48   S    
C106  C114  A    
C17   C26   A    
C177  C229  A    
C11   C14   A    
C6    H50   S    
C170  O18   A    
C56   C65   A    
C214  O1    A    
Cr5   O22   S    
C196  C205  A    
C69   C71   A    
C239  N5    Am   
C203  N6    Am   
C75   C86   A    
C92   C103  A    
C209  C211  A    
C6    C15   A    
C58   C66   A    
C141  N3    Am   
C212  C216  A    
C36   C82   A    
C193  C195  A    
C163  H101  S    
C87   N12   Am   
C114  C135  A    
C123  C146  A    
C18   C20   A    
C44   C47   A    
C9    C29   A    
C145  H120  S    
C13   C230  A    
C17   C70   A    
C214  O39   A    
C233  H99   S    
Cr6   O30   S    
C170  O29   A    
C68   C106  A    
C159  C177  A    
Cr4   O20   S    
C93   C104  A    
C92   C94   A    
C155  H23   S    
C65   N10   S    
Cr1   O12   S    
C28   C214  S    
Cr2   O33   S    
C73   H113  S    
C30   C166  S    
C98   H68   S    
C213  C217  A    
C185  C188  A    
C92   H87   S    
C188  C199  A    
C149  H8    S    
C121  C164  A    
C166  O22   A    
C55   N11   Am   
C97   C122  A    
C144  H78   S    
C155  H25   S    
C133  C136  A    
C206  O46   D    
C83   H61   S    
Cr3   O38   S    
C147  H118  S    
C168  O25   A    
C102  C104  A    
C233  C235  A    
C110  C113  A    
C38   C47   A    
C154  H11   S    
C10   C12   A    
C189  C200  A    
C5    N9    Am   
C148  H116  S    
Cr3   O41   S    
C14   C16   A    
C89   N12   Am   
C12   H32   S    
Cr6   O28   S    
C173  C176  A    
C14   H34   S    
C7    C9    A    
Cr1   O16   S    
C176  H60   S    
C209  C220  A    
C18   C27   A    
C79   C163  A    
C131  C133  A    
C224  C226  A    
C240  N8    Am   
C161  H96   S    
C15   N8    S    
C41   H43   S    
C89   C111  A    
C82   C84   A    
C109  H72   S    
C231  C237  A    
C164  N1    S    
C221  C223  A    
C19   C240  A    
C140  N4    Am   
C71   C75   A    
C179  C190  S    
C159  C223  A    
C17   C19   A    
C60   H40   S    
C56   H41   S    
C236  H28   S    
C141  O9    D    
C195  H106  S    
C187  C189  A    
C89   O11   D    
C54   O50   D    
C183  C221  A    
C11   C29   A    
C118  C219  A    
C104  N2    S    
C184  C189  A    
C67   C76   A    
C72   C179  A    
C153  C154  S    
C118  C197  A    
C216  H26   S    
C208  C230  A    
C129  C131  A    
