data_mof_unit_7879.cif
_audit_creation_date              2012-12-10T17:12:45-0500
_audit_creation_method            fapswitch 2.2
_symmetry_space_group_name_H-M    P1
_symmetry_Int_Tables_number       1
_space_group_crystal_system       triclinic
_cell_length_a                    23.408453
_cell_length_b                    10.685409
_cell_length_c                    9.98911
_cell_angle_alpha                 90.446578
_cell_angle_beta                  89.890467
_cell_angle_gamma                 90.116083
_cell_volume                      2498.47952729

loop_
_atom_site_label
_atom_site_type_symbol
_atom_type_description
_atom_site_fract_x
_atom_site_fract_y
_atom_site_fract_z
_atom_type_partial_charge
C1    C     C_R   0.496875 0.262217 0.499033 0.959224
C2    C     C_R   0.120552 0.550985 0.411328 0.510777
C3    C     C_R   0.235459 0.534918 0.601712 -0.213129
C4    C     C_R   0.389372 0.500025 0.500200 0.902949
C5    C     C_R   0.294974 0.543936 0.606391 0.434254
C6    C     C_R   0.327315 0.492655 0.500166 -0.123290
C7    C     C_R   0.300167 0.430071 0.393894 -0.305604
C8    C     C_R   0.241187 0.419570 0.391827 -0.112796
C9    C     C_R   0.209006 0.472146 0.495404 0.271264
C10   C     C_R   0.760912 0.463243 0.374908 -0.099958
C11   C     C_R   0.701809 0.471292 0.376870 -0.213855
C12   C     C_R   0.969231 0.287892 0.635100 -0.246408
C13   C     C_R   0.672984 0.493130 0.498165 -0.038112
C14   C     C_R   0.704051 0.506761 0.617376 -0.227733
C15   C     C_R   0.763311 0.500948 0.614764 -0.098091
C16   C     C_R   0.499661 0.737717 0.500369 0.975374
C17   C     C_R   0.791805 0.478963 0.493555 0.306485
C18   C     C_2   0.475608 0.928782 0.395509 -0.275130
C19   C     C_2   0.499192 0.870289 0.499432 -0.372266
C20   C     C_2   0.480169 0.064132 0.383233 0.533207
C21   C     C_2   0.483739 0.131542 0.497207 -0.443069
C22   C     C_2   0.522545 0.589988 0.925012 0.495995
C23   C     C_R   0.028824 0.282578 0.633289 0.505428
C24   C     C_2   0.515562 0.595567 0.075532 -0.262732
C25   C     C_R   0.610738 0.498990 0.499721 0.868497
C26   C     C_R   0.881885 0.559845 0.415636 0.497537
C27   C     C_R   0.880281 0.383504 0.561521 0.533307
C28   C     C_R   0.939947 0.378114 0.561006 -0.086939
C29   C     C_R   0.970681 0.465198 0.484274 -0.023515
C30   C     C_R   0.941431 0.556196 0.409583 0.006642
C31   C     C_3   0.451054 0.081325 0.160470 0.082584
C32   C     C_3   0.480228 0.996984 0.056243 -0.354160
C33   C     C_3   0.438856 0.956297 0.946330 -0.931821
C34   C     C_R   0.060246 0.373268 0.560837 -0.147112
C35   C     C_3   0.606128 0.701263 0.896673 0.085872
C36   C     C_3   0.616834 0.828958 0.962287 -0.379381
C37   C     C_3   0.680263 0.849726 0.989750 -0.895121
C38   C     C_3   0.066275 0.084550 0.629063 0.153062
C39   C     C_3   0.020522 0.984586 0.653651 -0.411795
C40   C     C_3   0.035003 0.862510 0.581079 -0.891382
C41   C     C_3   0.318698 0.552339 0.827887 0.108347
C42   C     C_3   0.352286 0.627634 0.932109 -0.325474
C43   C     C_3   0.353870 0.561267 0.066753 -0.938749
C44   C     C_R   0.030733 0.462764 0.483750 -0.080634
C45   C     C_R   0.061084 0.551221 0.407159 0.017732
C46   C     C_R   0.031496 0.638861 0.329913 -0.178323
C47   C     C_R   0.972173 0.641869 0.331781 -0.170248
C48   C     C_R   0.120216 0.379105 0.563446 0.526729
H1    H     H_    0.946033 0.220958 0.695388 0.201462
H2    H     H_    0.495928 0.415871 0.101410 0.165342
H3    H     H_    0.054064 0.706953 0.269781 0.189119
H4    H     H_    0.950569 0.712025 0.272900 0.193281
H5    H     H_    0.209619 0.578922 0.678757 0.145084
H6    H     H_    0.324641 0.388394 0.312949 0.179795
H7    H     H_    0.220334 0.371728 0.309320 0.147896
H8    H     H_    0.782836 0.445278 0.281157 0.149096
H9    H     H_    0.436206 0.167337 0.109402 0.151205
H10   H     H_    0.411809 0.035934 0.201329 0.115023
H11   H     H_    0.516562 0.048314 0.010266 0.228801
H12   H     H_    0.678770 0.459232 0.283711 0.164754
H13   H     H_    0.497412 0.912364 0.105362 0.215476
H14   H     H_    0.402658 0.902992 0.989986 0.260773
H15   H     H_    0.461404 0.895112 0.873083 0.291716
H16   H     H_    0.422116 0.039264 0.892899 0.259616
H17   H     H_    0.631601 0.696032 0.802960 0.167219
H18   H     H_    0.622231 0.625575 0.963350 0.112422
H19   H     H_    0.601138 0.904053 0.895377 0.235405
H20   H     H_    0.593209 0.835170 0.058464 0.214670
H21   H     H_    0.696612 0.776825 0.058425 0.269273
H22   H     H_    0.686570 0.942914 0.037487 0.272761
H23   H     H_    0.682728 0.522046 0.712253 0.146572
H24   H     H_    0.704964 0.846551 0.894713 0.264610
H25   H     H_    0.108324 0.046336 0.659804 0.197190
H26   H     H_    0.069832 0.104389 0.519624 0.116051
H27   H     H_    0.016994 0.966472 0.762780 0.246465
H28   H     H_    0.978554 0.018236 0.617101 0.226736
H29   H     H_    0.038271 0.878707 0.471652 0.267215
H30   H     H_    0.000822 0.792447 0.599429 0.275060
H31   H     H_    0.076109 0.824311 0.618045 0.266968
H32   H     H_    0.338127 0.457432 0.818325 0.142301
H33   H     H_    0.273738 0.543192 0.863158 0.140378
H34   H     H_    0.787152 0.513548 0.706708 0.147965
H35   H     H_    0.396722 0.642046 0.896000 0.239976
H36   H     H_    0.332070 0.720912 0.945673 0.227494
H37   H     H_    0.309837 0.547591 0.105694 0.275654
H38   H     H_    0.378228 0.619061 0.139883 0.285082
H39   H     H_    0.375180 0.468892 0.056355 0.248424
H40   H     H_    0.456273 0.875251 0.314606 0.167778
H41   H     H_    0.520487 0.918188 0.581558 0.156875
H42   H     H_    0.474034 0.090739 0.593934 0.126868
H43   H     H_    0.476401 0.433995 0.898369 0.104370
H44   H     H_    0.525393 0.682989 0.125996 0.180904
N1    N     N_R   0.852695 0.474017 0.490392 -0.355931
N2    N     N_R   0.148421 0.466792 0.489515 -0.350243
N3    N     N_2   0.500610 0.501330 0.852150 -0.222390
N4    N     N_2   0.500630 0.501360 0.147810 -0.209718
O1    O     O_R   0.499990 0.319060 0.613040 -0.634951
O2    O     O_R   0.583840 0.500020 0.613040 -0.610194
O3    O     O_R   0.583850 0.500060 0.386900 -0.612423
O4    O     O_2   0.853275 0.649271 0.348697 -0.564257
O5    O     O_3   0.491094 0.118515 0.259259 -0.613503
O6    O     O_3   0.547850 0.690183 0.860707 -0.612372
O7    O     O_3   0.055590 0.192154 0.709089 -0.601196
O8    O     O_3   0.321105 0.615944 0.704570 -0.631797
O9    O     O_2   0.849960 0.298533 0.631513 -0.562149
O10   O     O_2   0.150435 0.299362 0.639589 -0.532718
O11   O     O_2   0.150541 0.635184 0.339452 -0.561791
O12   O     O_R   0.500010 0.319100 0.386900 -0.553711
O13   O     O_R   0.416150 0.499940 0.613100 -0.599195
O14   O     O_R   0.416160 0.499980 0.386960 -0.626369
O15   O     O_R   0.499990 0.680900 0.613100 -0.558543
O16   O     O_R   0.500010 0.680940 0.386960 -0.624533
Zn1   Zn    Zn3+2 0.499990 0.499970 0.650990 0.976186
Zn2   Zn    Zn3+2 0.500010 0.500030 0.349010 0.952234

loop_
_geom_bond_atom_site_label_1
_geom_bond_atom_site_label_2
_ccdc_geom_bond_type
C4    O13   A    
C41   C42   S    
C1    C21   S    
C37   H21   S    
C11   C13   A    
C22   N3    D    
C35   C36   S    
C35   O6    S    
C13   C25   S    
C41   H32   S    
O16   Zn2   S    
C12   H1    S    
C36   H19   S    
C7    C8    A    
C45   C46   A    
C12   C23   A    
C38   O7    S    
C48   N2    A    
C12   C28   A    
C3    C9    A    
C31   O5    S    
C31   H10   S    
C36   C37   S    
C32   H13   S    
C24   N4    D    
C38   C39   S    
C35   H17   S    
C10   C17   A    
C2    O11   S    
C18   C19   D    
C14   H23   S    
O12   Zn2   S    
C25   O3    A    
C48   O10   S    
C33   H14   S    
C39   H27   S    
C10   H8    S    
O14   Zn2   S    
C18   C20   S    
O13   Zn1   S    
C26   N1    A    
C5    O8    S    
C13   C14   A    
N4    Zn2   S    
O3    Zn2   S    
C24   H44   S    
C8    H7    S    
C15   H34   S    
C21   H42   S    
C2    C45   A    
C16   C19   S    
C23   O7    S    
C43   H37   S    
C30   C47   A    
C2    N2    A    
C42   H36   S    
C4    C6    S    
C1    O1    A    
C39   C40   S    
C8    C9    A    
O2    Zn1   S    
C20   O5    S    
C35   H18   S    
C46   H3    S    
C18   H40   S    
C29   C30   A    
C19   H41   S    
C31   C32   S    
C33   H15   S    
C23   C34   A    
C41   H33   S    
C40   H31   S    
C34   C44   A    
O15   Zn1   S    
C39   H28   S    
C47   H4    S    
C26   C30   A    
C29   C44   A    
C22   C24   S    
C27   N1    A    
C34   C48   A    
C42   C43   S    
O1    Zn1   S    
C11   H12   S    
C44   C45   A    
C16   O16   A    
C38   H26   S    
C15   C17   A    
C4    O14   A    
C46   C47   A    
C28   C29   A    
C40   H29   S    
C43   H38   S    
C42   H35   S    
C3    C5    A    
C36   H20   S    
C6    C7    A    
C22   O6    S    
C41   O8    S    
C43   H39   S    
C32   C33   S    
C31   H9    S    
C3    H5    S    
H2    N4    S    
C5    C6    A    
N3    Zn1   S    
C33   H16   S    
C32   H11   S    
C40   H30   S    
C10   C11   A    
C1    O12   A    
H43   N3    S    
C25   O2    A    
C17   N1    S    
C20   C21   D    
C37   H24   S    
C27   C28   A    
C27   O9    S    
C14   C15   A    
C7    H6    S    
C37   H22   S    
C9    N2    S    
C16   O15   A    
C26   O4    S    
C38   H25   S    
