data_mof_unit_18509.cif
_audit_creation_date              2013-03-05T16:21:20-0500
_audit_creation_method            fapswitch 2.2
_symmetry_space_group_name_H-M    P1
_symmetry_Int_Tables_number       1
_space_group_crystal_system       triclinic
_cell_length_a                    22.980644
_cell_length_b                    29.55846
_cell_length_c                    8.767204
_cell_angle_alpha                 90.310882
_cell_angle_beta                  93.321511
_cell_angle_gamma                 89.709956
_cell_volume                      5945.16122015

loop_
_atom_site_label
_atom_site_type_symbol
_atom_site_description
_atom_site_fract_x
_atom_site_fract_y
_atom_site_fract_z
_atom_type_partial_charge
P1    P     P_3+3 0.880180 0.450420 0.058010 0.571515
P2    P     P_3+3 0.880180 0.549580 0.558010 0.630018
P3    P     P_3+3 0.380180 0.950420 0.058010 0.580574
P4    P     P_3+3 0.380180 0.049580 0.558010 0.629148
O1    O     O_2   0.885810 0.435270 0.885040 -0.338247
O2    O     O_2   0.885810 0.564730 0.385040 -0.347461
O3    O     O_2   0.385810 0.935270 0.885040 -0.337487
O4    O     O_2   0.385810 0.064730 0.385040 -0.345787
O5    O     O_3   0.933490 0.477290 0.133000 -0.350845
O6    O     O_3   0.933490 0.522710 0.633000 -0.289230
O7    O     O_3   0.433490 0.977290 0.133000 -0.350958
O8    O     O_3   0.433490 0.022710 0.633000 -0.289057
O9    O     O_3   0.980190 0.395350 0.639000 -0.286447
O10   O     O_3   0.980190 0.604650 0.139000 -0.365852
O11   O     O_3   0.480190 0.895350 0.639000 -0.284390
O12   O     O_3   0.480190 0.104650 0.139000 -0.366046
O13   O     O_2   0.885988 0.357000 0.730350 -0.421585
O14   O     O_2   0.884690 0.642415 0.225066 -0.375977
O15   O     O_2   0.385987 0.857001 0.730346 -0.420659
O16   O     O_2   0.384691 0.142420 0.225040 -0.375863
O17   O     O_3   0.807789 0.473340 0.056774 -0.551779
O18   O     O_3   0.808339 0.526745 0.563139 -0.570479
O19   O     O_3   0.307790 0.973341 0.056774 -0.553020
O20   O     O_3   0.308339 0.026745 0.563139 -0.567778
O21   O     O_3   0.965503 0.301793 0.643901 -0.452163
O22   O     O_3   0.965646 0.698070 0.155841 -0.456491
O23   O     O_3   0.465501 0.801793 0.643907 -0.452878
O24   O     O_3   0.465653 0.198071 0.155830 -0.454183
H1    H     H_    0.023656 0.314888 0.475604 0.067685
H2    H     H_    0.042405 0.679668 0.059690 0.052882
H3    H     H_    0.523655 0.814884 0.475609 0.065507
H4    H     H_    0.542368 0.179701 0.059396 0.051282
C1    C     C_3   0.030633 0.245054 0.551730 -0.556948
C2    C     C_3   0.037549 0.752810 0.084892 -0.559244
C3    C     C_3   0.530631 0.745052 0.551751 -0.541476
C4    C     C_3   0.537516 0.252836 0.084867 -0.609406
P5    P     P_3+3 0.119600 0.450040 0.631910 0.455264
P6    P     P_3+3 0.119600 0.549960 0.131910 0.475165
P7    P     P_3+3 0.619600 0.950040 0.631910 0.458986
P8    P     P_3+3 0.619600 0.049960 0.131910 0.469478
P9    P     P_3+3 0.075546 0.355556 0.085258 0.478513
P10   P     P_3+3 0.071369 0.646875 0.585157 0.405597
P11   P     P_3+3 0.575545 0.855556 0.085260 0.480842
P12   P     P_3+3 0.571371 0.146874 0.585165 0.397770
O25   O     O_2   0.113920 0.434910 0.804950 -0.300109
O26   O     O_2   0.113920 0.565090 0.304950 -0.390194
O27   O     O_2   0.613920 0.934910 0.804950 -0.299806
O28   O     O_2   0.613920 0.065090 0.304950 -0.388740
O29   O     O_3   0.019410 0.395290 0.051170 -0.360623
O30   O     O_3   0.019410 0.604710 0.551170 -0.377148
O31   O     O_3   0.519410 0.895290 0.051170 -0.361868
O32   O     O_3   0.519410 0.104710 0.551170 -0.381774
O33   O     O_2   0.122200 0.373343 0.982890 -0.306879
O34   O     O_2   0.118614 0.633031 0.475728 -0.383799
O35   O     O_2   0.622199 0.873342 0.982891 -0.307110
O36   O     O_2   0.618617 0.133026 0.475749 -0.384412
O37   O     O_3   0.183954 0.481837 0.638491 -0.638102
O38   O     O_3   0.180458 0.513761 0.130749 -0.573747
O39   O     O_3   0.683955 0.981836 0.638491 -0.639205
O40   O     O_3   0.680460 0.013763 0.130750 -0.573766
O41   O     O_3   0.058668 0.304343 0.990680 -0.503586
O42   O     O_3   0.046972 0.697296 0.497010 -0.576565
O43   O     O_3   0.558665 0.804343 0.990684 -0.499638
O44   O     O_3   0.546987 0.197296 0.496998 -0.571603
C5    C     C_3   0.015637 0.279033 0.059615 1.050450
C6    C     C_3   0.997736 0.716739 0.560884 1.173961
C7    C     C_3   0.515630 0.779036 0.059613 1.034468
C8    C     C_3   0.497762 0.216755 0.560872 1.115369
H5    H     H_    0.002156 0.294795 0.168662 -0.173194
H6    H     H_    0.975399 0.692301 0.634975 -0.172311
H7    H     H_    0.502145 0.794801 0.168650 -0.161230
H8    H     H_    0.475440 0.192337 0.635068 0.044493
C9    C     C_3   0.041284 0.232077 0.098674 -0.656289
C10   C     C_3   0.018498 0.757406 0.658276 -0.756856
C11   C     C_3   0.541274 0.732080 0.098692 -0.655696
C12   C     C_3   0.518539 0.257448 0.658106 -0.758854
H9    H     H_    0.062158 0.218157 0.997280 0.249046
H10   H     H_    0.049766 0.777698 0.595912 0.251762
H11   H     H_    0.562156 0.718159 0.997312 0.254134
H12   H     H_    0.549782 0.277723 0.595586 0.254661
C13   C     C_3   0.192601 0.490307 0.268707 0.396310
C14   C     C_3   0.185312 0.516353 0.748805 0.285722
C15   C     C_3   0.692601 0.990307 0.268705 0.400278
C16   C     C_3   0.685316 0.016350 0.748812 0.277001
H13   H     H_    0.155922 0.491114 0.345345 0.085702
H14   H     H_    0.149979 0.513636 0.829288 0.112327
H15   H     H_    0.655922 0.991115 0.345344 0.085643
H16   H     H_    0.649983 0.013632 0.829297 0.112690
C17   C     C_3   0.248059 0.509489 0.351402 -0.763828
C18   C     C_3   0.244120 0.514617 0.843050 -0.544863
C19   C     C_3   0.748060 0.009486 0.351402 -0.765359
C20   C     C_3   0.744124 0.014613 0.843051 -0.538363
H17   H     H_    0.238918 0.543378 0.398916 0.236042
H18   H     H_    0.244993 0.483792 0.914462 0.224983
H19   H     H_    0.738921 0.043375 0.398919 0.236229
H20   H     H_    0.744997 0.983788 0.914462 0.224844
H21   H     H_    0.261896 0.487498 0.449064 0.177801
H22   H     H_    0.248006 0.544270 0.921398 0.178257
H23   H     H_    0.761896 0.987495 0.449062 0.178374
H24   H     H_    0.748012 0.044265 0.921401 0.178005
Ba1   Ba    Ba6+2 0.999920 0.467660 0.844980 1.629120
Ba2   Ba    Ba6+2 0.999920 0.532340 0.344980 1.611540
Ba3   Ba    Ba6+2 0.499920 0.967660 0.844980 1.592968
Ba4   Ba    Ba6+2 0.499920 0.032340 0.344980 1.592108
C21   C     C_3   0.792413 0.518900 0.024684 0.314572
C22   C     C_3   0.793939 0.481233 0.529991 0.298692
C23   C     C_3   0.292414 0.018901 0.024685 0.308740
C24   C     C_3   0.293938 0.981234 0.529991 0.289551
C25   C     C_3   0.725726 0.524550 0.043307 -0.651956
C26   C     C_3   0.729954 0.473432 0.568987 -0.904138
C27   C     C_3   0.225726 0.024551 0.043308 -0.651314
C28   C     C_3   0.229954 0.973432 0.568986 -0.897392
H25   H     H_    0.710199 0.558026 0.999336 0.187590
H26   H     H_    0.714042 0.440091 0.524962 0.210916
H27   H     H_    0.210200 0.058027 0.999338 0.187722
H28   H     H_    0.214041 0.940092 0.524961 0.211064
H29   H     H_    0.717297 0.523971 0.166371 0.215493
H30   H     H_    0.727875 0.472492 0.694635 0.224252
H31   H     H_    0.217297 0.023972 0.166371 0.216139
H32   H     H_    0.227875 0.972493 0.694634 0.224210
O45   O     O_3   0.066460 0.522600 0.056690 -0.367759
O46   O     O_3   0.066460 0.477400 0.556690 -0.407105
O47   O     O_3   0.566460 0.022600 0.056690 -0.367402
O48   O     O_3   0.566460 0.977400 0.556690 -0.402862
P13   P     P_3+3 0.930070 0.647660 0.103234 0.459250
P14   P     P_3+3 0.929212 0.352696 0.602186 0.511960
P15   P     P_3+3 0.430075 0.147663 0.103216 0.460793
P16   P     P_3+3 0.429212 0.852696 0.602185 0.505798
C29   C     C_3   0.994390 0.287882 0.514374 0.315052
C30   C     C_3   0.008415 0.706564 0.051638 0.282799
C31   C     C_3   0.494388 0.787879 0.514383 0.306974
C32   C     C_3   0.508376 0.206597 0.051528 0.292419
H33   H     H_    0.962096 0.279589 0.419027 -0.022319
H34   H     H_    0.988542 0.706842 0.933161 0.051183
H35   H     H_    0.462095 0.779585 0.419037 -0.016144
H36   H     H_    0.488459 0.206911 0.933096 0.045453
H37   H     H_    0.049175 0.233183 0.444950 0.100080
H38   H     H_    0.068822 0.758817 0.996230 0.186936
H39   H     H_    0.549172 0.733178 0.444975 0.095634
H40   H     H_    0.568756 0.258871 0.996148 0.062076
H41   H     H_    0.075343 0.235073 0.192802 0.165969
H42   H     H_    0.041929 0.744783 0.762008 0.132329
H43   H     H_    0.575327 0.735078 0.192836 0.166041
H44   H     H_    0.541992 0.244853 0.761850 0.129668
C33   C     C_R   0.749000 0.293233 0.017384 -0.054944
C34   C     C_R   0.748588 0.706821 0.527687 -0.064592
C35   C     C_R   0.249002 0.793233 0.017379 -0.055966
C36   C     C_R   0.248591 0.206823 0.527684 -0.063348
C37   C     C_R   0.761742 0.330892 0.923788 -0.104043
C38   C     C_R   0.744365 0.662649 0.462813 -0.131121
C39   C     C_R   0.261743 0.830892 0.923784 -0.105662
C40   C     C_R   0.244364 0.162651 0.462815 -0.118728
C41   C     C_R   0.171950 0.761842 0.838300 -0.251426
C42   C     C_R   0.202726 0.246171 0.306219 -0.245308
C43   C     C_R   0.671953 0.261838 0.838295 -0.265149
C44   C     C_R   0.702724 0.746169 0.306224 -0.239493
C45   C     C_R   0.209328 0.758035 0.969404 0.064458
C46   C     C_R   0.219162 0.245174 0.462090 0.001256
C47   C     C_R   0.709326 0.258034 0.969410 0.065206
C48   C     C_R   0.719159 0.745172 0.462095 -0.001793
C49   C     C_R   0.154515 0.723235 0.757918 -0.112387
C50   C     C_R   0.174401 0.283365 0.237686 -0.107503
C51   C     C_R   0.654523 0.223228 0.757922 -0.102197
C52   C     C_R   0.674397 0.783363 0.237691 -0.100350
C53   C     C_R   0.145566 0.683148 0.840152 -0.029655
C54   C     C_R   0.155194 0.319803 0.330481 -0.096311
C55   C     C_R   0.645566 0.183145 0.840165 -0.033089
C56   C     C_R   0.655191 0.819801 0.330486 -0.105405
C57   C     C_R   0.172827 0.680063 0.990120 0.023122
C58   C     C_R   0.180340 0.322500 0.483121 0.058679
C59   C     C_R   0.672823 0.180063 0.990136 0.014676
C60   C     C_R   0.680337 0.822497 0.483127 0.050028
C61   C     C_R   0.207875 0.716873 0.050935 -0.012382
C62   C     C_R   0.215174 0.286047 0.545124 0.014116
C63   C     C_R   0.707871 0.216874 0.050949 -0.012471
C64   C     C_R   0.715169 0.786044 0.545132 0.020736
C65   C     C_R   0.108123 0.647725 0.783657 0.138246
C66   C     C_R   0.113410 0.353656 0.280674 0.101531
C67   C     C_R   0.608124 0.147723 0.783666 0.136500
C68   C     C_R   0.613408 0.853655 0.280677 0.104416
C69   C     C_R   0.098406 0.610506 0.879818 -0.471915
C70   C     C_R   0.100084 0.389134 0.381592 -0.460664
C71   C     C_R   0.598406 0.110504 0.879825 -0.471058
C72   C     C_R   0.600084 0.889134 0.381595 -0.453918
C73   C     C_R   0.129232 0.604696 0.022518 0.267107
C74   C     C_R   0.130772 0.395371 0.523747 0.267973
C75   C     C_R   0.629230 0.104696 0.022527 0.267969
C76   C     C_R   0.630771 0.895370 0.523750 0.266279
C77   C     C_R   0.168298 0.639613 0.075143 -0.121081
C78   C     C_R   0.173247 0.362300 0.572012 -0.035789
C79   C     C_R   0.668294 0.139613 0.075158 -0.114282
C80   C     C_R   0.673244 0.862298 0.572018 -0.029440
C81   C     C_R   0.778598 0.290179 0.163565 0.064094
C82   C     C_R   0.783271 0.712417 0.664506 0.032289
C83   C     C_R   0.278599 0.790179 0.163559 0.069407
C84   C     C_R   0.283277 0.212420 0.664497 0.030737
C85   C     C_R   0.817360 0.325553 0.217027 0.001396
C86   C     C_R   0.821799 0.676920 0.716799 0.001005
C87   C     C_R   0.317361 0.825553 0.217023 0.010019
C88   C     C_R   0.321803 0.176923 0.716790 0.003197
C89   C     C_R   0.827059 0.363625 0.123722 -0.141835
C90   C     C_R   0.828149 0.637281 0.626717 -0.176640
C91   C     C_R   0.327059 0.863625 0.123720 -0.151480
C92   C     C_R   0.328148 0.137281 0.626716 -0.174813
C93   C     C_R   0.794831 0.366861 0.984202 -0.008503
C94   C     C_R   0.786712 0.630024 0.505310 0.005143
C95   C     C_R   0.294831 0.866862 0.984200 -0.001089
C96   C     C_R   0.286709 0.130024 0.505313 -0.003076
H45   H     H_    0.069054 0.584105 0.838131 0.151151
H46   H     H_    0.068462 0.414472 0.343118 0.166251
H47   H     H_    0.569055 0.084103 0.838136 0.151082
H48   H     H_    0.568462 0.914472 0.343119 0.166186
H49   H     H_    0.799022 0.395772 0.912905 0.182056
H50   H     H_    0.784352 0.597885 0.448267 0.224137
H51   H     H_    0.299022 0.895773 0.912905 0.182050
H52   H     H_    0.284348 0.097884 0.448274 0.224679
C97   C     C_R   0.205361 0.634549 0.206577 -0.167451
C98   C     C_R   0.212384 0.369174 0.699662 -0.223797
C99   C     C_R   0.705358 0.134550 0.206592 -0.170540
C100  C     C_R   0.712380 0.869171 0.699673 -0.225737
C101  C     C_R   0.243760 0.668642 0.259000 0.537846
C102  C     C_R   0.253119 0.335476 0.749110 0.526710
C103  C     C_R   0.743757 0.168642 0.259014 0.536206
C104  C     C_R   0.753111 0.835470 0.749127 0.522639
C105  C     C_R   0.240955 0.712414 0.191467 -0.169565
C106  C     C_R   0.248247 0.291336 0.685384 -0.073663
C107  C     C_R   0.740951 0.212415 0.191480 -0.168453
C108  C     C_R   0.748238 0.791331 0.685398 -0.075517
C109  C     C_R   0.771929 0.250937 0.254115 0.111468
C110  C     C_R   0.780404 0.753506 0.748340 0.108447
C111  C     C_R   0.271930 0.750936 0.254107 0.111541
C112  C     C_R   0.280415 0.253512 0.748322 0.101237
C113  C     C_R   0.796226 0.251862 0.405368 -0.134256
C114  C     C_R   0.807072 0.754279 0.897086 -0.029878
C115  C     C_R   0.296224 0.751862 0.405363 -0.137856
C116  C     C_R   0.307094 0.254288 0.897057 -0.028133
C117  C     C_R   0.847300 0.322186 0.362338 0.024568
C118  C     C_R   0.853408 0.681126 0.859169 0.026625
C119  C     C_R   0.347301 0.822186 0.362335 0.013128
C120  C     C_R   0.353420 0.181131 0.859150 0.026001
C121  C     C_R   0.834075 0.285937 0.456765 -0.234259
C122  C     C_R   0.842663 0.718978 0.951146 -0.102165
C123  C     C_R   0.334074 0.785936 0.456762 -0.226734
C124  C     C_R   0.342686 0.218989 0.951114 -0.106203
C125  C     C_R   0.889662 0.354887 0.409171 0.097436
C126  C     C_R   0.893828 0.647127 0.906854 0.107506
C127  C     C_R   0.389662 0.854886 0.409168 0.099983
C128  C     C_R   0.393835 0.147130 0.906837 0.100426
C129  C     C_R   0.903024 0.389763 0.307953 -0.412547
C130  C     C_R   0.906188 0.611550 0.805454 -0.437229
C131  C     C_R   0.403024 0.889763 0.307952 -0.410803
C132  C     C_R   0.406191 0.111550 0.805444 -0.440784
C133  C     C_R   0.871665 0.395611 0.166451 0.251232
C134  C     C_R   0.873395 0.605251 0.665624 0.280683
C135  C     C_R   0.371665 0.895611 0.166450 0.253695
C136  C     C_R   0.373395 0.105251 0.665620 0.281251
H53   H     H_    0.207934 0.602862 0.265696 0.192540
H54   H     H_    0.214856 0.402072 0.752810 0.190575
H55   H     H_    0.707932 0.102863 0.265710 0.192990
H56   H     H_    0.714854 0.902069 0.752821 0.190953
H57   H     H_    0.853157 0.282911 0.571732 0.162900
H58   H     H_    0.862436 0.722583 0.065036 0.174300
H59   H     H_    0.353154 0.782911 0.571731 0.163142
H60   H     H_    0.362466 0.222597 0.064996 0.174322
H61   H     H_    0.935971 0.414214 0.343957 0.197577
H62   H     H_    0.938488 0.586484 0.841744 0.180170
H63   H     H_    0.435972 0.914214 0.343956 0.198145
H64   H     H_    0.438489 0.086484 0.841736 0.181616
H65   H     H_    0.161853 0.794006 0.785886 0.191257
H66   H     H_    0.217950 0.219562 0.232823 0.169842
H67   H     H_    0.661857 0.294000 0.785866 0.191964
H68   H     H_    0.717948 0.719561 0.232827 0.169379
H69   H     H_    0.786401 0.226403 0.487459 0.176203
H70   H     H_    0.799858 0.781598 0.975872 0.132676
H71   H     H_    0.286396 0.726403 0.487453 0.177464
H72   H     H_    0.299884 0.281609 0.975840 0.132060
C137  C     C_2   0.297948 0.511714 0.248111 0.718752
H73   H     H_    0.314929 0.480918 0.198992 -0.000980
O49   O     O_2   0.319813 0.547904 0.219076 -0.604329
C138  C     C_2   0.295908 0.513708 0.745711 0.649520
H74   H     H_    0.305277 0.542487 0.675115 0.075565
O50   O     O_2   0.328160 0.480770 0.746195 -0.589045
C139  C     C_2   0.797949 0.011711 0.248112 0.721679
H75   H     H_    0.814927 0.980915 0.198988 -0.000823
O51   O     O_2   0.819818 0.047900 0.219086 -0.607055
C140  C     C_2   0.795911 0.013703 0.745707 0.647122
H76   H     H_    0.805280 0.042482 0.675111 0.074818
O52   O     O_2   0.828162 0.980765 0.746187 -0.586672
C141  C     C_2   0.806629 0.529927 0.871898 0.281161
H77   H     H_    0.777039 0.549675 0.797657 0.087675
O53   O     O_2   0.855970 0.521513 0.839555 -0.559465
C142  C     C_2   0.800444 0.472842 0.369973 0.382424
H78   H     H_    0.767462 0.456017 0.296769 0.062653
O54   O     O_2   0.847371 0.482675 0.325577 -0.547664
C143  C     C_2   0.306630 0.029928 0.871899 0.287218
H79   H     H_    0.277040 0.049676 0.797658 0.086724
O55   O     O_2   0.355971 0.021514 0.839557 -0.559799
C144  C     C_2   0.300444 0.972843 0.369973 0.386949
H80   H     H_    0.267462 0.956017 0.296768 0.062236
O56   O     O_2   0.347371 0.982675 0.325577 -0.546126
C145  C     C_2   0.825178 0.553066 0.119993 0.589976
H81   H     H_    0.872398 0.552537 0.122894 0.105505
O57   O     O_2   0.799835 0.584251 0.179746 -0.583381
C146  C     C_2   0.831713 0.447637 0.613080 0.639468
H82   H     H_    0.812581 0.422005 0.680672 0.034509
O58   O     O_2   0.883817 0.446537 0.595724 -0.490268
C147  C     C_2   0.325179 0.053067 0.119994 0.592759
H83   H     H_    0.372399 0.052538 0.122893 0.105570
O59   O     O_2   0.299836 0.084251 0.179752 -0.583811
C148  C     C_2   0.331713 0.947638 0.613081 0.640811
H84   H     H_    0.312580 0.922006 0.680675 0.034255
O60   O     O_2   0.383817 0.946537 0.595724 -0.490654
C149  C     C_2   0.688878 0.488343 0.966041 0.616929
H85   H     H_    0.658698 0.497021 0.870899 0.060643
O61   O     O_2   0.691705 0.449311 0.010791 -0.552455
C150  C     C_2   0.689202 0.509642 0.506506 0.794033
H86   H     H_    0.674362 0.509127 0.387115 0.004411
O62   O     O_2   0.671978 0.539439 0.589899 -0.590045
C151  C     C_2   0.188878 0.988345 0.966040 0.614353
H87   H     H_    0.158699 0.997024 0.870899 0.062500
O63   O     O_2   0.191705 0.949312 0.010788 -0.550951
C152  C     C_2   0.189202 0.009643 0.506503 0.783226
H88   H     H_    0.174361 0.009127 0.387113 0.008432
O64   O     O_2   0.171980 0.039441 0.589895 -0.588701
C153  C     C_2   0.082052 0.253704 0.662906 0.730927
H89   H     H_    0.110319 0.225756 0.699044 0.026558
O65   O     O_2   0.093499 0.291695 0.710191 -0.529399
C154  C     C_2   0.074205 0.752869 0.232047 0.790041
H90   H     H_    0.102960 0.724431 0.259135 0.024799
O66   O     O_2   0.074173 0.785367 0.318622 -0.550150
C155  C     C_2   0.582051 0.753704 0.662924 0.734726
H91   H     H_    0.610317 0.725757 0.699069 0.024981
O67   O     O_2   0.593497 0.791696 0.710199 -0.529150
C156  C     C_2   0.574216 0.252861 0.231943 0.800361
H92   H     H_    0.602761 0.224317 0.259270 0.025062
O68   O     O_2   0.574509 0.285471 0.318112 -0.551984
C157  C     C_2   0.165040 0.723700 0.593250 0.570324
H93   H     H_    0.180145 0.693541 0.538009 0.084989
O69   O     O_2   0.162543 0.758875 0.520913 -0.576473
C158  C     C_2   0.176388 0.284689 0.069644 0.578494
H94   H     H_    0.187993 0.315248 0.013917 0.051104
O70   O     O_2   0.169306 0.250445 0.992317 -0.609053
C159  C     C_2   0.665068 0.223682 0.593267 0.569105
H95   H     H_    0.680176 0.193517 0.538061 0.084342
O71   O     O_2   0.662584 0.258852 0.520906 -0.577875
C160  C     C_2   0.676381 0.784684 0.069649 0.577467
H96   H     H_    0.687986 0.815243 0.013916 0.052019
O72   O     O_2   0.669297 0.750440 0.992327 -0.608513
C161  C     C_2   0.752156 0.330408 0.755251 0.533903
H97   H     H_    0.758292 0.299256 0.692426 0.038914
O73   O     O_2   0.735733 0.364220 0.685882 -0.600341
C162  C     C_2   0.691789 0.647975 0.368197 0.610726
H98   H     H_    0.652531 0.668596 0.363415 0.023176
O74   O     O_2   0.690993 0.612225 0.297745 -0.562265
C163  C     C_2   0.252155 0.830409 0.755247 0.530589
H99   H     H_    0.258289 0.799257 0.692421 0.039436
O75   O     O_2   0.235734 0.864221 0.685880 -0.598615
C164  C     C_2   0.191788 0.147977 0.368200 0.605347
H100  H     H_    0.152530 0.168599 0.363418 0.024540
O76   O     O_2   0.190991 0.112228 0.297748 -0.560382
O77   O     O_3   0.285982 0.656639 0.370525 -0.632944
C165  C     C_3   0.340055 0.651671 0.302861 -0.100989
H101  H     H_    0.360272 0.685049 0.283971 0.100840
H102  H     H_    0.336258 0.632706 0.192638 0.168080
H103  H     H_    0.370160 0.632440 0.382216 0.194737
O78   O     O_3   0.305668 0.346991 0.826708 -0.614212
C166  C     C_3   0.298140 0.375379 0.953574 -0.125425
H104  H     H_    0.262816 0.363414 0.023785 0.122406
H105  H     H_    0.291430 0.410953 0.917539 0.186147
H106  H     H_    0.338865 0.374477 0.027869 0.172757
O79   O     O_3   0.785980 0.156639 0.370534 -0.632315
C167  C     C_3   0.840051 0.151669 0.302863 -0.096835
H107  H     H_    0.860270 0.185047 0.283970 0.100997
H108  H     H_    0.836251 0.132704 0.192640 0.167471
H109  H     H_    0.870157 0.132438 0.382215 0.194628
O80   O     O_3   0.805660 0.846981 0.826738 -0.611858
C168  C     C_3   0.798132 0.875374 0.953594 -0.123935
H110  H     H_    0.762804 0.863412 0.023799 0.123249
H111  H     H_    0.791429 0.910947 0.917549 0.185993
H112  H     H_    0.838855 0.874470 0.027897 0.173201
C169  C     C_2   0.991730 0.208058 0.605732 0.728012
H113  H     H_    0.954601 0.197274 0.532553 0.015451
O81   O     O_2   0.000776 0.190041 0.729973 -0.598086
C170  C     C_2   0.994198 0.791423 0.078171 0.881091
H114  H     H_    0.001805 0.820438 0.006839 -0.051223
O82   O     O_2   0.951770 0.791404 0.155826 -0.547941
C171  C     C_2   0.491728 0.708057 0.605764 0.722891
H115  H     H_    0.454595 0.697275 0.532595 0.014453
O83   O     O_2   0.500776 0.690040 0.730004 -0.601335
C172  C     C_2   0.494155 0.291443 0.078361 0.889368
H116  H     H_    0.501694 0.320456 0.006960 -0.056370
O84   O     O_2   0.451789 0.291417 0.156243 -0.547403
O85   O     O_3   0.969497 0.272567 0.947623 -0.586658
C173  C     C_3   0.917111 0.289853 0.998185 -0.142011
H117  H     H_    0.920894 0.326969 0.013138 0.158162
H118  H     H_    0.905601 0.273128 0.105629 0.050269
H119  H     H_    0.881687 0.282797 0.910098 0.172328
O86   O     O_3   0.961467 0.733450 0.437252 -0.583522
C174  C     C_3   0.902737 0.721892 0.451007 -0.037802
H120  H     H_    0.884141 0.740551 0.546381 0.119088
H121  H     H_    0.898003 0.684976 0.465140 0.136051
H122  H     H_    0.877331 0.731878 0.345126 0.176499
O87   O     O_3   0.469495 0.772568 0.947609 -0.582603
C175  C     C_3   0.417105 0.789848 0.998162 -0.143877
H123  H     H_    0.420881 0.826964 0.013120 0.157910
H124  H     H_    0.405593 0.773121 0.105600 0.049461
H125  H     H_    0.381684 0.782790 0.910066 0.173791
O88   O     O_3   0.461474 0.233435 0.437232 -0.576952
C176  C     C_3   0.402753 0.221866 0.451062 -0.048048
H126  H     H_    0.384172 0.240520 0.546469 0.119451
H127  H     H_    0.398040 0.184948 0.465198 0.132551
H128  H     H_    0.377324 0.231848 0.345212 0.178583
C177  C     C_2   0.995606 0.198863 0.141175 0.537569
H129  H     H_    0.956880 0.193635 0.066487 0.088622
O89   O     O_2   0.002427 0.176334 0.257014 -0.610979
C178  C     C_2   0.969788 0.788196 0.700255 0.535196
H130  H     H_    0.967507 0.822478 0.656655 0.094499
O90   O     O_2   0.932214 0.774972 0.781676 -0.608507
C179  C     C_2   0.495592 0.698866 0.141172 0.539140
H131  H     H_    0.456877 0.693632 0.066449 0.089906
O91   O     O_2   0.502397 0.676347 0.257034 -0.611525
C180  C     C_2   0.469838 0.288248 0.700092 0.540247
H132  H     H_    0.467556 0.322524 0.656449 0.092955
O92   O     O_2   0.432275 0.275038 0.781574 -0.611192
C181  C     C_2   0.203705 0.441535 0.232413 0.397464
H133  H     H_    0.216181 0.418048 0.323160 -0.022160
O93   O     O_2   0.200792 0.428211 0.100686 -0.576016
C182  C     C_2   0.176166 0.559670 0.664731 0.371444
H134  H     H_    0.136913 0.562335 0.592090 0.130853
O94   O     O_2   0.210933 0.590838 0.675063 -0.600499
C183  C     C_2   0.703701 0.941535 0.232407 0.386661
H135  H     H_    0.716175 0.918046 0.323151 -0.019401
O95   O     O_2   0.700788 0.928212 0.100679 -0.574148
C184  C     C_2   0.676169 0.059667 0.664744 0.378469
H136  H     H_    0.636916 0.062333 0.592104 0.131074
O96   O     O_2   0.710935 0.090836 0.675080 -0.600307

loop_
_geom_bond_atom_site_label_1
_geom_bond_atom_site_label_2
_geom_bond_distance
_ccdc_geom_bond_type
C152  O64   1.220641 D    
C129  C133  1.409155 A    
C8    O88   1.417884 S    
P1    Ba1   3.455404 S    
C181  H133  1.083840 S    
C82   C110  1.419404 A    
C55   C67   1.426924 A    
P9    O41   1.756301 S    
Ba3   O47   2.843256 S    
C26   H30   1.105878 S    
C157  H93   1.077704 S    
P11   O43   1.756295 S    
Ba4   O47   3.040540 S    
C145  H81   1.084015 S    
P12   O44   1.756867 S    
Ba1   Ba2   4.791872 S    
C37   C161  1.481256 S    
C11   C179  1.504768 S    
C42   C46   1.396966 A    
O14   P13   1.544348 D    
O10   Ba2   2.823526 S    
C3    C171  1.511243 S    
C120  C124  1.404839 A    
C97   H53   1.072627 S    
C167  H107  1.109984 S    
C174  H121  1.105481 S    
C168  H112  1.109122 S    
C3    H39   1.105534 S    
C34   C38   1.422848 A    
C49   C157  1.477705 S    
O12   Ba4   2.823526 S    
C92   C96   1.402814 A    
C1    H37   1.105539 S    
P2    O18   1.789805 S    
C72   H48   1.082423 S    
P4    O8    1.570480 S    
O22   C30   1.404520 S    
C10   C178  1.500183 S    
C94   H50   1.071326 S    
C177  O89   1.219535 D    
C121  H57   1.079633 S    
P13   C126  1.868651 S    
C30   H34   1.110244 S    
P2    C134  1.902588 S    
P12   C67   1.889977 S    
P9    O29   1.754047 S    
C77   C97   1.400902 A    
C91   C135  1.430542 A    
C53   C57   1.426452 A    
O1    Ba1   2.837659 S    
P11   C68   1.877055 S    
C52   C56   1.429697 A    
O39   C16   1.401182 S    
P8    C75   1.905612 S    
C55   C59   1.426439 A    
C56   C68   1.435412 A    
C51   C159  1.477685 S    
P7    O48   1.575658 S    
C41   C49   1.386592 A    
C150  H86   1.081984 S    
C116  H72   1.078208 S    
C74   C78   1.426300 A    
O21   P14   1.746731 S    
O23   P16   1.746730 S    
C163  H99   1.083203 S    
C8    H8    1.120141 S    
O19   C23   1.416086 S    
C162  H98   1.085147 S    
C117  C125  1.417558 A    
C21   C145  1.486839 S    
C175  H123  1.107434 S    
O4    Ba4   2.827399 S    
C115  C123  1.390168 A    
C66   C70   1.412250 A    
C11   H43   1.107503 S    
C29   H33   1.112363 S    
C12   H44   1.095989 S    
C2    C170  1.510303 S    
C13   C181  1.498457 S    
C169  H113  1.085520 S    
C34   C82   1.410625 A    
P5    O25   1.596704 D    
C171  H115  1.085522 S    
C131  H63   1.081970 S    
P7    O27   1.596704 D    
C58   C62   1.429848 A    
P3    Ba3   3.455404 S    
P8    O28   1.591715 D    
C100  H56   1.076345 S    
C16   H16   1.109646 S    
C170  O82   1.221127 D    
C27   C151  1.502054 S    
C15   C19   1.538541 S    
O85   C173  1.399995 S    
Ba1   O46   3.044600 S    
C167  H109  1.109195 S    
C178  H130  1.084907 S    
C142  O54   1.204976 D    
C61   C105  1.416151 A    
C7    O87   1.415718 S    
C28   C152  1.503163 S    
C6    H6    1.120144 S    
C59   C63   1.438634 A    
C106  C112  1.432491 A    
P4    Ba4   3.448300 S    
C110  C114  1.408539 A    
C166  H106  1.109125 S    
O2    Ba2   2.827399 S    
C14   C182  1.488770 S    
P6    O45   1.578329 S    
P3    O7    1.573143 S    
C173  H117  1.107440 S    
O41   C5    1.408706 S    
C52   C160  1.477339 S    
C9    H9    1.110434 S    
C119  C123  1.402813 A    
P15   C128  1.868625 S    
C39   C95   1.394476 A    
C176  H126  1.104542 S    
C42   H66   1.082987 S    
C38   C162  1.490396 S    
C49   C53   1.412441 A    
C68   C72   1.412247 A    
C140  O52   1.220479 D    
C151  O63   1.220839 D    
C161  H97   1.083204 S    
P8    O40   1.757078 S    
C101  C105  1.425418 A    
C53   C65   1.426933 A    
C179  H131  1.085096 S    
C108  C110  1.432491 A    
C57   C77   1.419852 A    
C143  O55   1.208967 D    
C90   C134  1.430492 A    
C60   C80   1.421539 A    
C16   C184  1.488761 S    
O44   C8    1.409758 S    
C18   C138  1.504173 S    
C22   C142  1.439509 S    
C4    C32   1.544040 S    
C33   C47   1.432148 A    
C5    H5    1.120288 S    
C149  O61   1.220838 D    
C34   C48   1.423852 A    
C165  H101  1.109981 S    
P2    Ba2   3.448300 S    
C174  H120  1.104535 S    
C6    C10   1.532675 S    
C112  C116  1.408538 A    
C27   H31   1.107399 S    
C129  H61   1.081972 S    
C153  O65   1.219589 D    
C22   C146  1.481970 S    
H3    C31   1.113526 S    
H1    C29   1.113525 S    
C84   C112  1.419416 A    
C86   C90   1.421070 A    
C19   C139  1.503510 S    
C6    O86   1.417911 S    
Ba2   O45   3.040540 S    
C26   H26   1.112225 S    
O24   P15   1.749983 S    
C32   H36   1.110263 S    
P12   O32   1.742932 S    
C146  O58   1.215988 D    
O3    Ba3   2.837659 S    
C137  H73   1.085342 S    
C100  C104  1.415853 A    
C123  H59   1.079634 S    
C46   C62   1.412449 A    
C83   C87   1.436030 A    
C70   H46   1.082426 S    
C64   C108  1.415988 A    
O42   C6    1.409773 S    
C43   C47   1.399182 A    
C172  O84   1.221134 D    
C44   C48   1.396963 A    
C138  H74   1.084467 S    
C38   C94   1.402930 A    
O16   P15   1.544354 D    
C156  H92   1.085338 S    
C36   C46   1.423853 A    
C43   C51   1.386591 A    
C2    H38   1.104423 S    
P5    O46   1.575658 S    
O24   C32   1.404534 S    
C35   C39   1.428004 A    
C15   C183  1.498453 S    
C155  O67   1.219591 D    
C160  O72   1.221492 D    
C183  H135  1.083835 S    
C24   C148  1.481968 S    
C88   C92   1.421070 A    
C17   C137  1.503510 S    
C141  H77   1.084237 S    
C122  H58   1.077775 S    
C176  H128  1.108210 S    
C164  O76   1.220758 D    
P9    O33   1.534168 D    
C50   C158  1.477342 S    
P10   O30   1.742918 S    
C124  H60   1.077779 S    
P7    C76   1.893098 S    
P11   O35   1.534168 D    
C163  O75   1.219568 D    
C114  C122  1.390730 A    
C54   C58   1.428582 A    
C159  O71   1.220167 D    
C180  H132  1.084897 S    
C7    C11   1.537707 S    
P4    C136  1.902575 S    
C28   H28   1.112222 S    
C182  H134  1.076467 S    
C120  C128  1.413354 A    
C21   C25   1.558619 S    
C107  C109  1.435601 A    
P16   C127  1.875150 S    
C23   C27   1.558620 S    
C40   C96   1.402933 A    
C36   C40   1.422849 A    
C154  H90   1.085367 S    
C171  O83   1.221567 D    
C87   C119  1.416139 A    
C85   C117  1.416138 A    
C73   C77   1.428369 A    
Ba4   O48   2.845917 S    
C127  C131  1.410381 A    
C8    C12   1.532651 S    
C1    C153  1.509499 S    
C76   C80   1.426305 A    
O11   Ba3   2.812143 S    
P5    Ba1   3.448963 S    
C82   C86   1.429610 A    
C11   H11   1.110434 S    
C65   C69   1.416093 A    
C167  H108  1.113786 S    
C17   H17   1.106590 S    
O12   P15   1.728832 S    
O17   C21   1.416085 S    
C168  H111  1.107050 S    
C19   H19   1.106591 S    
C128  C132  1.411717 A    
C139  H75   1.085340 S    
C89   C93   1.396226 A    
O37   C14   1.401182 S    
C111  C115  1.408880 A    
C16   C20   1.543393 S    
C19   H23   1.108665 S    
C13   H13   1.108045 S    
C60   C64   1.429850 A    
C35   C45   1.432141 A    
C130  C134  1.413275 A    
C15   H15   1.108045 S    
C177  H129  1.085101 S    
C115  H71   1.077829 S    
C175  H125  1.108944 S    
C81   C109  1.423059 A    
C1    C169  1.511243 S    
C184  H136  1.076468 S    
C25   H29   1.107398 S    
C9    H41   1.107502 S    
P1    O1    1.591135 D    
C179  O91   1.219519 D    
C158  O70   1.221495 D    
P3    O3    1.591135 D    
O29   Ba1   2.825386 S    
P4    O20   1.789803 S    
O40   C15   1.410466 S    
C23   C143  1.436583 S    
O13   P14   1.546589 D    
O31   Ba3   2.825386 S    
O79   C167  1.414295 S    
C104  C108  1.418885 A    
O15   P16   1.546589 D    
C63   C107  1.416147 A    
C119  C127  1.417560 A    
C70   C74   1.407677 A    
O78   C166  1.407785 S    
C125  C129  1.410380 A    
C86   C118  1.412540 A    
C50   C54   1.429695 A    
C132  H64   1.082008 S    
O87   C175  1.399998 S    
O5    Ba2   2.845304 S    
C162  O74   1.220758 D    
O7    Ba4   2.845304 S    
C54   C66   1.435408 A    
C33   C81   1.418762 A    
P4    O4    1.596128 D    
C13   C17   1.538543 S    
C152  H88   1.081985 S    
C93   H49   1.069521 S    
P14   C125  1.875151 S    
C87   C91   1.420869 A    
C181  O93   1.216434 D    
C144  O56   1.204976 D    
Ba3   O48   3.044600 S    
C78   C98   1.409048 A    
C157  O69   1.220179 D    
P1    C133  1.899553 S    
C18   H18   1.107756 S    
C148  O60   1.215985 D    
C145  O57   1.219823 D    
O27   Ba3   2.828563 S    
C147  H83   1.084018 S    
C98   H54   1.076345 S    
C12   H12   1.108438 S    
P1    O5    1.573143 S    
C130  H62   1.082010 S    
C97   C101  1.400864 A    
C183  O95   1.216424 D    
O38   C13   1.410466 S    
C37   C93   1.394479 A    
C143  H79   1.084238 S    
C23   C147  1.486840 S    
H2    C30   1.111354 S    
Ba1   O45   2.843256 S    
C24   C28   1.547482 S    
C103  O79   1.383351 S    
O22   P13   1.749999 S    
C178  O90   1.218935 D    
C155  H91   1.085497 S    
C88   C120  1.412537 A    
C71   C75   1.412406 A    
C27   H27   1.113387 S    
P12   O36   1.542253 D    
C131  C135  1.409154 A    
P5    C74   1.893093 S    
P7    O39   1.754257 S    
C118  C126  1.413361 A    
C95   H51   1.069521 S    
C59   C79   1.419835 A    
C166  H105  1.107049 S    
C158  H94   1.071503 S    
C12   C180  1.500216 S    
C173  H118  1.112181 S    
O8    Ba3   2.847998 S    
O9    P14   1.741531 S    
C20   C140  1.504172 S    
O30   Ba2   2.813944 S    
O11   P16   1.741536 S    
C3    C31   1.538105 S    
C28   H32   1.105878 S    
C1    C29   1.538103 S    
C58   C78   1.421534 A    
C148  H84   1.075611 S    
O32   Ba4   2.813944 S    
C25   C149  1.502054 S    
O6    Ba1   2.847998 S    
C175  H124  1.112181 S    
C173  H119  1.108944 S    
C42   C50   1.395713 A    
C43   H67   1.076580 S    
P7    Ba3   3.448963 S    
C172  H116  1.084994 S    
C44   H68   1.082986 S    
C24   C144  1.439510 S    
C40   C164  1.490398 S    
C14   C18   1.543393 S    
C5    O85   1.415715 S    
C126  C130  1.411729 A    
C62   C106  1.415988 A    
C14   H14   1.109646 S    
P10   O34   1.542258 D    
P11   O31   1.754045 S    
C149  H85   1.084457 S    
C165  H102  1.113784 S    
C89   C133  1.430543 A    
C7    H7    1.120288 S    
C41   C45   1.399174 A    
C153  H89   1.085497 S    
C99   C103  1.400865 A    
C151  H87   1.084456 S    
C56   C60   1.428586 A    
O88   C176  1.405962 S    
C10   H10   1.108378 S    
Ba3   Ba4   4.791872 S    
C169  O81   1.221568 D    
C180  O92   1.218941 D    
Ba2   O46   2.845917 S    
C104  O80   1.394091 S    
C33   C37   1.428009 A    
O20   C24   1.411671 S    
C45   C61   1.415961 A    
C165  H103  1.109191 S    
C174  H122  1.108208 S    
C159  H95   1.077707 S    
P1    O17   1.792538 S    
C139  O51   1.218510 D    
O23   C31   1.406717 S    
P3    O19   1.792538 S    
C166  H104  1.107323 S    
C20   H20   1.107755 S    
C84   C88   1.429611 A    
O21   C29   1.406718 S    
C170  H114  1.084997 S    
O26   Ba2   2.838927 S    
C105  C111  1.435598 A    
O10   P13   1.728836 S    
C142  H78   1.085222 S    
C138  O50   1.220479 D    
C31   H35   1.112362 S    
C140  H76   1.084467 S    
C156  O68   1.221249 D    
C102  C106  1.418890 A    
P10   C65   1.889977 S    
C71   H47   1.082227 S    
O28   Ba4   2.838927 S    
C2    C154  1.499367 S    
C5    C9    1.537703 S    
C69   H45   1.082226 S    
C36   C84   1.410628 A    
C4    C172  1.510313 S    
C39   C163  1.481259 S    
C35   C83   1.418757 A    
C176  H127  1.105485 S    
C75   C79   1.428368 A    
C25   H25   1.113389 S    
C132  C136  1.413263 A    
C10   H42   1.095977 S    
C113  H69   1.077825 S    
C96   H52   1.071327 S    
C102  O78   1.394090 S    
C47   C63   1.415969 A    
C109  C113  1.408879 A    
C48   C64   1.412450 A    
C26   C150  1.503161 S    
P2    O2    1.596128 D    
C182  O94   1.222084 D    
C98   C102  1.415847 A    
C67   C71   1.416075 A    
O43   C7    1.408706 S    
P6    O26   1.591715 D    
P9    C66   1.877050 S    
C154  O66   1.221055 D    
C79   C99   1.400902 A    
C69   C73   1.412416 A    
C101  O77   1.383352 S    
O18   C22   1.411672 S    
C91   C95   1.396228 A    
C72   C76   1.407677 A    
C17   H21   1.108665 S    
C147  O59   1.219823 D    
C51   C55   1.412405 A    
P8    Ba4   3.456222 S    
C117  C121  1.402807 A    
C3    C155  1.509498 S    
C103  C107  1.425421 A    
C83   C111  1.423056 A    
P6    O38   1.757079 S    
C85   C89   1.420873 A    
C4    H40   1.104422 S    
C2    C30   1.544065 S    
C168  H110  1.107317 S    
O25   Ba1   2.828563 S    
C113  C121  1.390163 A    
C146  H82   1.075612 S    
C137  O49   1.218510 D    
C90   C94   1.402817 A    
C150  O62   1.220642 D    
C99   H55   1.072630 S    
C80   C100  1.409053 A    
O9    Ba1   2.812143 S    
P2    O6    1.570480 S    
C9    C177  1.504765 S    
H4    C32   1.111352 S    
O80   C168  1.407783 S    
C20   H24   1.111378 S    
C21   C141  1.436582 S    
C22   C26   1.547480 S    
P8    O47   1.578329 S    
P10   O42   1.756868 S    
C57   C61   1.438633 A    
C41   H65   1.076582 S    
C184  O96   1.222083 D    
P5    O37   1.754259 S    
P6    C73   1.905660 S    
O77   C165  1.414297 S    
C118  C122  1.404839 A    
C114  H70   1.078210 S    
C116  C124  1.390719 A    
P6    Ba2   3.456222 S    
C160  H96   1.071497 S    
C81   C85   1.436034 A    
C141  O53   1.208966 D    
C164  H100  1.085145 S    
P3    C135  1.899547 S    
C44   C52   1.395712 A    
C161  O73   1.219567 D    
C144  H80   1.085224 S    
C92   C136  1.430500 A    
O86   C174  1.405990 S    
C4    C156  1.499321 S    
C18   H22   1.111376 S    
