data_mof_unit_52292.cif
_audit_creation_date              2012-12-11T15:08:30-0500
_audit_creation_method            fapswitch 2.2
_symmetry_space_group_name_H-M    P1
_symmetry_Int_Tables_number       1
_space_group_crystal_system       triclinic
_cell_length_a                    26.8254
_cell_length_b                    7.064444
_cell_length_c                    12.197602
_cell_angle_alpha                 89.745405
_cell_angle_beta                  104.182779
_cell_angle_gamma                 89.408139
_cell_volume                      2240.8902257

loop_
_atom_site_label
_atom_site_type_symbol
_atom_type_description
_atom_site_fract_x
_atom_site_fract_y
_atom_site_fract_z
_atom_type_partial_charge
O1    O     O_R   0.437360 0.505910 0.042120 -0.540724
O2    O     O_R   0.562640 0.005910 0.957880 -0.536408
O3    O     O_R   0.542480 0.176660 0.157100 -0.541556
O4    O     O_R   0.457520 0.676660 0.842900 -0.547807
C1    C     C_R   0.555923 0.343812 0.198157 0.690324
C2    C     C_R   0.444348 0.845909 0.801655 0.732624
O5    O     O_R   0.436520 0.176250 0.054800 -0.544110
O6    O     O_R   0.563480 0.676250 0.945200 -0.544796
O7    O     O_R   0.455920 0.005040 0.854840 -0.532282
O8    O     O_R   0.544080 0.505040 0.145160 -0.541432
C3    C     C_R   0.417626 0.345714 0.063406 0.679921
C4    C     C_R   0.582421 0.844165 0.936766 0.699501
O9    O     O_3   0.506490 0.338900 0.934520 -0.370814
O10   O     O_3   0.493510 0.838900 0.065480 -0.378019
V1    V     V_3+5 0.498800 0.064400 0.012150 1.448877
V2    V     V_3+5 0.501200 0.564400 0.987850 1.433449
C5    C     C_R   0.680185 0.842447 0.762831 -0.159714
C6    C     C_R   0.319926 0.416500 0.234067 -0.158090
H1    H     H_    0.597866 0.835940 0.725983 0.120658
H2    H     H_    0.402239 0.414342 0.270717 0.112221
H3    H     H_    0.773618 0.842645 0.726839 0.138548
H4    H     H_    0.226507 0.448930 0.268503 0.138918
H5    H     H_    0.680467 0.836903 0.674173 0.130599
H6    H     H_    0.319689 0.446659 0.321017 0.131374
C7    C     C_R   0.631670 0.849999 0.905402 -0.030095
C8    C     C_R   0.368381 0.357812 0.094656 -0.028042
C9    C     C_R   0.869180 0.869476 0.209736 -0.207656
C10   C     C_R   0.130791 0.320961 0.792461 -0.192486
C11   C     C_R   0.823567 0.869069 0.244374 -0.118803
C12   C     C_R   0.176382 0.299465 0.758902 -0.119099
C13   C     C_R   0.776361 0.863911 0.164959 -0.159962
C14   C     C_R   0.223624 0.312236 0.837654 -0.166670
C15   C     C_R   0.773609 0.858757 0.047406 0.071304
C16   C     C_R   0.226410 0.347261 0.953394 0.073140
C17   C     C_R   0.820670 0.857560 0.012565 0.069245
C18   C     C_R   0.179368 0.369837 0.987060 0.067878
C19   C     C_R   0.725865 0.854951 0.963369 0.068716
C20   C     C_R   0.274163 0.360702 0.036730 0.068169
C21   C     C_R   0.726412 0.848432 0.847057 0.137581
C22   C     C_R   0.273662 0.398772 0.150949 0.135715
C23   C     C_R   0.772995 0.847320 0.815342 -0.208793
C24   C     C_R   0.227095 0.420129 0.181571 -0.209278
C25   C     C_R   0.819358 0.852154 0.896504 -0.209783
C26   C     C_R   0.180706 0.405337 0.101249 -0.209804
C27   C     C_R   0.677428 0.856856 0.990321 -0.224168
C28   C     C_R   0.322573 0.338945 0.010948 -0.219748
C29   C     C_R   0.633136 0.842272 0.791936 -0.181336
C30   C     C_R   0.366963 0.397444 0.205860 -0.188530
C31   C     C_R   0.868267 0.863186 0.094809 -0.066641
C32   C     C_R   0.131753 0.355445 0.905600 -0.073433
H7    H     H_    0.673731 0.861796 0.076254 0.096817
H8    H     H_    0.326224 0.309817 0.926615 0.097569
H9    H     H_    0.905454 0.874768 0.272887 0.100109
H10   H     H_    0.094481 0.310361 0.730005 0.098211
H11   H     H_    0.742842 0.864240 0.198681 0.114024
H12   H     H_    0.257134 0.294353 0.804829 0.114720
H13   H     H_    0.824755 0.873457 0.333716 0.134877
H14   H     H_    0.175146 0.272627 0.670929 0.134114
H15   H     H_    0.854324 0.851358 0.867176 0.130426
H16   H     H_    0.145746 0.423061 0.129640 0.129934
C33   C     C_R   0.092784 0.852915 0.307372 -0.064214
C34   C     C_R   0.907503 0.363460 0.692141 -0.074493
C35   C     C_R   0.410685 0.858969 0.687475 -0.047878
C36   C     C_R   0.589248 0.348708 0.312902 -0.067458
C37   C     C_R   0.105738 0.788563 0.507467 0.106994
C38   C     C_R   0.895389 0.370133 0.488473 0.105647
C39   C     C_R   0.073539 0.802805 0.398566 -0.198536
C40   C     C_R   0.927614 0.373205 0.598164 -0.184720
C41   C     C_R   0.145211 0.881352 0.321205 -0.227936
C42   C     C_R   0.854706 0.353647 0.680261 -0.222906
C43   C     C_R   0.180307 0.852993 0.427501 0.059727
C44   C     C_R   0.820088 0.354554 0.572248 0.065166
C45   C     C_R   0.160012 0.802010 0.521470 0.095038
C46   C     C_R   0.841106 0.362169 0.475508 0.083987
C47   C     C_R   0.234822 0.871053 0.442599 0.057595
C48   C     C_R   0.765390 0.349236 0.557732 0.059586
C49   C     C_R   0.268523 0.834123 0.551047 0.067842
C50   C     C_R   0.732208 0.353535 0.446383 0.067755
C51   C     C_R   0.247015 0.773311 0.639344 -0.194099
C52   C     C_R   0.754706 0.358436 0.353359 -0.191969
C53   C     C_R   0.194469 0.758530 0.625070 -0.208634
C54   C     C_R   0.807479 0.362370 0.367622 -0.211352
C55   C     C_R   0.256883 0.923640 0.352817 -0.194820
C56   C     C_R   0.742703 0.339662 0.650891 -0.192379
C57   C     C_R   0.309673 0.939812 0.368504 -0.192349
C58   C     C_R   0.689813 0.334713 0.636004 -0.192290
C59   C     C_R   0.342802 0.908403 0.474405 0.094767
C60   C     C_R   0.657077 0.339979 0.528149 0.078726
C61   C     C_R   0.322811 0.856443 0.567452 0.084180
C62   C     C_R   0.677560 0.350954 0.431704 0.081848
C63   C     C_R   0.395904 0.931668 0.488063 -0.195490
C64   C     C_R   0.603776 0.332974 0.516460 -0.165903
C65   C     C_R   0.430142 0.907411 0.594369 0.199325
C66   C     C_R   0.569537 0.335589 0.409804 0.196619
C67   C     C_R   0.357982 0.833383 0.674054 -0.277200
C68   C     C_R   0.642346 0.357907 0.324317 -0.261540
H17   H     H_    0.182210 0.704252 0.696703 0.137930
H18   H     H_    0.821364 0.366351 0.291574 0.138110
H19   H     H_    0.345824 0.801942 0.749916 0.108746
H20   H     H_    0.654626 0.368420 0.246862 0.108212
H21   H     H_    0.324665 0.980173 0.296976 0.141768
H22   H     H_    0.674370 0.326323 0.710145 0.139726
H23   H     H_    0.032593 0.780548 0.384361 0.106108
H24   H     H_    0.968923 0.382363 0.613285 0.096065
H25   H     H_    0.157126 0.918961 0.245975 0.109263
H26   H     H_    0.842311 0.348230 0.757691 0.108294
H27   H     H_    0.269829 0.731356 0.721413 0.128425
H28   H     H_    0.732673 0.358405 0.266873 0.127782
H29   H     H_    0.234618 0.954351 0.268477 0.136318
H30   H     H_    0.764525 0.334482 0.737486 0.135332
H31   H     H_    0.410647 0.970898 0.416003 0.123156
H32   H     H_    0.588516 0.323349 0.590821 0.137269
O11   O     O_R   0.955980 0.206520 0.854760 -0.540552
O12   O     O_R   0.044020 0.706520 0.145240 -0.542937
O13   O     O_R   0.063490 0.536770 0.945200 -0.541494
O14   O     O_R   0.936510 0.036770 0.054800 -0.542973
C69   C     C_R   0.082521 0.367463 0.937387 0.687497
C70   C     C_R   0.917477 0.868994 0.062688 0.681798
O15   O     O_R   0.957530 0.536190 0.842880 -0.544969
O16   O     O_R   0.042470 0.036190 0.157120 -0.545929
O17   O     O_R   0.937350 0.707210 0.042130 -0.540265
O18   O     O_R   0.062650 0.207210 0.957870 -0.540690
C71   C     C_R   0.942146 0.368902 0.804438 0.705549
C72   C     C_R   0.057918 0.866711 0.195453 0.705798
O19   O     O_3   0.993540 0.373870 0.065440 -0.379695
O20   O     O_3   0.006460 0.873870 0.934560 -0.378647
V3    V     V_3+5 0.001200 0.648440 0.987860 1.380075
V4    V     V_3+5 0.998800 0.148440 0.012140 1.377935
N1    N     N_3   0.484406 0.934201 0.608868 -0.676206
H33   H     H_    0.502388 0.802062 0.628332 0.202164
H34   H     H_    0.492221 0.978668 0.532975 0.251704
N2    N     N_3   0.515418 0.323497 0.403546 -0.681026
H35   H     H_    0.493717 0.313269 0.320260 0.203347
H36   H     H_    0.504137 0.449514 0.435668 0.224637
C73   C     C_3   0.079618 0.766225 0.604176 -0.362587
C74   C     C_3   0.039697 0.925185 0.600945 -0.394260
C75   C     C_3   0.019512 0.922749 0.706526 -0.644180
H37   H     H_    0.003190 0.782014 0.717353 0.231442
H38   H     H_    0.051286 0.954911 0.781120 0.237069
H39   H     H_    0.988848 0.031840 0.698562 0.208776
H40   H     H_    0.057545 0.064686 0.594306 0.196795
H41   H     H_    0.006319 0.908923 0.527204 0.194517
H42   H     H_    0.060524 0.626606 0.597422 0.156018
H43   H     H_    0.106641 0.771040 0.688296 0.183085
C76   C     C_3   0.918185 0.375257 0.385554 -0.365677
C77   C     C_3   0.977113 0.384139 0.411872 -0.415538
C78   C     C_3   0.995865 0.384157 0.304414 -0.637495
H44   H     H_    0.983371 0.252514 0.256700 0.239626
H45   H     H_    0.979967 0.509875 0.252026 0.231168
H46   H     H_    0.038519 0.389754 0.325696 0.207931
H47   H     H_    0.990273 0.515957 0.458686 0.200449
H48   H     H_    0.994351 0.259096 0.463202 0.199023
H49   H     H_    0.905836 0.246040 0.334841 0.178073
H50   H     H_    0.902349 0.501560 0.333424 0.180023

loop_
_geom_bond_atom_site_label_1
_geom_bond_atom_site_label_2
_ccdc_geom_bond_type
C38   C40   A    
O4    V2    S    
O20   V3    S    
C59   C63   A    
C9    C11   A    
C32   C69   S    
C23   C25   A    
C60   C62   A    
C78   H44   S    
O1    C3    A    
C44   C48   A    
O2    C4    A    
C48   C56   A    
C2    O7    A    
C76   C77   S    
C39   H23   S    
C73   C74   S    
C21   C23   A    
O11   V4    S    
C50   C62   A    
O5    C3    A    
C75   H38   S    
C49   C61   A    
C5    H5    S    
C68   H20   S    
C33   C72   S    
C6    H6    S    
C56   H30   S    
C20   C22   A    
C48   C50   A    
O17   V3    S    
C67   H19   S    
C27   H7    S    
C38   C46   A    
C35   C67   A    
O13   V3    S    
C34   C42   A    
C5    C21   A    
C63   H31   S    
C41   C43   A    
C6    C22   A    
C38   C76   S    
C74   H41   S    
C10   C32   A    
C60   C64   A    
N2    H35   S    
C37   C39   A    
C17   C31   A    
O19   V4    S    
O20   V4    S    
C13   C15   A    
C17   C25   A    
C7    C29   A    
C16   C18   A    
C25   H15   S    
O12   C72   A    
C22   C24   A    
O6    V2    S    
C9    H9    S    
C54   H18   S    
C24   C26   A    
C46   C54   A    
C65   N1    S    
C45   C53   A    
C34   C71   S    
C49   C51   A    
C75   H39   S    
C43   C47   A    
C77   C78   S    
C58   C60   A    
C40   H24   S    
C78   H46   S    
C36   C68   A    
C44   C46   A    
C42   H26   S    
C37   C45   A    
C51   C53   A    
C41   H25   S    
C64   H32   S    
C3    C8    S    
O13   C69   A    
C66   N2    S    
C1    C36   S    
C70   O17   A    
C14   C16   A    
C2    C35   S    
C61   C67   A    
C69   O18   A    
C74   H40   S    
C63   C65   A    
C33   C39   A    
C31   C70   S    
O11   C71   A    
O6    C4    A    
C55   H29   S    
C50   C52   A    
C51   H27   S    
O1    V2    S    
C37   C73   S    
O2    V1    S    
C47   C49   A    
H2    C30   S    
N2    H36   S    
H3    C23   S    
C76   H50   S    
C52   C54   A    
C73   H43   S    
C55   C57   A    
C11   H13   S    
O15   C71   A    
C59   C61   A    
C77   H48   S    
C18   C26   A    
O4    C2    A    
C19   C27   A    
C58   H22   S    
C7    C27   A    
C18   C32   A    
C43   C45   A    
N1    H33   S    
C33   C41   A    
C35   C65   A    
C10   H10   S    
C78   H45   S    
C16   C20   A    
C5    C29   A    
C56   C58   A    
C74   C75   S    
O3    C1    A    
C6    C30   A    
O16   V4    S    
C62   C68   A    
C8    C30   A    
C75   H37   S    
C52   H28   S    
C34   C40   A    
C4    C7    S    
C10   C12   A    
O7    V1    S    
C76   H49   S    
C1    O8    A    
C19   C21   A    
O8    V2    S    
C28   H8    S    
C12   C14   A    
O12   V3    S    
C47   C55   A    
C64   C66   A    
H4    C24   S    
C53   H17   S    
C26   H16   S    
C12   H14   S    
O5    V1    S    
C73   H42   S    
C15   C17   A    
O14   C70   A    
H1    C29   S    
O18   V4    S    
C15   C19   A    
C20   C28   A    
C57   H21   S    
C8    C28   A    
C36   C66   A    
C77   H47   S    
C9    C31   A    
C57   C59   A    
C11   C13   A    
O14   V4    S    
O9    V2    S    
O19   V3    S    
O10   V1    S    
O3    V1    S    
C42   C44   A    
C13   H11   S    
C14   H12   S    
O16   C72   A    
N1    H34   S    
O15   V3    S    
