data_mof_unit_20393.cif
_audit_creation_date              2012-12-10T17:56:17-0500
_audit_creation_method            fapswitch 2.2
_symmetry_space_group_name_H-M    P1
_symmetry_Int_Tables_number       1
_space_group_crystal_system       triclinic
_cell_length_a                    13.014591
_cell_length_b                    10.756495
_cell_length_c                    9.53631
_cell_angle_alpha                 90.09891
_cell_angle_beta                  96.264226
_cell_angle_gamma                 90.155529
_cell_volume                      1327.02266733

loop_
_atom_site_label
_atom_site_type_symbol
_atom_type_description
_atom_site_fract_x
_atom_site_fract_y
_atom_site_fract_z
_atom_type_partial_charge
C1    C     C_R   0.497880 0.262595 0.499460 0.911350
C2    C     C_R   0.502503 0.737422 0.500375 0.911691
C3    C     C_R   0.502722 0.871519 0.499831 -0.147168
C4    C     C_R   0.497501 0.128538 0.498527 -0.149951
C5    C     C_R   0.431875 0.426726 0.064605 0.538990
C6    C     C_R   0.568161 0.573207 0.935618 0.540398
C7    C     C_R   0.432137 0.427645 0.915102 -0.209613
C8    C     C_R   0.567637 0.572743 0.085109 -0.209529
C9    C     C_R   0.300539 0.499549 0.473606 0.851129
C10   C     C_R   0.699458 0.500294 0.526403 0.849377
C11   C     C_R   0.812176 0.500388 0.541835 -0.133070
C12   C     C_R   0.187818 0.499440 0.458223 -0.128631
C13   C     C_R   0.024850 0.502604 0.309455 0.409244
C14   C     C_R   0.975134 0.497472 0.690648 0.407526
C15   C     C_R   0.132192 0.505474 0.324574 -0.155443
C16   C     C_R   0.867792 0.494367 0.675501 -0.167059
C17   C     C_R   0.135880 0.492697 0.578701 -0.263502
C18   C     C_R   0.864121 0.507474 0.421405 -0.251808
C19   C     C_R   0.028229 0.498135 0.568248 0.009134
C20   C     C_R   0.971768 0.502023 0.431866 0.010913
C21   C     C_R   0.403480 0.062371 0.495844 -0.015768
C22   C     C_R   0.595877 0.937725 0.492933 -0.011101
C23   C     C_R   0.407516 0.931586 0.503633 0.357855
C24   C     C_R   0.593083 0.068494 0.499664 0.357856
Cu1   Cu    Cu3+1 0.500000 0.500020 0.640660 1.009063
Cu2   Cu    Cu3+1 0.500000 0.499980 0.359340 1.011668
H1    H     H_    0.819558 0.518143 0.319711 0.174047
H2    H     H_    0.180452 0.482054 0.680397 0.176239
H3    H     H_    0.827941 0.490972 0.769450 0.200226
H4    H     H_    0.172026 0.508838 0.230604 0.197918
H5    H     H_    0.377978 0.370372 0.849785 0.134304
H6    H     H_    0.621301 0.630809 0.150804 0.137794
N1    N     N_R   0.500030 0.500030 0.852080 -0.181991
N2    N     N_R   0.499970 0.499970 0.147920 -0.182466
O1    O     O_R   0.499990 0.319660 0.618740 -0.592188
O2    O     O_R   0.500010 0.680340 0.381260 -0.599276
O3    O     O_R   0.499990 0.319630 0.381170 -0.532168
O4    O     O_R   0.500010 0.680370 0.618830 -0.529272
O5    O     O_R   0.349000 0.499990 0.599490 -0.596959
O6    O     O_R   0.651000 0.500010 0.400510 -0.597262
O7    O     O_R   0.348990 0.499960 0.361920 -0.545380
O8    O     O_R   0.651010 0.500040 0.638080 -0.547353
O9    O     O_3   0.975551 0.500838 0.173868 -0.699910
H7    H     H_    0.914924 0.444883 0.171636 0.323794
O10   O     O_3   0.024419 0.499317 0.826239 -0.699372
H8    H     H_    0.085039 0.555279 0.828444 0.323294
C25   C     C_3   0.300387 0.130298 0.473865 -0.393131
C26   C     C_3   0.262209 0.167269 0.613764 -0.839167
H9    H     H_    0.316894 0.233622 0.670864 0.257151
H10   H     H_    0.185647 0.212954 0.593397 0.252811
H11   H     H_    0.254363 0.084819 0.681551 0.253309
H12   H     H_    0.306629 0.215117 0.409069 0.213316
H13   H     H_    0.240974 0.072579 0.411458 0.221716
C27   C     C_3   0.695560 0.869771 0.471330 -0.426914
C28   C     C_3   0.754030 0.830209 0.611455 -0.806887
H14   H     H_    0.771428 0.911557 0.681861 0.253338
H15   H     H_    0.827941 0.785423 0.592026 0.245417
H16   H     H_    0.707535 0.762339 0.664923 0.290592
H17   H     H_    0.679486 0.786363 0.403750 0.201460
H18   H     H_    0.746403 0.928232 0.412102 0.224227
O11   O     O_3   0.320340 0.858305 0.508766 -0.741220
H19   H     H_    0.265317 0.907005 0.546506 0.338277
O12   O     O_3   0.681107 0.141565 0.503541 -0.741254
H20   H     H_    0.741562 0.093912 0.545500 0.337388
O13   O     O_3   0.363990 0.352439 0.128078 -0.711374
H21   H     H_    0.320167 0.305790 0.054175 0.297368
O14   O     O_3   0.636324 0.647109 0.872457 -0.720788
H22   H     H_    0.680209 0.693633 0.946405 0.296794

loop_
_geom_bond_atom_site_label_1
_geom_bond_atom_site_label_2
_ccdc_geom_bond_type
C12   C17   A    
Cu1   O8    S    
O9    H7    S    
C6    N1    A    
C11   C18   A    
C25   H12   S    
C14   C16   A    
Cu1   O4    S    
C14   O10   S    
C11   C16   A    
C2    O4    A    
C9    O5    A    
C3    C23   A    
C19   C20   A    
C12   C15   A    
C1    O3    A    
C13   O9    S    
C25   H13   S    
C1    C4    S    
C5    N2    A    
C28   H14   S    
C26   H10   S    
C2    C3    S    
C16   H3    S    
Cu2   O3    S    
C27   H18   S    
O10   H8    S    
Cu1   O5    S    
C4    C21   A    
C7    N1    A    
Cu2   O6    S    
Cu1   O1    S    
O14   H22   S    
C14   C19   A    
C5    O13   S    
C6    O14   S    
C17   C19   A    
C24   O12   S    
C18   C20   A    
C27   H17   S    
C28   H15   S    
C13   C15   A    
O11   H19   S    
C4    C24   A    
C9    C12   S    
C22   C24   A    
C10   O8    A    
C10   C11   S    
O12   H20   S    
C8    H6    S    
C23   O11   S    
C7    H5    S    
C1    O1    A    
C15   H4    S    
C22   C27   S    
O13   H21   S    
C28   H16   S    
C2    O2    A    
C5    C7    A    
Cu2   O2    S    
C27   C28   S    
C26   H9    S    
C10   O6    A    
C6    C8    A    
C13   C20   A    
C21   C25   S    
Cu1   Cu2   S    
C8    N2    A    
C17   H2    S    
C9    O7    A    
C21   C23   A    
Cu2   N2    S    
C26   H11   S    
C18   H1    S    
C25   C26   S    
Cu2   O7    S    
Cu1   N1    S    
C3    C22   A    
