data_mof_unit_13586.cif
_audit_creation_date              2013-03-05T16:00:42-0500
_audit_creation_method            fapswitch 2.2
_symmetry_space_group_name_H-M    P1
_symmetry_Int_Tables_number       1
_space_group_crystal_system       triclinic
_cell_length_a                    20.515207
_cell_length_b                    21.818769
_cell_length_c                    14.145774
_cell_angle_alpha                 90.074177
_cell_angle_beta                  89.950788
_cell_angle_gamma                 89.930511
_cell_volume                      6331.87042474

loop_
_atom_site_label
_atom_site_type_symbol
_atom_site_description
_atom_site_fract_x
_atom_site_fract_y
_atom_site_fract_z
_atom_type_partial_charge
O1    O     O_R   0.066090 0.433930 0.580280 -0.599743
O2    O     O_R   0.933910 0.566070 0.419720 -0.654381
O3    O     O_R   0.933910 0.566070 0.580280 -0.597474
O4    O     O_R   0.066090 0.433930 0.419720 -0.654034
O5    O     O_R   0.933910 0.433930 0.419720 -0.612390
O6    O     O_R   0.066090 0.566070 0.580280 -0.614603
O7    O     O_R   0.066090 0.566070 0.419720 -0.606079
O8    O     O_R   0.933910 0.433930 0.580280 -0.596272
O9    O     O_R   0.566090 0.933930 0.580280 -0.652672
O10   O     O_R   0.433910 0.066070 0.419720 -0.603502
O11   O     O_R   0.433910 0.066070 0.580280 -0.653097
O12   O     O_R   0.566090 0.933930 0.419720 -0.602149
O13   O     O_R   0.433910 0.933930 0.419720 -0.594517
O14   O     O_R   0.566090 0.066070 0.580280 -0.612739
O15   O     O_R   0.566090 0.066070 0.419720 -0.594927
O16   O     O_R   0.433910 0.933930 0.580280 -0.615279
C1    C     C_R   0.081256 0.409135 0.499963 0.992340
C2    C     C_R   0.918503 0.590788 0.500167 1.012791
C3    C     C_R   0.909835 0.417139 0.499860 1.003147
C4    C     C_R   0.090282 0.582729 0.499856 1.015699
C5    C     C_R   0.580884 0.908921 0.499900 0.988485
C6    C     C_R   0.418655 0.090810 0.500038 0.991425
C7    C     C_R   0.409787 0.917200 0.500124 1.004195
C8    C     C_R   0.590227 0.082780 0.500153 1.005183
Zn1   Zn    Zn3+2 0.000000 0.500000 0.607200 1.057149
Zn2   Zn    Zn3+2 1.000000 0.500000 0.392800 1.007568
Zn3   Zn    Zn3+2 0.500000 0.000000 0.607200 1.006031
Zn4   Zn    Zn3+2 0.500000 0.000000 0.392800 1.070839
C9    C     C_R   0.119152 0.687250 0.473420 -0.162893
C10   C     C_R   0.881179 0.312445 0.473934 -0.135963
C11   C     C_R   0.840906 0.655235 0.416780 -0.231937
C12   C     C_R   0.158585 0.344374 0.416440 -0.198600
C13   C     C_R   0.619197 0.187277 0.526790 -0.141341
C14   C     C_R   0.381085 0.812588 0.526004 -0.144135
C15   C     C_R   0.340918 0.155189 0.583452 -0.213518
C16   C     C_R   0.655695 0.842203 0.584142 -0.212573
C17   C     C_R   0.139831 0.629062 0.498684 -0.185820
C18   C     C_R   0.860372 0.370735 0.498720 -0.168454
C19   C     C_R   0.875692 0.643839 0.499647 -0.189827
C20   C     C_R   0.123073 0.355461 0.498836 -0.183225
C21   C     C_R   0.639839 0.129034 0.501476 -0.169181
C22   C     C_R   0.360303 0.870827 0.501195 -0.171577
C23   C     C_R   0.376574 0.144288 0.501135 -0.177788
C24   C     C_R   0.621863 0.854654 0.500850 -0.185423
C25   C     C_R   0.205682 0.616554 0.519431 0.413171
C26   C     C_R   0.794504 0.383239 0.519505 0.406348
C27   C     C_R   0.866340 0.680802 0.580307 0.418776
C28   C     C_R   0.130052 0.317031 0.578150 0.315155
C29   C     C_R   0.705768 0.116352 0.481260 0.415949
C30   C     C_R   0.294438 0.883321 0.480529 0.419125
C31   C     C_R   0.369373 0.182591 0.421741 0.316141
C32   C     C_R   0.629485 0.816725 0.420882 0.316077
C33   C     C_R   0.248809 0.666349 0.527141 -0.034521
C34   C     C_R   0.751494 0.333412 0.527842 -0.030201
C35   C     C_R   0.810576 0.718036 0.583517 -0.055528
C36   C     C_R   0.184864 0.278483 0.581516 -0.033964
C37   C     C_R   0.749020 0.166074 0.473769 -0.056975
C38   C     C_R   0.251371 0.833504 0.472584 -0.034270
C39   C     C_R   0.314333 0.220833 0.418251 -0.047990
C40   C     C_R   0.683970 0.777736 0.418070 -0.039166
C41   C     C_R   0.227889 0.725515 0.499300 -0.001218
C42   C     C_R   0.772490 0.274151 0.500290 -0.001764
C43   C     C_R   0.774015 0.727869 0.499921 0.012445
C44   C     C_R   0.222831 0.269545 0.498800 0.013850
C45   C     C_R   0.728103 0.225312 0.501587 0.000725
C46   C     C_R   0.272319 0.774324 0.500305 -0.001980
C47   C     C_R   0.276292 0.229660 0.500927 0.024136
C48   C     C_R   0.720492 0.767667 0.501677 0.028262
C49   C     C_R   0.162709 0.735774 0.470027 0.009253
C50   C     C_R   0.837654 0.263869 0.470789 -0.010103
C51   C     C_R   0.791347 0.698332 0.414518 0.006238
C52   C     C_R   0.207254 0.300433 0.413971 -0.001586
C53   C     C_R   0.662936 0.235628 0.531041 0.013728
C54   C     C_R   0.337526 0.764056 0.529450 0.011771
C55   C     C_R   0.291885 0.198772 0.585756 0.016512
C56   C     C_R   0.703581 0.797567 0.586977 0.016176
C57   C     C_R   0.312421 0.658250 0.561679 -0.166655
C58   C     C_R   0.687972 0.341543 0.562894 -0.165710
C59   C     C_R   0.789456 0.744035 0.668920 -0.165477
C60   C     C_R   0.203915 0.250544 0.666325 -0.200634
C61   C     C_R   0.812697 0.157870 0.439315 -0.136245
C62   C     C_R   0.187790 0.841599 0.437938 -0.167294
C63   C     C_R   0.295125 0.248551 0.333346 -0.199679
C64   C     C_R   0.704267 0.750641 0.333033 -0.191403
C65   C     C_R   0.857558 0.205424 0.439141 0.412139
C66   C     C_R   0.142836 0.794135 0.438250 0.368653
C67   C     C_R   0.242460 0.288524 0.330052 0.439176
C68   C     C_R   0.757128 0.710837 0.330086 0.353258
C69   C     C_R   0.357411 0.705690 0.561186 0.361275
C70   C     C_R   0.643195 0.293928 0.563514 0.358960
C71   C     C_R   0.736904 0.784125 0.671784 0.334289
C72   C     C_R   0.256435 0.210408 0.669543 0.347666
H1    H     H_    0.068387 0.693437 0.455258 0.230846
H2    H     H_    0.932004 0.306196 0.456001 0.220525
H3    H     H_    0.851150 0.628190 0.354682 0.231172
H4    H     H_    0.149712 0.372375 0.355028 0.221817
H5    H     H_    0.568295 0.193693 0.544128 0.219367
H6    H     H_    0.431902 0.806381 0.543865 0.218968
H7    H     H_    0.350079 0.127383 0.644971 0.225975
H8    H     H_    0.646192 0.869623 0.646117 0.227821
H9    H     H_    0.327589 0.614924 0.590844 0.243387
H10   H     H_    0.672706 0.385039 0.591552 0.241482
H11   H     H_    0.812816 0.732117 0.734718 0.246372
H12   H     H_    0.179249 0.261166 0.731679 0.226951
H13   H     H_    0.828028 0.114399 0.410615 0.262468
H14   H     H_    0.172626 0.884943 0.408833 0.244050
H15   H     H_    0.319813 0.237877 0.268023 0.226620
H16   H     H_    0.680523 0.761898 0.267308 0.225375
C73   C     C_R   0.942622 0.491623 0.798529 0.076987
C74   C     C_R   0.057562 0.507325 0.201536 0.033208
C75   C     C_R   0.057357 0.508485 0.798422 0.061526
C76   C     C_R   0.942435 0.492801 0.201642 0.032835
C77   C     C_R   0.442437 0.992751 0.798477 0.032797
C78   C     C_R   0.557379 0.008425 0.201470 0.082552
C79   C     C_R   0.557587 0.007154 0.798339 0.034822
C80   C     C_R   0.442634 0.991582 0.201567 0.079492
N1    N     N_R   0.000000 0.500000 0.750030 -0.163603
N2    N     N_R   1.000000 0.500000 0.249970 -0.179192
N3    N     N_R   0.500000 0.000000 0.750030 -0.182961
N4    N     N_R   0.500000 0.000000 0.249970 -0.156186
C81   C     C_R   0.058719 0.507131 0.899046 0.019162
C82   C     C_R   0.941202 0.493410 0.101056 0.007110
C83   C     C_R   0.941267 0.492936 0.899172 0.012712
C84   C     C_R   0.058803 0.506682 0.100931 0.015080
C85   C     C_R   0.558830 0.006481 0.898935 0.011824
C86   C     C_R   0.441273 0.993012 0.100946 0.015425
C87   C     C_R   0.441195 0.993476 0.899073 0.011598
C88   C     C_R   0.558751 0.007004 0.100829 0.016168
C89   C     C_R   0.999998 0.500016 0.949501 0.079775
C90   C     C_R   0.000003 0.500019 0.050593 0.080998
C91   C     C_R   0.500013 0.999993 0.949404 0.076175
C92   C     C_R   0.500013 0.000006 0.050496 0.085267
C93   C     C_R   0.117303 0.511404 0.950629 -0.119593
C94   C     C_R   0.882652 0.488919 0.049527 -0.096883
C95   C     C_R   0.882683 0.488687 0.950905 -0.109766
C96   C     C_R   0.117342 0.511202 0.049243 -0.138103
C97   C     C_R   0.617393 0.010796 0.950473 -0.093373
C98   C     C_R   0.382669 0.988962 0.049362 -0.124630
C99   C     C_R   0.382628 0.989214 0.950747 -0.091880
C100  C     C_R   0.617354 0.011059 0.049100 -0.124615
H17   H     H_    0.164064 0.514163 0.915607 0.197573
H18   H     H_    0.835920 0.486079 0.084675 0.202673
H19   H     H_    0.835916 0.485942 0.916007 0.198275
H20   H     H_    0.164080 0.514099 0.084224 0.186461
H21   H     H_    0.664140 0.013459 0.915333 0.201569
H22   H     H_    0.335898 0.986382 0.084387 0.195695
H23   H     H_    0.335871 0.986609 0.915739 0.203834
H24   H     H_    0.664127 0.013657 0.084008 0.195293
S1    S     S_3+6 0.236644 0.540059 0.521620 0.031443
O17   O     O_2   0.300547 0.537939 0.469367 -0.257616
O18   O     O_2   0.247843 0.520403 0.622000 -0.267393
O19   O     O_3   0.185895 0.490840 0.469088 -0.620728
H25   H     H_    0.214546 0.459444 0.440158 0.392210
S2    S     S_3+6 0.763445 0.459704 0.521248 0.034031
O20   O     O_2   0.699426 0.461483 0.469441 -0.238883
O21   O     O_2   0.752475 0.479900 0.621531 -0.270986
O22   O     O_3   0.814026 0.508664 0.467869 -0.623285
H26   H     H_    0.785292 0.540334 0.439995 0.388664
S3    S     S_3+6 0.927702 0.687038 0.669586 0.057931
O23   O     O_2   0.928874 0.750783 0.710118 -0.239104
O24   O     O_2   0.913588 0.641979 0.747216 -0.313403
O25   O     O_3   0.001622 0.672754 0.623668 -0.553294
H27   H     H_    0.032079 0.675676 0.677788 0.404456
S4    S     S_3+6 0.067007 0.311491 0.665503 0.089577
O26   O     O_2   0.002136 0.325885 0.621866 -0.251856
O27   O     O_2   0.063459 0.247721 0.705300 -0.209226
O28   O     O_3   0.081079 0.361365 0.753941 -0.520114
H28   H     H_    0.129116 0.363978 0.759274 0.329362
S5    S     S_3+6 0.736511 0.039769 0.478780 0.024228
O29   O     O_2   0.748016 0.020231 0.378306 -0.271989
O30   O     O_2   0.800180 0.037419 0.531419 -0.258040
O31   O     O_3   0.685475 0.990575 0.530695 -0.624738
H29   H     H_    0.713720 0.957299 0.554937 0.378961
S6    S     S_3+6 0.263395 0.959794 0.478589 0.016651
O32   O     O_2   0.252249 0.979606 0.378271 -0.272610
O33   O     O_2   0.199446 0.961766 0.530740 -0.283857
O34   O     O_3   0.314055 0.008982 0.531375 -0.623598
H30   H     H_    0.285330 0.040011 0.561089 0.380548
S7    S     S_3+6 0.432478 0.188470 0.334535 0.093998
O35   O     O_2   0.435626 0.252252 0.294709 -0.192224
O36   O     O_2   0.497397 0.174461 0.378353 -0.254192
O37   O     O_3   0.418839 0.138498 0.246086 -0.521617
H31   H     H_    0.370828 0.135498 0.240771 0.328217
S8    S     S_3+6 0.567490 0.812199 0.332018 0.094653
O38   O     O_2   0.564161 0.748791 0.290588 -0.193625
O39   O     O_2   0.502179 0.826468 0.374613 -0.249561
O40   O     O_3   0.582812 0.862755 0.245132 -0.524027
H32   H     H_    0.630916 0.864680 0.240202 0.327903
S9    S     S_3+6 0.937717 0.189620 0.397821 0.071985
O41   O     O_2   0.953451 0.231641 0.316829 -0.256576
O42   O     O_2   0.985474 0.200413 0.476657 -0.247868
O43   O     O_3   0.944283 0.116507 0.361048 -0.496695
H33   H     H_    0.990313 0.111939 0.341008 0.410544
S10   S     S_3+6 0.062584 0.809937 0.397441 0.078388
O44   O     O_2   0.047069 0.768444 0.315628 -0.222181
O45   O     O_2   0.014429 0.798165 0.475539 -0.260507
O46   O     O_3   0.055223 0.883130 0.361586 -0.472310
H34   H     H_    0.051483 0.907458 0.420533 0.384792
S11   S     S_3+6 0.222028 0.322053 0.219426 0.058086
O47   O     O_2   0.262727 0.295422 0.141014 -0.208336
O48   O     O_2   0.151209 0.310576 0.198690 -0.271459
O49   O     O_3   0.235250 0.398024 0.225268 -0.554332
H35   H     H_    0.215937 0.414787 0.166574 0.377213
S12   S     S_3+6 0.779353 0.678648 0.219004 0.066552
O50   O     O_2   0.765584 0.611020 0.220575 -0.260158
O51   O     O_2   0.741372 0.707356 0.139681 -0.202122
O52   O     O_3   0.859424 0.689261 0.199401 -0.511704
H36   H     H_    0.866258 0.733935 0.206958 0.381445
S13   S     S_3+6 0.437690 0.689886 0.601881 0.094529
O53   O     O_2   0.485794 0.701598 0.523697 -0.251078
O54   O     O_2   0.453279 0.731418 0.683614 -0.208283
O55   O     O_3   0.445051 0.616710 0.637820 -0.457292
H37   H     H_    0.448720 0.592348 0.578897 0.390822
S14   S     S_3+6 0.563301 0.309468 0.606230 0.092673
O56   O     O_2   0.515223 0.300772 0.527239 -0.193501
O57   O     O_2   0.546835 0.265801 0.684841 -0.267173
O58   O     O_3   0.556874 0.381817 0.646559 -0.457011
H38   H     H_    0.578726 0.381524 0.708985 0.377981
S15   S     S_3+6 0.714412 0.816043 0.782948 0.071805
O59   O     O_2   0.643205 0.804455 0.800359 -0.203909
O60   O     O_2   0.753168 0.788068 0.862104 -0.202616
O61   O     O_3   0.727341 0.892138 0.781726 -0.570084
H39   H     H_    0.772911 0.896947 0.759803 0.375439
S16   S     S_3+6 0.276235 0.176214 0.780008 0.065125
O62   O     O_2   0.346552 0.188724 0.802586 -0.214081
O63   O     O_2   0.234462 0.201462 0.858314 -0.207293
O64   O     O_3   0.265132 0.099975 0.773331 -0.567563
H40   H     H_    0.220608 0.094835 0.747512 0.376469
C101  C     C_2   0.882255 0.480651 0.744964 0.519937
H41   H     H_    0.866795 0.512517 0.691169 0.138721
O65   O     O_2   0.849744 0.434782 0.759601 -0.523274
C102  C     C_2   0.118407 0.515872 0.255049 0.496933
H42   H     H_    0.135287 0.480688 0.302499 0.119521
O66   O     O_2   0.150371 0.562666 0.245935 -0.514429
C103  C     C_2   0.117689 0.519657 0.744770 0.480384
H43   H     H_    0.133243 0.487878 0.690745 0.138048
O67   O     O_2   0.150050 0.565608 0.759586 -0.533115
C104  C     C_2   0.881517 0.484658 0.255212 0.539477
H44   H     H_    0.864167 0.520530 0.301281 0.116615
O68   O     O_2   0.849886 0.437564 0.247314 -0.521522
C105  C     C_2   0.381586 0.984180 0.744995 0.539692
H45   H     H_    0.364758 0.019303 0.697423 0.122842
O69   O     O_2   0.349567 0.937433 0.754284 -0.526674
C106  C     C_2   0.617741 0.019521 0.255026 0.494335
H46   H     H_    0.633094 0.987886 0.309204 0.129031
O70   O     O_2   0.650356 0.065268 0.239988 -0.513579
C107  C     C_2   0.618488 0.015455 0.744733 0.537206
H47   H     H_    0.635627 0.979905 0.697897 0.123675
O71   O     O_2   0.650310 0.062385 0.753313 -0.527003
C108  C     C_2   0.382283 0.980425 0.255195 0.494905
H48   H     H_    0.366815 0.012108 0.309398 0.128451
O72   O     O_2   0.349789 0.934590 0.240133 -0.511685

loop_
_geom_bond_atom_site_label_1
_geom_bond_atom_site_label_2
_geom_bond_distance
_ccdc_geom_bond_type
C78   C88   1.424209 A    
C78   C106  1.472367 S    
O22   H26   0.990220 S    
C8    C21   1.434312 S    
O5    Zn2   2.016615 S    
C58   H10   1.077572 S    
S5    O30   1.504922 D    
S5    O29   1.501697 D    
S10   O45   1.503955 D    
C14   C22   1.385539 A    
C67   S11   1.778524 S    
C23   C31   1.408548 A    
S16   O62   1.503004 D    
C74   N2    1.374341 A    
S8    O38   1.503450 D    
C77   C87   1.423274 A    
C73   N1    1.374457 A    
C12   C52   1.383783 A    
C27   S3    1.789098 S    
O10   C6    1.295215 A    
C94   H18   1.081471 S    
C99   H23   1.081423 S    
C7    C22   1.434246 S    
C87   C99   1.409084 A    
C60   H12   1.078333 S    
C93   H17   1.081080 S    
C54   C69   1.410762 A    
C97   H21   1.081462 S    
S4    O26   1.500577 D    
C70   S14   1.778472 S    
C39   C63   1.402015 A    
C53   C70   1.410685 A    
C89   C90   1.430023 A    
S1    O18   1.501614 D    
C65   S9    1.778003 S    
S14   O57   1.503767 D    
S10   O46   1.682884 S    
S15   O60   1.503525 D    
O46   H34   0.990761 S    
C41   C49   1.417779 A    
C46   C54   1.417805 A    
C104  O68   1.221002 D    
S13   O55   1.682873 S    
C29   C37   1.406408 A    
C106  H46   1.078994 S    
O13   C7    1.293189 A    
O3    C2    1.294921 A    
C20   C28   1.408819 A    
C105  H45   1.077228 S    
O14   C8    1.289728 A    
S9    O42   1.503591 D    
S6    O32   1.501607 D    
C82   C94   1.409020 A    
C32   C40   1.404351 A    
C74   C84   1.423402 A    
C77   N3    1.374272 A    
C73   C101  1.472103 S    
C41   C46   1.402654 A    
C38   C46   1.416326 A    
O64   H40   0.990460 S    
C62   H14   1.077588 S    
C106  O70   1.221148 D    
C75   C81   1.424047 A    
C35   C43   1.417307 A    
S11   O49   1.681889 S    
C75   C103  1.472060 S    
C103  H43   1.079030 S    
C36   C44   1.418214 A    
O13   Zn4   2.016615 S    
O11   Zn3   2.014701 S    
O14   Zn3   2.016612 S    
C15   C23   1.394623 A    
S2    O21   1.501606 D    
C61   C65   1.387770 A    
S7    O37   1.682387 S    
C39   C47   1.418240 A    
C24   C32   1.409237 A    
O16   Zn3   2.016350 S    
C95   H19   1.081057 S    
S10   O44   1.502952 D    
S7    O36   1.500768 D    
C25   C33   1.406170 A    
S11   O47   1.503562 D    
C63   H15   1.078406 S    
C80   C86   1.424047 A    
C83   C89   1.408590 A    
O1    Zn1   2.013555 S    
O8    Zn1   2.016350 S    
C103  O67   1.221157 D    
C42   C50   1.417659 A    
C59   H11   1.079205 S    
O1    C1    1.295256 A    
C33   C41   1.416354 A    
C31   S7    1.792287 S    
C88   C92   1.408542 A    
C21   C29   1.409244 A    
C10   C50   1.387381 A    
C9    C49   1.387112 A    
C107  O71   1.221006 D    
C26   S2    1.785305 S    
C97   C100  1.395156 A    
C61   H13   1.077677 S    
O8    C3    1.293292 A    
C10   C18   1.385619 A    
O49   H35   0.990514 S    
C84   C96   1.409091 A    
O52   H36   0.990590 S    
C30   C38   1.406019 A    
C44   C47   1.399613 A    
Zn2   N2    2.020442 S    
C72   S16   1.779543 S    
C38   C62   1.404827 A    
S2    O22   1.670784 S    
O2    Zn2   2.013555 S    
Zn4   N4    2.020442 S    
C45   C53   1.417641 A    
C37   C45   1.416541 A    
O28   H28   0.990131 S    
S14   O56   1.503079 D    
C73   C83   1.424167 A    
C69   S13   1.778616 S    
C34   C42   1.416448 A    
C85   C97   1.409047 A    
C108  H48   1.078958 S    
C62   C66   1.387565 A    
C19   C27   1.409248 A    
O12   C5    1.295409 A    
C58   C70   1.387631 A    
C80   N4    1.374465 A    
C83   C95   1.409802 A    
C9    C17   1.385526 A    
C105  O69   1.221018 D    
C1    C20   1.450940 S    
C64   C68   1.389092 A    
C60   C72   1.388436 A    
S9    O43   1.682482 S    
C33   C57   1.404915 A    
C2    C19   1.452179 S    
C76   C82   1.423191 A    
C101  H41   1.079034 S    
S12   O50   1.502877 D    
C3    C18   1.434425 S    
C93   C96   1.394993 A    
C5    C24   1.451384 S    
C35   C59   1.402047 A    
C76   N2    1.374137 A    
C85   C91   1.408874 A    
S3    O23   1.503926 D    
S12   O52   1.682021 S    
C86   C92   1.408557 A    
C36   C60   1.402046 A    
C15   C55   1.383740 A    
C26   C34   1.406020 A    
S3    O24   1.503082 D    
S13   O53   1.503948 D    
S3    O25   1.677923 S    
C84   C90   1.408868 A    
C16   H8    1.078224 S    
C68   S12   1.779142 S    
C15   H7    1.077993 S    
S6    O34   1.670759 S    
C40   C48   1.417807 A    
S2    O20   1.505032 D    
C43   C51   1.413485 A    
C74   C102  1.472335 S    
C55   C72   1.412592 A    
C22   C30   1.409113 A    
C28   S4    1.792304 S    
O4    C1    1.296033 A    
C13   C53   1.387071 A    
O15   C8    1.293456 A    
C12   H4    1.078163 S    
S12   O51   1.503558 D    
O34   H30   0.990027 S    
O16   C7    1.290012 A    
C79   N3    1.374276 A    
C12   C20   1.394698 A    
C101  O65   1.221161 D    
S5    O31   1.670664 S    
C37   C61   1.405077 A    
S1    O19   1.670739 S    
C31   C39   1.404113 A    
C17   C25   1.409135 A    
C91   C92   1.430019 A    
S16   O64   1.681782 S    
C29   S5    1.785581 S    
S15   O59   1.503015 D    
C52   C67   1.412662 A    
O31   H29   0.990167 S    
O9    Zn3   2.013555 S    
C27   C35   1.403000 A    
O25   H27   0.990638 S    
O10   Zn4   2.013555 S    
C28   C36   1.404293 A    
C104  H44   1.077771 S    
C86   C98   1.409705 A    
C42   C45   1.402655 A    
C102  O66   1.221014 D    
C57   C69   1.387666 A    
C59   C71   1.388038 A    
S4    O28   1.682385 S    
C32   S8    1.791700 S    
C81   C89   1.408558 A    
O2    C2    1.297360 A    
S14   O58   1.682768 S    
S16   O63   1.503518 D    
C63   C67   1.388561 A    
C100  H24   1.081056 S    
O4    Zn2   2.014701 S    
C107  H47   1.077873 S    
C79   C107  1.472451 S    
C94   C95   1.395088 A    
O5    C3    1.289912 A    
Zn3   N3    2.020441 S    
S7    O35   1.503456 D    
C48   C56   1.413719 A    
O6    C4    1.293540 A    
C43   C48   1.399265 A    
O11   C6    1.295960 A    
C76   C104  1.472045 S    
S8    O39   1.500788 D    
S8    O40   1.682236 S    
C30   S6    1.785494 S    
C75   N1    1.374425 A    
C13   C21   1.385529 A    
O43   H33   0.990582 S    
C87   C91   1.408824 A    
S4    O27   1.503466 D    
C88   C100  1.409817 A    
O40   H32   0.990212 S    
C96   H20   1.081259 S    
S1    O17   1.505085 D    
C66   S10   1.778616 S    
S15   O61   1.681783 S    
C9    H1    1.081224 S    
C4    C17   1.434578 S    
C40   C64   1.402358 A    
O9    C5    1.296199 A    
O15   Zn4   2.016347 S    
O7    Zn2   2.016347 S    
C98   H22   1.081083 S    
C11   H3    1.077989 S    
C79   C85   1.423352 A    
O58   H38   0.990702 S    
C11   C51   1.384467 A    
C102  H42   1.077426 S    
C14   H6    1.081301 S    
C11   C19   1.395341 A    
C57   H9    1.077573 S    
C50   C65   1.410750 A    
C25   S1    1.785405 S    
C44   C52   1.413673 A    
C71   S15   1.779268 S    
S9    O41   1.503402 D    
S6    O33   1.505111 D    
C18   C26   1.408936 A    
C16   C24   1.394816 A    
C98   C99   1.395010 A    
C56   C71   1.412229 A    
C51   C68   1.412640 A    
O6    Zn1   2.016612 S    
C16   C56   1.383133 A    
O3    Zn1   2.014701 S    
C47   C55   1.413742 A    
O55   H37   0.990758 S    
O12   Zn4   2.014701 S    
C77   C105  1.472256 S    
C10   H2    1.081303 S    
O7    C4    1.289889 A    
Zn1   N1    2.020441 S    
S11   O48   1.503653 D    
S13   O54   1.502942 D    
C14   C54   1.387286 A    
O19   H25   0.990000 S    
C80   C108  1.472165 S    
C13   H5    1.081356 S    
C81   C93   1.409680 A    
C64   H16   1.078457 S    
C108  O72   1.221154 D    
O61   H39   0.990459 S    
C82   C90   1.408828 A    
C6    C23   1.450686 S    
C78   N4    1.374628 A    
C49   C66   1.410783 A    
O37   H31   0.990131 S    
C34   C58   1.404874 A    
