data_mof_unit_18684.cif
_audit_creation_date              2012-12-11T16:04:44-0500
_audit_creation_method            fapswitch 2.2
_symmetry_space_group_name_H-M    P1
_symmetry_Int_Tables_number       1
_space_group_crystal_system       triclinic
_cell_length_a                    19.932193
_cell_length_b                    19.982735
_cell_length_c                    20.016695
_cell_angle_alpha                 107.470371
_cell_angle_beta                  110.39287
_cell_angle_gamma                 110.487757
_cell_volume                      6137.98955673

loop_
_atom_site_label
_atom_site_type_symbol
_atom_type_description
_atom_site_fract_x
_atom_site_fract_y
_atom_site_fract_z
_atom_type_partial_charge
C1    C     C_R   0.071044 0.347062 0.079078 0.527651
C2    C     C_R   0.068768 0.541787 0.235317 0.644723
C3    C     C_3   0.216579 0.162417 0.203420 -0.254206
C4    C     C_3   0.300323 0.437933 0.110906 -0.140197
C5    C     C_3   0.831746 0.270588 0.041067 -0.147971
C6    C     C_R   0.232782 0.722035 0.152721 0.545777
C7    C     C_R   0.930513 0.504828 0.774691 -0.139901
C8    C     C_R   0.785410 0.451596 0.020829 -0.112824
C9    C     C_R   0.281338 0.722959 0.221713 -0.338870
C10   C     C_R   0.752564 0.495314 0.995229 0.089741
C11   C     C_R   0.998412 0.524365 0.241994 -0.114603
C12   C     C_R   0.997545 0.742189 0.021182 -0.121170
C13   C     C_3   0.564473 0.601598 0.020841 -0.434699
C14   C     C_3   0.488186 0.537826 0.014170 0.520903
C15   C     C_R   0.998760 0.548836 0.772258 -0.123726
C16   C     C_1   0.361144 0.577034 0.074366 0.080722
C17   C     C_1   0.705709 0.522439 0.021922 -0.074606
C18   C     C_3   0.582487 0.662861 0.103104 0.489114
C19   C     C_R   0.805827 0.264427 0.832147 0.550040
C20   C     C_3   0.504926 0.599045 0.094921 -0.177622
C21   C     C_3   0.634095 0.632759 0.149290 0.324983
C22   C     C_3   0.615292 0.570815 0.067737 -0.025831
C23   C     C_3   0.555976 0.568091 0.139690 0.469996
C24   C     C_3   0.537071 0.505132 0.058259 -0.437738
C25   C     C_1   0.430791 0.595677 0.091801 0.112324
C26   C     C_R   0.779168 0.256982 0.754997 -0.307549
C27   C     C_1   0.667321 0.546738 0.045181 0.106357
C28   C     C_3   0.983604 0.497507 0.531002 0.216792
C29   C     C_3   0.078514 0.651055 0.606159 0.279388
C30   C     C_3   0.085226 0.638352 0.527296 0.905494
C31   C     C_R   0.227692 0.568165 0.998291 0.540830
C32   C     C_1   0.995259 0.547407 0.313960 -0.004758
C33   C     C_3   0.992737 0.580837 0.582623 -0.256243
C34   C     C_3   0.968456 0.485980 0.445935 0.371123
C35   C     C_3   0.993974 0.571870 0.449731 -0.333784
C36   C     C_3   0.925520 0.591729 0.455280 0.150393
C37   C     C_R   0.274730 0.543998 0.042846 -0.336874
C38   C     C_3   0.920805 0.591184 0.531496 0.294011
C39   C     C_1   0.993796 0.562629 0.375285 0.245448
C40   C     C_1   0.994012 0.581078 0.655308 0.127121
C41   C     C_1   0.996256 0.570866 0.711299 -0.059685
C42   C     C_3   0.528354 0.890822 0.479170 0.783447
C43   C     C_R   0.803046 0.334616 0.763860 0.561443
C44   C     C_3   0.471486 0.974641 0.423371 0.731962
C45   C     C_3   0.546564 0.058279 0.500624 0.696054
C46   C     C_1   0.727239 0.182642 0.681129 0.015512
C47   C     C_3   0.503529 0.912103 0.406537 -0.444014
C48   C     C_R   0.233644 0.653571 0.221454 0.549370
C49   C     C_3   0.589989 0.973214 0.560884 0.196779
C50   C     C_3   0.620923 0.045209 0.542175 -0.410316
C51   C     C_3   0.658567 0.024932 0.484966 0.789730
C52   C     C_3   0.582705 0.949553 0.396727 0.812084
C53   C     C_1   0.682067 0.120191 0.618866 0.304268
C54   C     C_1   0.432061 0.838340 0.333851 0.297678
C55   C     C_R   0.228194 0.498849 0.067508 0.555097
C56   C     C_1   0.365532 0.782458 0.279774 -0.055471
C57   C     C_3   0.074989 0.088866 0.087791 1.142309
C58   C     C_3   0.908899 0.005701 0.006436 0.199285
C59   C     C_R   0.785446 0.520922 0.951617 -0.106629
C60   C     C_3   0.913257 0.926828 0.992598 0.926419
C61   C     C_1   0.993545 0.813726 0.046082 -0.041943
C62   C     C_3   0.991767 0.083353 0.084953 -0.450006
C63   C     C_3   0.071098 0.006647 0.080219 -0.711977
C64   C     C_3   0.990138 0.949150 0.074800 -0.262607
C65   C     C_3   0.999207 0.999139 0.160187 0.760401
C66   C     C_3   0.990872 0.076962 0.162687 0.825071
C67   C     C_R   0.068269 0.574091 0.843177 0.542911
C68   C     C_1   0.990988 0.874678 0.063490 0.202819
C69   C     C_1   0.993276 0.156347 0.084813 0.244399
C70   C     C_R   0.929998 0.469710 0.165951 -0.256422
C71   C     C_1   0.997004 0.213522 0.076123 -0.000315
C72   C     C_R   0.933152 0.276819 0.009873 0.588426
C73   C     C_R   0.001581 0.275969 0.055652 -0.341415
C74   C     C_3   0.172038 0.340012 0.176237 -0.034158
C75   C     C_3   0.172415 0.860022 0.151608 -0.246960
C76   C     C_3   0.172422 0.658750 0.355297 -0.173182
C77   C     C_3   0.593253 0.515607 0.224788 -0.158870
C78   C     C_3   0.669572 0.786529 0.120775 -0.213362
C79   C     C_3   0.969600 0.368630 0.378164 -0.173048
C80   C     C_3   0.153937 0.775007 0.726688 -0.101041
C81   C     C_R   0.068219 0.735699 0.039816 0.642063
C82   C     C_3   0.221471 0.655878 0.576003 -0.091787
C83   C     C_3   0.083019 0.751869 0.504532 -0.265276
C84   C     C_3   0.818225 0.153234 0.823297 -0.176938
C85   C     C_3   0.848704 0.404974 0.501447 -0.225886
C86   C     C_3   0.581969 0.976080 0.676047 -0.114070
C87   C     C_3   0.390373 0.018229 0.349053 -0.118624
C88   C     C_3   0.283366 0.608887 0.926087 -0.064810
C89   C     C_3   0.660830 0.901136 0.347498 -0.095501
C90   C     C_3   0.513614 0.919617 0.256668 -0.125054
C91   C     C_3   0.791646 0.061187 0.589990 -0.266064
C92   C     C_R   0.929257 0.665819 0.967043 -0.207570
C93   C     C_3   0.521659 0.762958 0.419280 -0.032719
C94   C     C_3   0.747048 0.097752 0.443655 -0.193820
C95   C     C_3   0.151398 0.120689 0.021702 -0.287500
C96   C     C_3   0.782629 0.316255 0.637347 -0.180452
C97   C     C_3   0.915702 0.037066 0.899442 -0.030960
C98   C     C_3   0.869050 0.846976 0.852186 -0.074663
C99   C     C_3   0.806058 0.851724 0.017945 -0.286116
C100  C     C_3   0.061849 0.158310 0.307932 -0.109032
C101  C     C_3   0.900569 0.130293 0.169241 -0.274493
C102  C     C_3   0.086930 0.976698 0.258455 -0.238967
H1    H     H_    0.765482 0.549024 0.916694 0.097837
H2    H     H_    0.859735 0.540554 0.511705 0.054255
H3    H     H_    0.076843 0.221085 0.344303 0.121778
H4    H     H_    0.958151 0.191073 0.206284 0.167793
H5    H     H_    0.864019 0.129831 0.200246 0.158272
H6    H     H_    0.862509 0.122182 0.108530 0.174536
H7    H     H_    0.151936 0.989702 0.285070 0.139354
H8    H     H_    0.046151 0.910967 0.213620 0.164329
H9    H     H_    0.073052 0.990039 0.308423 0.149694
H10   H     H_    0.233779 0.129528 0.163345 0.104018
H11   H     H_    0.211821 0.138175 0.245665 0.208825
H12   H     H_    0.268615 0.226504 0.241316 0.157298
H13   H     H_    0.901588 0.444292 0.399309 0.057302
H14   H     H_    0.947466 0.981347 0.225481 0.326166
H15   H     H_    0.367731 0.481929 0.141613 0.170391
H16   H     H_    0.274446 0.400109 0.044646 0.092115
H17   H     H_    0.294557 0.395953 0.136894 0.137042
H18   H     H_    0.147668 0.655299 0.834633 0.292222
H19   H     H_    0.880506 0.305833 0.106611 0.107097
H20   H     H_    0.774833 0.226747 0.035749 0.148438
H21   H     H_    0.815769 0.309827 0.017617 0.146437
H22   H     H_    0.324218 0.654961 0.301270 0.312146
H23   H     H_    0.940617 0.652399 0.461936 0.187726
H24   H     H_    0.646053 0.970736 0.595466 0.116029
H25   H     H_    0.075321 0.976401 0.026591 0.242906
H26   H     H_    0.861213 0.998180 0.023601 0.140002
H27   H     H_    0.125450 0.014305 0.129566 0.204704
H28   H     H_    0.162903 0.288691 0.125270 0.116308
H29   H     H_    0.139993 0.318766 0.207612 0.152459
H30   H     H_    0.239331 0.377046 0.222159 0.146722
H31   H     H_    0.866827 0.439488 0.152418 0.142475
H32   H     H_    0.144164 0.836504 0.184842 0.092802
H33   H     H_    0.158009 0.906384 0.142274 0.146280
H34   H     H_    0.240697 0.891304 0.191018 0.181287
H35   H     H_    0.156419 0.653434 0.401890 0.181217
H36   H     H_    0.144440 0.689690 0.327077 0.084029
H37   H     H_    0.240901 0.698657 0.387455 0.191622
H38   H     H_    0.322199 0.801205 0.151950 0.307908
H39   H     H_    0.418733 0.455748 0.902032 0.319018
H40   H     H_    0.659312 0.550575 0.241859 0.183472
H41   H     H_    0.562298 0.452531 0.174993 0.119112
H42   H     H_    0.865970 0.651718 0.936147 0.143516
H43   H     H_    0.592961 0.511197 0.278628 0.159516
H44   H     H_    0.704896 0.715213 0.260928 0.328202
H45   H     H_    0.650637 0.763840 0.055512 0.133097
H46   H     H_    0.724510 0.782245 0.153713 0.171762
H47   H     H_    0.688691 0.851970 0.147378 0.160325
H48   H     H_    0.918913 0.349167 0.317363 0.108376
H49   H     H_    0.943812 0.340000 0.409919 0.157645
H50   H     H_    0.011068 0.346535 0.368532 0.155444
H51   H     H_    0.214143 0.788565 0.729362 0.107690
H52   H     H_    0.143889 0.743630 0.762682 0.110889
H53   H     H_    0.765214 0.416479 0.048737 0.089679
H54   H     H_    0.157117 0.833890 0.754729 0.155670
H55   H     H_    0.239288 0.704536 0.634690 0.100156
H56   H     H_    0.245343 0.683818 0.542909 0.164515
H57   H     H_    0.252340 0.621263 0.590021 0.136448
H58   H     H_    0.055534 0.766639 0.542197 0.210526
H59   H     H_    0.037660 0.717188 0.438381 0.122661
H60   H     H_    0.127852 0.811385 0.515175 0.178131
H61   H     H_    0.884302 0.191129 0.841491 0.074425
H62   H     H_    0.780322 0.111964 0.757047 0.091027
H63   H     H_    0.816228 0.113801 0.852280 0.200867
H64   H     H_    0.566941 0.612935 0.970514 0.161553
H65   H     H_    0.905596 0.654749 0.614164 0.321782
H66   H     H_    0.815743 0.489589 0.382907 0.301681
H67   H     H_    0.819523 0.405764 0.443789 0.092033
H68   H     H_    0.842032 0.443247 0.548931 0.140480
H69   H     H_    0.812918 0.341323 0.488360 0.164521
H70   H     H_    0.645575 0.027719 0.722834 0.151675
H71   H     H_    0.581390 0.917461 0.660067 0.089014
H72   H     H_    0.541567 0.975329 0.702722 0.166287
H73   H     H_    0.474015 0.830983 0.524502 0.322511
H74   H     H_    0.419431 0.076621 0.404329 0.138733
H75   H     H_    0.517625 0.439862 0.037537 0.161517
H76   H     H_    0.329402 0.974014 0.337090 0.156668
H77   H     H_    0.378027 0.031152 0.297248 0.127381
H78   H     H_    0.421751 0.948028 0.489826 0.387680
H79   H     H_    0.483021 0.102274 0.534510 0.331230
H80   H     H_    0.232732 0.549331 0.871251 0.092889
H81   H     H_    0.341300 0.607139 0.952632 0.134608
H82   H     H_    0.296625 0.655312 0.905618 0.158016
H83   H     H_    0.574307 0.101589 0.430363 0.375038
H84   H     H_    0.722137 0.922958 0.399096 0.163654
H85   H     H_    0.665517 0.942893 0.321389 0.109692
H86   H     H_    0.868534 0.491562 0.737108 0.181917
H87   H     H_    0.643877 0.842557 0.299428 0.163427
H88   H     H_    0.498397 0.856452 0.243520 0.142277
H89   H     H_    0.543732 0.935925 0.222177 0.135648
H90   H     H_    0.455038 0.920557 0.232263 0.175620
H91   H     H_    0.788970 0.055855 0.642571 0.124196
H92   H     H_    0.810072 0.124336 0.600705 0.154963
H93   H     H_    0.841930 0.050660 0.587318 0.162870
H94   H     H_    0.561726 0.735688 0.427983 0.149007
H95   H     H_    0.472254 0.731062 0.430585 0.110994
H96   H     H_    0.495258 0.750058 0.355212 0.141053
H97   H     H_    0.046368 0.505495 0.562879 0.155583
H98   H     H_    0.709790 0.078331 0.378379 0.171196
H99   H     H_    0.777840 0.062032 0.452258 0.137464
H100  H     H_    0.797634 0.161508 0.471927 0.142461
H101  H     H_    0.173944 0.078052 0.027232 0.140366
H102  H     H_    0.198693 0.184436 0.070119 0.166898
H103  H     H_    0.141933 0.119304 0.963218 0.163048
H104  H     H_    0.724512 0.257257 0.591605 0.220261
H105  H     H_    0.837633 0.308079 0.655343 0.110141
H106  H     H_    0.790199 0.354503 0.607326 0.147332
H107  H     H_    0.951568 0.007172 0.891822 0.200277
H108  H     H_    0.127378 0.643808 0.647073 0.009590
H109  H     H_    0.955272 0.104141 0.931663 0.140156
H110  H     H_    0.871551 0.020451 0.836928 0.080599
H111  H     H_    0.816278 0.858123 0.833348 0.170434
H112  H     H_    0.848164 0.785853 0.848284 0.158268
H113  H     H_    0.891504 0.847488 0.808740 0.115071
H114  H     H_    0.812570 0.908816 0.056927 0.199124
H115  H     H_    0.834000 0.824726 0.051848 0.209799
H116  H     H_    0.738319 0.807212 0.981486 0.162457
H117  H     H_    0.112464 0.150607 0.343957 0.162065
H118  H     H_    0.002968 0.115964 0.300763 0.121327
N1    N     N_R   0.043550 0.386750 0.043430 -0.133273
N2    N     N_R   0.843320 0.343600 0.886740 -0.135018
N3    N     N_R   0.156920 0.543410 0.000250 -0.141041
N4    N     N_R   0.843210 0.386780 0.843560 -0.126553
N5    N     N_R   0.157030 0.500230 0.043430 -0.139257
N6    N     N_R   0.043140 0.543420 0.886740 -0.089802
N7    N     N_R   0.957090 0.343580 0.000250 -0.154305
N8    N     N_R   0.156790 0.613220 0.156440 -0.132324
N9    N     N_R   0.842970 0.499770 0.956570 -0.041929
N10   N     N_R   0.956860 0.456580 0.113260 -0.091043
N11   N     N_R   0.042910 0.656420 0.999750 -0.091566
N12   N     N_R   0.956450 0.613250 0.956570 -0.078414
N13   N     N_R   0.043310 0.499740 0.156440 -0.088643
N14   N     N_R   0.156680 0.656400 0.113260 -0.133659
N15   N     N_R   0.843080 0.456590 0.999750 -0.048567
N16   N     N_R   0.956690 0.500260 0.843560 -0.086067
Ni1   Ni    Ni4+2 0.099270 0.499990 0.099040 0.299015
Ni2   Ni    Ni4+2 0.900730 0.500010 0.900960 0.202860
Ni3   Ni    Ni4+2 0.900990 0.400990 0.000000 0.184787
Ni4   Ni    Ni4+2 0.099010 0.599010 0.000000 0.307135
O1    O     O_3   0.147657 0.390178 0.150541 -0.553612
O2    O     O_3   0.087559 0.728488 0.645495 -0.559614
O3    O     O_3   0.134573 0.600836 0.526026 -0.626916
O4    O     O_3   0.127794 0.714180 0.528332 -0.633503
O5    O     O_3   0.784934 0.200809 0.849302 -0.561582
O6    O     O_3   0.926536 0.663952 0.577538 -0.690781
O7    O     O_3   0.847802 0.539779 0.382311 -0.746575
O8    O     O_3   0.932459 0.426074 0.530458 -0.600200
O9    O     O_3   0.551301 0.986901 0.607432 -0.559641
O10   O     O_3   0.456608 0.845439 0.480658 -0.759278
O11   O     O_3   0.443010 0.985127 0.353153 -0.617966
O12   O     O_3   0.149217 0.797941 0.076935 -0.561962
O13   O     O_3   0.402776 0.940532 0.434151 -0.748895
O14   O     O_3   0.522163 0.084552 0.557162 -0.683496
O15   O     O_3   0.259684 0.632268 0.984009 -0.536668
O16   O     O_3   0.573836 0.121930 0.481566 -0.755059
O17   O     O_3   0.599880 0.885319 0.370655 -0.610475
O18   O     O_3   0.566949 0.979770 0.339837 -0.650782
O19   O     O_3   0.715672 0.999537 0.517359 -0.613523
O20   O     O_3   0.572368 0.847742 0.474155 -0.620773
O21   O     O_3   0.698295 0.097730 0.480762 -0.639143
O22   O     O_3   0.074644 0.096561 0.019223 -0.665178
O23   O     O_3   0.150128 0.581700 0.297713 -0.571584
O24   O     O_3   0.775706 0.355689 0.704017 -0.622148
O25   O     O_3   0.868573 0.010371 0.934477 -0.601983
O26   O     O_3   0.935702 0.908197 0.931462 -0.647963
O27   O     O_3   0.834000 0.857746 0.963431 -0.655892
O28   O     O_3   0.060091 0.150526 0.234409 -0.588854
O29   O     O_3   0.914118 0.063885 0.160156 -0.681516
O30   O     O_3   0.080676 0.028717 0.224701 -0.635713
O31   O     O_3   0.143045 0.162450 0.161178 -0.616283
O32   O     O_3   0.938192 0.949374 0.171255 -0.822339
O33   O     O_3   0.258291 0.479068 0.127653 -0.539560
O34   O     O_3   0.262409 0.760483 0.114052 -0.644859
O35   O     O_3   0.145477 0.640228 0.876992 -0.703001
O36   O     O_3   0.854606 0.226328 0.993646 -0.569694
O37   O     O_3   0.264531 0.615940 0.260523 -0.647189
O38   O     O_3   0.410061 0.488044 0.943162 -0.761705
O39   O     O_3   0.549522 0.554860 0.203110 -0.620197
O40   O     O_3   0.712631 0.681916 0.219553 -0.744584
O41   O     O_3   0.602654 0.744730 0.129674 -0.616587
O42   O     O_3   0.016432 0.454396 0.424876 -0.549147

loop_
_geom_bond_atom_site_label_1
_geom_bond_atom_site_label_2
_ccdc_geom_bond_type
C95   H103  S    
C98   H113  S    
C101  H5    S    
C20   C25   S    
C82   H57   S    
C97   H110  S    
C74   H30   S    
C18   C21   S    
N5    Ni1   S    
C89   H84   S    
C35   C39   S    
C36   H23   S    
H83   O16   S    
C77   H41   S    
C102  H9    S    
C75   H32   S    
N6    N16   A    
C29   H108  S    
C90   H90   S    
C48   O37   S    
C79   O42   S    
C87   O11   S    
C49   H24   S    
C51   O21   S    
C99   O27   S    
C100  H3    S    
C85   H69   S    
C97   H107  S    
C13   C18   S    
C86   H70   S    
C4    O33   S    
C64   C68   S    
C21   C22   S    
C98   O26   S    
H39   O38   S    
C93   H96   S    
N3    Ni4   S    
C43   O24   S    
C82   H56   S    
C75   H33   S    
C44   O13   S    
C88   H82   S    
C99   H114  S    
C92   N12   A    
C10   C17   S    
C58   C60   S    
C38   O6    S    
C5    H19   S    
N2    Ni3   S    
C101  H4    S    
C3    O31   S    
C58   O25   S    
N10   N13   A    
C1    N1    A    
C34   C35   S    
C28   O8    S    
C32   C39   T    
C14   C24   S    
C69   C71   T    
C19   C26   A    
N13   Ni1   S    
C77   H40   S    
C38   H2    S    
C84   H63   S    
C2    N13   A    
C99   H115  S    
C74   O1    S    
C88   H80   S    
C95   O22   S    
C83   H58   S    
C35   C36   S    
C100  H117  S    
N16   Ni2   S    
C60   C64   S    
C72   N7    A    
C5    H21   S    
C13   C22   S    
C85   O8    S    
C42   O20   S    
C29   O2    S    
C20   C23   S    
C4    H17   S    
C80   H54   S    
C94   H100  S    
C29   C30   S    
C102  O30   S    
N8    N14   A    
C84   H62   S    
C44   C47   S    
C78   H46   S    
C45   O14   S    
C49   O9    S    
C14   O38   S    
C101  H6    S    
C7    C15   A    
C42   C49   S    
C6    N14   A    
C28   C34   S    
C29   C33   S    
C91   H91   S    
C30   O4    S    
C13   C14   S    
N12   Ni2   S    
C89   H85   S    
C4    H16   S    
N10   Ni3   S    
C19   N2    A    
C6    C9    A    
H44   O40   S    
C2    C11   A    
N4    Ni2   S    
C26   C43   A    
C57   C63   S    
C88   O15   S    
C90   H89   S    
C54   C56   T    
C57   O22   S    
C11   C70   A    
C28   H97   S    
N6    Ni4   S    
C62   C66   S    
C51   C52   S    
C50   C53   S    
C14   C20   S    
C7    H86   S    
C80   H51   S    
C89   O17   S    
C65   O32   S    
C3    H11   S    
C21   O40   S    
C94   H99   S    
C82   H55   S    
C23   O39   S    
C75   H34   S    
C98   H112  S    
C88   H81   S    
C98   H111  S    
C100  O28   S    
C67   N6    A    
C57   C62   S    
C95   H102  S    
C76   H35   S    
C101  O29   S    
C5    H20   S    
C85   H67   S    
C31   C37   A    
C62   C69   S    
N1    Ni1   S    
C84   O5    S    
C86   H72   S    
C17   C27   T    
C33   C40   S    
N9    N15   A    
C93   H95   S    
C70   N10   A    
C78   O41   S    
C15   C67   A    
C87   H74   S    
C70   H31   S    
C93   O20   S    
C91   H93   S    
C44   O11   S    
C96   H104  S    
C2    O23   S    
C99   H116  S    
C3    H10   S    
C23   C24   S    
C52   O18   S    
H66   O7    S    
C50   C51   S    
C82   O3    S    
C5    O36   S    
N14   Ni4   S    
N2    N4    A    
C65   O30   S    
C15   C41   S    
C8    H53   S    
C84   H61   S    
C1    O1    S    
C58   C62   S    
C47   C54   S    
C31   N3    A    
C78   H45   S    
C97   O25   S    
C40   C41   T    
C76   O23   S    
C11   C32   S    
C65   C66   S    
C30   O3    S    
C21   C23   S    
C22   C24   S    
C4    H15   S    
C102  H8    S    
C93   H94   S    
C81   O12   S    
C75   O12   S    
C90   O18   S    
C77   H43   S    
N7    Ni3   S    
N11   N12   A    
C66   O28   S    
C44   C45   S    
C19   O5    S    
H18   O35   S    
C79   H49   S    
C90   H88   S    
C76   H37   S    
C16   C25   T    
C91   H92   S    
C6    O34   S    
C51   O19   S    
C7    N16   A    
H22   O37   S    
C89   H87   S    
C97   H109  S    
C72   O36   S    
N15   Ni3   S    
C12   C92   A    
C8    C10   A    
C33   C38   S    
C16   C37   S    
C60   O26   S    
C72   C73   A    
C96   H105  S    
C3    H12   S    
C28   C33   S    
C18   C20   S    
H78   O13   S    
N3    N5    A    
C67   O35   S    
C80   H52   S    
C47   C52   S    
C76   H36   S    
C9    C56   S    
C30   C35   S    
N1    N7    A    
H38   O34   S    
C85   H68   S    
C31   O15   S    
C22   C27   S    
C86   H71   S    
C59   H1    S    
C64   C65   S    
C55   N5    A    
C74   H28   S    
C10   C59   A    
C34   H13   S    
C91   O19   S    
C1    C73   A    
N8    Ni1   S    
C79   H48   S    
C66   O29   S    
H14   O32   S    
C58   H26   S    
C87   H76   S    
C12   C61   S    
C61   C68   T    
C77   O39   S    
C13   H64   S    
C18   O41   S    
C100  H118  S    
C45   C50   S    
C86   O9    S    
C48   N8    A    
C52   O17   S    
C83   O4    S    
C46   C53   T    
C36   C38   S    
C80   O2    S    
C12   C81   A    
C43   N4    A    
C55   O33   S    
C34   O42   S    
C42   C47   S    
C63   H27   S    
H65   O6    S    
C83   H59   S    
C92   H42   S    
C96   H106  S    
H79   O14   S    
C26   C46   S    
C45   O16   S    
C87   H77   S    
C63   C64   S    
C37   C55   A    
C94   H98   S    
C94   O21   S    
C42   O10   S    
C9    C48   A    
C96   O24   S    
C49   C50   S    
C81   N11   A    
C83   H60   S    
C24   H75   S    
C36   O7    S    
C57   O31   S    
C8    N15   A    
N11   Ni4   S    
C102  H7    S    
C60   O27   S    
N9    Ni2   S    
C74   H29   S    
C95   H101  S    
C71   C73   S    
C63   H25   S    
H73   O10   S    
C78   H47   S    
C79   H50   S    
C59   N9    A    
