data_mof_unit_60576.cif
_audit_creation_date              2012-12-10T19:01:20-0500
_audit_creation_method            fapswitch 2.2
_symmetry_space_group_name_H-M    P1
_symmetry_Int_Tables_number       1
_space_group_crystal_system       triclinic
_cell_length_a                    15.894915
_cell_length_b                    14.258871
_cell_length_c                    13.382132
_cell_angle_alpha                 89.999729
_cell_angle_beta                  90.050575
_cell_angle_gamma                 89.997672
_cell_volume                      3032.97261911

loop_
_atom_site_label
_atom_site_type_symbol
_atom_type_description
_atom_site_fract_x
_atom_site_fract_y
_atom_site_fract_z
_atom_type_partial_charge
C1    C     C_R   0.500001 0.326575 0.500000 0.955243
C2    C     C_1   0.500000 0.499970 0.950478 -0.037763
C3    C     C_R   0.336143 0.501300 0.499944 0.938102
C4    C     C_R   0.663848 0.501100 0.500052 0.940149
C5    C     C_R   0.500007 0.673451 0.500000 0.909126
C6    C     C_3   0.051548 0.431521 0.597422 -0.083346
C7    C     C_3   0.050209 0.436857 0.397166 -0.118785
C8    C     C_3   0.950509 0.445501 0.605647 -0.116383
C9    C     C_3   0.948099 0.430291 0.404438 -0.056927
C10   C     C_1   0.751627 0.497704 0.500211 -0.134053
C11   C     C_1   0.248402 0.496693 0.499738 -0.127097
C12   C     C_1   0.500009 0.141359 0.499999 0.012264
C13   C     C_3   0.082757 0.488732 0.498900 0.040522
C14   C     C_3   0.917466 0.491567 0.500437 0.028837
C15   C     C_3   0.949773 0.598916 0.491254 0.199114
C16   C     C_3   0.050620 0.597366 0.499862 0.237445
C17   C     C_1   0.826118 0.494412 0.500419 0.045081
C18   C     C_1   0.173978 0.492317 0.499347 0.088606
C19   C     C_1   0.500005 0.225926 0.500000 -0.194762
C20   C     C_2   0.905501 0.355240 0.639243 1.013410
C21   C     C_2   0.909806 0.330493 0.412201 0.994874
C22   C     C_2   0.084719 0.329412 0.592401 0.990660
C23   C     C_1   0.500011 0.042299 0.499999 0.022916
C24   C     C_2   0.092479 0.342128 0.371511 0.951597
C25   C     C_1   0.500012 0.957736 0.499999 0.018526
C26   C     C_1   0.500012 0.858674 0.499999 -0.002351
C27   C     C_1   0.500010 0.774105 0.499999 -0.219316
C28   C     C_1   0.500000 0.499973 0.169450 0.087089
C29   C     C_1   0.500000 0.499973 0.830550 0.087130
C30   C     C_1   0.500000 0.499969 0.049522 -0.038018
H1    H     H_    0.896986 0.255056 0.745750 0.356106
H2    H     H_    0.933711 0.526034 0.280699 0.228424
H3    H     H_    0.865515 0.524834 0.691308 0.197568
H4    H     H_    0.964880 0.567682 0.698286 0.240369
H5    H     H_    0.061355 0.713619 0.595484 0.183556
H6    H     H_    0.142859 0.642405 0.599013 0.188258
H7    H     H_    0.093057 0.723924 0.436453 0.170545
H8    H     H_    0.063101 0.649987 0.349659 0.226824
H9    H     H_    0.846847 0.658164 0.566409 0.174006
H10   H     H_    0.928890 0.728782 0.559617 0.182259
H11   H     H_    0.856483 0.639643 0.390605 0.193459
H12   H     H_    0.804622 0.251478 0.397205 0.358160
H13   H     H_    0.938097 0.712296 0.393730 0.173285
H14   H     H_    0.186963 0.245399 0.605570 0.358746
H15   H     H_    0.095727 0.231501 0.276925 0.360206
H16   H     H_    0.140718 0.502473 0.308289 0.201582
H17   H     H_    0.059223 0.462632 0.242681 0.205943
H18   H     H_    0.071706 0.424045 0.751434 0.232356
H19   H     H_    0.091041 0.531919 0.711934 0.208983
H20   H     H_    0.914712 0.416068 0.253706 0.207489
N1    N     N_1   0.500000 0.499980 0.261870 -0.061408
N2    N     N_3   0.922092 0.641138 0.396058 -0.482037
N3    N     N_1   0.500000 0.499980 0.738130 -0.061449
N4    N     N_3   0.075248 0.494598 0.310556 -0.474176
N5    N     N_3   0.094471 0.462558 0.690522 -0.419666
N6    N     N_3   0.908011 0.465566 0.311051 -0.415580
N7    N     N_3   0.929414 0.507117 0.691060 -0.447006
N8    N     N_3   0.077179 0.642538 0.594071 -0.480470
N9    N     N_3   0.092356 0.652417 0.419070 -0.470546
N10   N     N_3   0.912478 0.658522 0.570581 -0.485002
O1    O     O_R   0.500000 0.373720 0.576470 -0.591272
O2    O     O_R   0.932366 0.311695 0.727550 -0.771457
O3    O     O_2   0.951025 0.260860 0.431514 -0.567853
O4    O     O_R   0.823879 0.319077 0.391658 -0.762365
O5    O     O_2   0.039306 0.261078 0.584068 -0.575523
O6    O     O_R   0.171088 0.314275 0.606842 -0.753158
O7    O     O_2   0.159792 0.319148 0.408087 -0.617018
O8    O     O_R   0.060971 0.289586 0.291265 -0.786818
O9    O     O_R   0.500000 0.373720 0.423530 -0.591802
O10   O     O_R   0.377150 0.500010 0.576490 -0.601277
O11   O     O_R   0.377150 0.500010 0.423510 -0.610406
O12   O     O_R   0.622850 0.500010 0.576490 -0.612301
O13   O     O_R   0.622850 0.500010 0.423510 -0.599156
O14   O     O_R   0.500000 0.626290 0.576440 -0.602241
O15   O     O_R   0.500000 0.626290 0.423560 -0.601442
O16   O     O_2   0.841767 0.326450 0.598518 -0.624649
Zn1   Zn    Zn3+2 0.500000 0.500010 0.602090 0.992381
Zn2   Zn    Zn3+2 0.500000 0.500010 0.397910 0.993682

loop_
_geom_bond_atom_site_label_1
_geom_bond_atom_site_label_2
_ccdc_geom_bond_type
C5    O15   A    
H4    N7    S    
N3    Zn1   S    
C9    C14   S    
C11   C18   T    
O12   Zn1   S    
H10   N10   S    
H3    N7    S    
C8    N7    S    
H18   N5    S    
H20   N6    S    
C15   N10   S    
H11   N2    S    
H14   O6    S    
C14   C17   S    
C2    C30   T    
C6    N5    S    
O13   Zn2   S    
C5    C27   S    
H16   N4    S    
H15   O8    S    
C28   C30   S    
C7    C24   S    
C26   C27   T    
N1    Zn2   S    
C22   O5    D    
C9    N6    S    
H7    N9    S    
C15   N2    S    
O10   Zn1   S    
H1    O2    S    
C9    C21   S    
O9    Zn2   S    
C8    C20   S    
C29   N3    T    
C13   C18   S    
H17   N4    S    
H9    N10   S    
C12   C19   T    
O15   Zn2   S    
C4    O13   A    
C16   N8    S    
H6    N8    S    
H5    N8    S    
C20   O2    S    
C14   C15   S    
C3    O11   A    
C28   N1    T    
C8    C14   S    
H13   N2    S    
C21   O3    D    
C3    C11   S    
C24   O8    S    
C10   C17   T    
C4    C10   S    
H8    N9    S    
C6    C22   S    
H12   O4    S    
O14   Zn1   S    
C4    O12   A    
C3    O10   A    
C2    C29   S    
C20   O16   D    
C23   C25   T    
C13   C16   S    
C7    N4    S    
C12   C23   S    
C7    C9    S    
C5    O14   A    
C22   O6    S    
C21   O4    S    
C6    C8    S    
C7    C13   S    
C24   O7    D    
C25   C26   S    
H19   N5    S    
C1    C19   S    
H2    N6    S    
O11   Zn2   S    
C1    O9    A    
C15   C16   S    
O1    Zn1   S    
C6    C13   S    
C16   N9    S    
C1    O1    A    
