data_mof_unit_62543.cif
_audit_creation_date              2013-03-05T15:57:29-0500
_audit_creation_method            fapswitch 2.2
_symmetry_space_group_name_H-M    P1
_symmetry_Int_Tables_number       1
_space_group_crystal_system       triclinic
_cell_length_a                    27.786845
_cell_length_b                    36.239786
_cell_length_c                    27.788788
_cell_angle_alpha                 89.991368
_cell_angle_beta                  89.999489
_cell_angle_gamma                 90.002327
_cell_volume                      27983.0122904

loop_
_atom_site_label
_atom_site_type_symbol
_atom_site_description
_atom_site_fract_x
_atom_site_fract_y
_atom_site_fract_z
_atom_type_partial_charge
Zn1   Zn    Zn3+2 0.539790 0.780710 0.210180 0.991791
Zn2   Zn    Zn3+2 0.539790 0.780710 0.789820 0.991652
Zn3   Zn    Zn3+2 0.539790 0.219290 0.789820 1.000586
Zn4   Zn    Zn3+2 0.539790 0.219290 0.210180 1.002203
Zn5   Zn    Zn3+2 0.539790 0.280710 0.710180 0.993687
Zn6   Zn    Zn3+2 0.539790 0.280710 0.289820 0.992430
Zn7   Zn    Zn3+2 0.539790 0.719290 0.289820 1.001624
Zn8   Zn    Zn3+2 0.539790 0.719290 0.710180 1.004560
Zn9   Zn    Zn3+2 0.039790 0.780710 0.710180 0.993471
Zn10  Zn    Zn3+2 0.039790 0.780710 0.289820 0.991775
Zn11  Zn    Zn3+2 0.039790 0.219290 0.289820 1.000235
Zn12  Zn    Zn3+2 0.039790 0.219290 0.710180 1.004354
Zn13  Zn    Zn3+2 0.039790 0.280710 0.210180 0.994520
Zn14  Zn    Zn3+2 0.039790 0.280710 0.789820 0.992308
Zn15  Zn    Zn3+2 0.039790 0.719290 0.789820 1.000992
Zn16  Zn    Zn3+2 0.039790 0.719290 0.210180 1.005234
Zn17  Zn    Zn3+2 0.460190 0.719300 0.210200 1.031086
Zn18  Zn    Zn3+2 0.460190 0.719300 0.789800 1.027116
Zn19  Zn    Zn3+2 0.460190 0.280700 0.789800 1.030443
Zn20  Zn    Zn3+2 0.460190 0.280700 0.210200 1.032212
Zn21  Zn    Zn3+2 0.460190 0.219300 0.710200 1.032622
Zn22  Zn    Zn3+2 0.460190 0.219300 0.289800 1.029818
Zn23  Zn    Zn3+2 0.460190 0.780700 0.289800 1.032005
Zn24  Zn    Zn3+2 0.460190 0.780700 0.710200 1.033530
Zn25  Zn    Zn3+2 0.960190 0.719300 0.710200 1.031881
Zn26  Zn    Zn3+2 0.960190 0.719300 0.289800 1.025987
Zn27  Zn    Zn3+2 0.960190 0.280700 0.289800 1.029650
Zn28  Zn    Zn3+2 0.960190 0.280700 0.710200 1.032843
Zn29  Zn    Zn3+2 0.960190 0.219300 0.210200 1.032439
Zn30  Zn    Zn3+2 0.960190 0.219300 0.789800 1.027534
Zn31  Zn    Zn3+2 0.960190 0.780700 0.789800 1.030708
Zn32  Zn    Zn3+2 0.960190 0.780700 0.210200 1.033554
O1    O     O_3   0.499990 0.750000 0.250000 -0.499556
O2    O     O_3   0.499990 0.750000 0.750000 -0.499251
O3    O     O_3   0.499990 0.250000 0.750000 -0.499553
O4    O     O_3   0.499990 0.250000 0.250000 -0.499477
O5    O     O_3   0.999990 0.750000 0.750000 -0.499517
O6    O     O_3   0.999990 0.750000 0.250000 -0.499164
O7    O     O_3   0.999990 0.250000 0.250000 -0.499485
O8    O     O_3   0.999990 0.250000 0.750000 -0.499298
O9    O     O_R   0.527870 0.668020 0.277880 -0.638760
O10   O     O_R   0.527870 0.668020 0.722120 -0.635851
O11   O     O_R   0.527870 0.331980 0.722120 -0.646366
O12   O     O_R   0.527870 0.331980 0.277880 -0.646078
O13   O     O_R   0.527870 0.168020 0.777880 -0.638793
O14   O     O_R   0.527870 0.168020 0.222120 -0.637927
O15   O     O_R   0.527870 0.831980 0.222120 -0.647804
O16   O     O_R   0.527870 0.831980 0.777880 -0.646456
O17   O     O_R   0.027870 0.668020 0.777880 -0.638416
O18   O     O_R   0.027870 0.668020 0.222120 -0.635118
O19   O     O_R   0.027870 0.331980 0.222120 -0.645608
O20   O     O_R   0.027870 0.331980 0.777880 -0.645918
O21   O     O_R   0.027870 0.168020 0.277880 -0.638714
O22   O     O_R   0.027870 0.168020 0.722120 -0.635884
O23   O     O_R   0.027870 0.831980 0.722120 -0.646406
O24   O     O_R   0.027870 0.831980 0.277880 -0.646159
O25   O     O_R   0.472130 0.728510 0.143730 -0.621206
O26   O     O_R   0.472130 0.728510 0.856270 -0.624831
O27   O     O_R   0.472130 0.271490 0.856270 -0.623499
O28   O     O_R   0.472130 0.271490 0.143730 -0.622507
O29   O     O_R   0.472130 0.228510 0.643730 -0.621168
O30   O     O_R   0.472130 0.228510 0.356270 -0.622794
O31   O     O_R   0.472130 0.771490 0.356270 -0.621950
O32   O     O_R   0.472130 0.771490 0.643730 -0.622417
O33   O     O_R   0.972130 0.728510 0.643730 -0.621732
O34   O     O_R   0.972130 0.728510 0.356270 -0.625518
O35   O     O_R   0.972130 0.271490 0.356270 -0.624166
O36   O     O_R   0.972130 0.271490 0.643730 -0.622935
O37   O     O_R   0.972130 0.228510 0.143730 -0.621214
O38   O     O_R   0.972130 0.228510 0.856270 -0.624787
O39   O     O_R   0.972130 0.771490 0.856270 -0.623480
O40   O     O_R   0.972130 0.771490 0.143730 -0.622473
O41   O     O_R   0.393720 0.728520 0.222140 -0.623690
O42   O     O_R   0.393720 0.728520 0.777860 -0.622728
O43   O     O_R   0.393720 0.271480 0.777860 -0.624607
O44   O     O_R   0.393720 0.271480 0.222140 -0.625173
O45   O     O_R   0.393720 0.228520 0.722140 -0.623241
O46   O     O_R   0.393720 0.228520 0.277860 -0.622831
O47   O     O_R   0.393720 0.771480 0.277860 -0.624977
O48   O     O_R   0.393720 0.771480 0.722140 -0.624759
O49   O     O_R   0.893720 0.728520 0.722140 -0.623420
O50   O     O_R   0.893720 0.728520 0.277860 -0.622672
O51   O     O_R   0.893720 0.271480 0.277860 -0.624296
O52   O     O_R   0.893720 0.271480 0.722140 -0.624907
O53   O     O_R   0.893720 0.228520 0.222140 -0.623728
O54   O     O_R   0.893720 0.228520 0.777860 -0.622539
O55   O     O_R   0.893720 0.771480 0.777860 -0.624479
O56   O     O_R   0.893720 0.771480 0.222140 -0.624923
O57   O     O_R   0.606280 0.728500 0.277860 -0.627734
O58   O     O_R   0.606280 0.728500 0.722140 -0.628122
O59   O     O_R   0.606280 0.271500 0.722140 -0.632811
O60   O     O_R   0.606280 0.271500 0.277860 -0.631955
O61   O     O_R   0.606280 0.228500 0.777860 -0.627761
O62   O     O_R   0.606280 0.228500 0.222140 -0.628347
O63   O     O_R   0.606280 0.771500 0.222140 -0.632336
O64   O     O_R   0.606280 0.771500 0.777860 -0.632479
O65   O     O_R   0.106280 0.728500 0.777860 -0.627860
O66   O     O_R   0.106280 0.728500 0.222140 -0.628306
O67   O     O_R   0.106280 0.271500 0.222140 -0.632865
O68   O     O_R   0.106280 0.271500 0.777860 -0.632404
O69   O     O_R   0.106280 0.228500 0.277860 -0.627931
O70   O     O_R   0.106280 0.228500 0.722140 -0.628177
O71   O     O_R   0.106280 0.771500 0.722140 -0.632810
O72   O     O_R   0.106280 0.771500 0.277860 -0.632257
O73   O     O_R   0.527850 0.771500 0.143710 -0.635235
O74   O     O_R   0.527850 0.771500 0.856290 -0.634484
O75   O     O_R   0.527850 0.228500 0.856290 -0.632157
O76   O     O_R   0.527850 0.228500 0.143710 -0.631599
O77   O     O_R   0.527850 0.271500 0.643710 -0.633933
O78   O     O_R   0.527850 0.271500 0.356290 -0.634930
O79   O     O_R   0.527850 0.728500 0.356290 -0.632256
O80   O     O_R   0.527850 0.728500 0.643710 -0.631160
O81   O     O_R   0.027850 0.771500 0.643710 -0.633771
O82   O     O_R   0.027850 0.771500 0.356290 -0.634298
O83   O     O_R   0.027850 0.228500 0.356290 -0.631799
O84   O     O_R   0.027850 0.228500 0.643710 -0.630977
O85   O     O_R   0.027850 0.271500 0.143710 -0.633409
O86   O     O_R   0.027850 0.271500 0.856290 -0.634131
O87   O     O_R   0.027850 0.728500 0.856290 -0.631857
O88   O     O_R   0.027850 0.728500 0.143710 -0.630905
O89   O     O_R   0.472140 0.668020 0.222150 -0.602829
O90   O     O_R   0.472140 0.668020 0.777850 -0.609403
O91   O     O_R   0.472140 0.331980 0.777850 -0.603349
O92   O     O_R   0.472140 0.331980 0.222150 -0.601870
O93   O     O_R   0.472140 0.168020 0.722150 -0.603048
O94   O     O_R   0.472140 0.168020 0.277850 -0.605206
O95   O     O_R   0.472140 0.831980 0.277850 -0.601112
O96   O     O_R   0.472140 0.831980 0.722150 -0.601984
O97   O     O_R   0.972140 0.668020 0.722150 -0.603335
O98   O     O_R   0.972140 0.668020 0.277850 -0.610911
O99   O     O_R   0.972140 0.331980 0.277850 -0.604249
O100  O     O_R   0.972140 0.331980 0.722150 -0.602344
O101  O     O_R   0.972140 0.168020 0.222150 -0.602966
O102  O     O_R   0.972140 0.168020 0.777850 -0.609239
O103  O     O_R   0.972140 0.831980 0.777850 -0.603301
O104  O     O_R   0.972140 0.831980 0.222150 -0.601967
C1    C     C_R   0.499997 0.650365 0.250000 0.819489
C2    C     C_R   0.500010 0.650365 0.750023 0.823276
C3    C     C_R   0.500020 0.349635 0.750012 0.826794
C4    C     C_R   0.500000 0.349635 0.249990 0.826007
C5    C     C_R   0.500002 0.150364 0.749998 0.819570
C6    C     C_R   0.499999 0.150366 0.250013 0.820900
C7    C     C_R   0.500008 0.849634 0.250005 0.826073
C8    C     C_R   0.499998 0.849634 0.749987 0.826021
C9    C     C_R   0.999999 0.650364 0.749999 0.819505
C10   C     C_R   0.000012 0.650365 0.250026 0.824016
C11   C     C_R   0.000024 0.349635 0.250013 0.826969
C12   C     C_R   0.999999 0.349635 0.749989 0.825973
C13   C     C_R   0.999996 0.150364 0.250002 0.819105
C14   C     C_R   0.000009 0.150366 0.750023 0.823108
C15   C     C_R   0.000020 0.849634 0.750012 0.826703
C16   C     C_R   0.999997 0.849635 0.249991 0.825610
C17   C     C_R   0.499988 0.750002 0.120633 0.824444
C18   C     C_R   0.499985 0.750000 0.879367 0.822832
C19   C     C_R   0.499988 0.249998 0.879367 0.823523
C20   C     C_R   0.499985 0.249999 0.120633 0.825590
C21   C     C_R   0.499988 0.250002 0.620633 0.825721
C22   C     C_R   0.499985 0.250000 0.379367 0.823414
C23   C     C_R   0.499988 0.749998 0.379367 0.824747
C24   C     C_R   0.499985 0.749999 0.620633 0.826717
C25   C     C_R   0.999988 0.750002 0.620633 0.825534
C26   C     C_R   0.999985 0.750000 0.379367 0.822536
C27   C     C_R   0.999988 0.249997 0.379367 0.823091
C28   C     C_R   0.999985 0.249999 0.620633 0.826476
C29   C     C_R   0.999988 0.250002 0.120633 0.826388
C30   C     C_R   0.999985 0.250000 0.879367 0.823040
C31   C     C_R   0.999988 0.749997 0.879367 0.823776
C32   C     C_R   0.999985 0.749999 0.120633 0.827151
C33   C     C_R   0.370630 0.750000 0.250000 0.825620
C34   C     C_R   0.370628 0.749999 0.750000 0.829195
C35   C     C_R   0.370630 0.250000 0.750000 0.827227
C36   C     C_R   0.370628 0.250000 0.250000 0.827639
C37   C     C_R   0.870630 0.750000 0.749999 0.827444
C38   C     C_R   0.870628 0.749999 0.250000 0.829546
C39   C     C_R   0.870630 0.250000 0.249999 0.827422
C40   C     C_R   0.870628 0.249999 0.750000 0.829428
C41   C     C_R   0.629365 0.750000 0.249999 0.825663
C42   C     C_R   0.629363 0.750000 0.750000 0.824736
C43   C     C_R   0.629365 0.250000 0.750000 0.824415
C44   C     C_R   0.629363 0.250000 0.250001 0.824953
C45   C     C_R   0.129365 0.750000 0.750000 0.824137
C46   C     C_R   0.129363 0.750000 0.250000 0.824620
C47   C     C_R   0.129365 0.250001 0.250000 0.823772
C48   C     C_R   0.129363 0.250000 0.750000 0.824448
C49   C     C_1   0.681104 0.750001 0.249999 -0.125845
C50   C     C_1   0.681103 0.750001 0.750001 -0.124927
C51   C     C_1   0.681104 0.250001 0.749999 -0.125993
C52   C     C_1   0.681103 0.250001 0.250001 -0.125468
C53   C     C_1   0.181104 0.750001 0.749999 -0.126179
C54   C     C_1   0.181103 0.750001 0.250001 -0.124886
C55   C     C_1   0.181104 0.250001 0.249999 -0.126472
C56   C     C_1   0.181103 0.250001 0.750001 -0.124941
C57   C     C_1   0.724546 0.750001 0.249999 0.024002
C58   C     C_1   0.724546 0.750001 0.750000 0.024226
C59   C     C_1   0.724546 0.250001 0.750000 0.023737
C60   C     C_1   0.724546 0.250000 0.250001 0.023843
C61   C     C_1   0.224546 0.750001 0.750000 0.023495
C62   C     C_1   0.224546 0.750001 0.250001 0.023978
C63   C     C_1   0.224546 0.250001 0.250000 0.023086
C64   C     C_1   0.224546 0.250001 0.750001 0.024132
C65   C     C_1   0.775447 0.750000 0.250000 0.029394
C66   C     C_1   0.775448 0.750001 0.750000 0.029251
C67   C     C_1   0.775447 0.250000 0.750001 0.029330
C68   C     C_1   0.775448 0.250000 0.250000 0.028887
C69   C     C_1   0.275447 0.750000 0.750001 0.029110
C70   C     C_1   0.275448 0.750000 0.250000 0.028667
C71   C     C_1   0.275447 0.250000 0.250001 0.028607
C72   C     C_1   0.275447 0.250000 0.750000 0.029169
C73   C     C_1   0.818889 0.749999 0.250001 -0.111387
C74   C     C_1   0.818890 0.750000 0.749999 -0.111412
C75   C     C_1   0.818889 0.249999 0.750001 -0.111269
C76   C     C_1   0.818890 0.250000 0.249999 -0.111764
C77   C     C_1   0.318889 0.749999 0.750001 -0.111402
C78   C     C_1   0.318890 0.750000 0.249999 -0.111881
C79   C     C_1   0.318889 0.249999 0.250001 -0.111628
C80   C     C_1   0.318890 0.250000 0.749999 -0.111401
C81   C     C_3   0.545411 0.977755 0.229556 0.204979
C82   C     C_3   0.543662 0.977763 0.773971 0.204070
C83   C     C_3   0.542145 0.021008 0.775741 0.250721
C84   C     C_3   0.543564 0.020942 0.226643 0.259927
C85   C     C_3   0.548733 0.477747 0.741035 0.203384
C86   C     C_3   0.542536 0.477788 0.276055 0.203501
C87   C     C_3   0.540913 0.521039 0.277715 0.249895
C88   C     C_3   0.547658 0.520932 0.737746 0.260508
C89   C     C_3   0.048651 0.977747 0.740542 0.203420
C90   C     C_3   0.041689 0.977770 0.277363 0.203919
C91   C     C_3   0.040025 0.021018 0.278998 0.250374
C92   C     C_3   0.047542 0.020933 0.737266 0.260642
C93   C     C_3   0.049146 0.477745 0.244419 0.203191
C94   C     C_3   0.043180 0.477778 0.774909 0.203209
C95   C     C_3   0.041611 0.521027 0.776626 0.250401
C96   C     C_3   0.048302 0.520931 0.241060 0.260825
C97   C     C_3   0.492771 0.977731 0.303957 0.076870
C98   C     C_3   0.498630 0.978662 0.694624 0.071440
C99   C     C_3   0.494471 0.021966 0.695407 0.052604
C100  C     C_3   0.493496 0.021175 0.305416 0.056496
C101  C     C_3   0.479580 0.477747 0.800412 0.078471
C102  C     C_3   0.501417 0.478664 0.194606 0.072077
C103  C     C_3   0.497185 0.521965 0.195171 0.053380
C104  C     C_3   0.479930 0.521191 0.801980 0.058167
C105  C     C_3   0.980113 0.977746 0.800620 0.078433
C106  C     C_3   0.003210 0.978667 0.194638 0.072216
C107  C     C_3   0.998988 0.021969 0.195082 0.053624
C108  C     C_3   0.980478 0.021190 0.802186 0.058095
C109  C     C_3   0.976036 0.477751 0.298842 0.078947
C110  C     C_3   0.999868 0.478663 0.694606 0.072614
C111  C     C_3   0.995669 0.521965 0.695291 0.053922
C112  C     C_3   0.976274 0.521195 0.300424 0.058852
H1    H     H_    0.526441 0.968832 0.322431 0.161320
H2    H     H_    0.535226 0.972371 0.680566 0.143327
H3    H     H_    0.526542 0.032067 0.676146 0.093804
H4    H     H_    0.526732 0.028752 0.324495 0.082306
H5    H     H_    0.507749 0.468854 0.826522 0.162039
H6    H     H_    0.538664 0.472388 0.182360 0.142628
H7    H     H_    0.530137 0.532080 0.177476 0.092854
H8    H     H_    0.507526 0.528776 0.828569 0.083843
H9    H     H_    0.008548 0.968853 0.826440 0.161970
H10   H     H_    0.040826 0.972381 0.183585 0.142296
H11   H     H_    0.032503 0.032077 0.178469 0.092513
H12   H     H_    0.008345 0.028774 0.828489 0.083819
H13   H     H_    0.002321 0.468861 0.326848 0.162011
H14   H     H_    0.036766 0.472382 0.681349 0.142199
H15   H     H_    0.028137 0.532075 0.676716 0.092442
H16   H     H_    0.001953 0.528783 0.328865 0.083979
C113  C     C_1   0.999500 0.610863 0.249911 -0.066722
C114  C     C_1   0.999510 0.610859 0.750136 -0.067048
C115  C     C_1   0.999817 0.389141 0.749774 -0.074844
C116  C     C_1   0.999348 0.389135 0.249560 -0.074360
C117  C     C_1   0.999559 0.110863 0.749978 -0.066690
C118  C     C_1   0.999550 0.110859 0.250087 -0.067385
C119  C     C_1   0.999865 0.889141 0.249725 -0.075035
C120  C     C_1   0.999381 0.889135 0.749618 -0.074564
C121  C     C_1   0.499552 0.610862 0.749968 -0.066740
C122  C     C_1   0.499525 0.610860 0.250110 -0.067206
C123  C     C_1   0.499850 0.389142 0.249755 -0.074726
C124  C     C_1   0.499377 0.389136 0.749609 -0.074528
C125  C     C_1   0.499746 0.110864 0.250174 -0.067210
C126  C     C_1   0.499505 0.110857 0.750155 -0.067244
C127  C     C_1   0.499785 0.889139 0.749785 -0.075171
C128  C     C_1   0.499498 0.889135 0.249800 -0.075053
C129  C     C_3   0.496635 0.963091 0.250885 -0.132668
C130  C     C_3   0.497402 0.963101 0.747705 -0.127149
C131  C     C_3   0.496373 0.036953 0.748623 -0.175188
C132  C     C_3   0.497043 0.036953 0.252365 -0.175806
C133  C     C_3   0.496231 0.463091 0.749878 -0.133644
C134  C     C_3   0.497616 0.463107 0.247567 -0.127134
C135  C     C_3   0.496498 0.536959 0.248411 -0.174741
C136  C     C_3   0.496279 0.536952 0.751374 -0.177572
C137  C     C_3   0.996245 0.963090 0.749921 -0.133628
C138  C     C_3   0.997704 0.963104 0.247446 -0.127237
C139  C     C_3   0.996586 0.036956 0.248277 -0.174922
C140  C     C_3   0.996307 0.036953 0.751420 -0.177562
C141  C     C_3   0.996159 0.463090 0.249593 -0.134024
C142  C     C_3   0.997501 0.463105 0.747650 -0.127348
C143  C     C_3   0.996424 0.536956 0.748532 -0.175199
C144  C     C_3   0.996102 0.536953 0.251079 -0.177971
C145  C     C_3   0.964223 0.522337 0.208176 0.021760
C146  C     C_3   0.951208 0.521583 0.776911 0.023435
C147  C     C_3   0.952337 0.477988 0.776008 0.003158
C148  C     C_3   0.967012 0.478885 0.205127 0.009968
C149  C     C_3   0.961107 0.022340 0.711193 0.021927
C150  C     C_3   0.949765 0.021584 0.273922 0.023749
C151  C     C_3   0.950940 0.977989 0.273080 0.003141
C152  C     C_3   0.963645 0.978889 0.707923 0.010180
C153  C     C_3   0.461490 0.522340 0.710788 0.022070
C154  C     C_3   0.450534 0.521582 0.275559 0.023362
C155  C     C_3   0.451697 0.477987 0.274691 0.003115
C156  C     C_3   0.464063 0.478888 0.707545 0.010262
C157  C     C_3   0.453431 0.022346 0.221452 0.021959
C158  C     C_3   0.451770 0.021586 0.777962 0.024160
C159  C     C_3   0.452864 0.977991 0.777030 0.003642
C160  C     C_3   0.455139 0.978899 0.217656 0.009829
C161  C     C_1   0.998276 0.577642 0.250292 0.132206
C162  C     C_1   0.998358 0.577637 0.749719 0.133897
C163  C     C_1   0.999006 0.422366 0.748967 0.140642
C164  C     C_1   0.998092 0.422356 0.249365 0.138167
C165  C     C_1   0.998402 0.077642 0.750466 0.131729
C166  C     C_1   0.998446 0.077636 0.249587 0.133409
C167  C     C_1   0.999119 0.922366 0.248851 0.140403
C168  C     C_1   0.998146 0.922357 0.749531 0.137613
C169  C     C_1   0.498385 0.577640 0.750442 0.131765
C170  C     C_1   0.498392 0.577638 0.249651 0.133599
C171  C     C_1   0.499081 0.422368 0.248925 0.140659
C172  C     C_1   0.498138 0.422358 0.749508 0.137672
C173  C     C_1   0.498830 0.077641 0.250955 0.130194
C174  C     C_1   0.498342 0.077634 0.749770 0.133115
C175  C     C_1   0.498935 0.922363 0.748992 0.140319
C176  C     C_1   0.498370 0.922358 0.250034 0.136178
H17   H     H_    0.466532 0.972643 0.180055 0.071615
H18   H     H_    0.459373 0.969492 0.815085 0.093655
H19   H     H_    0.457461 0.029767 0.816208 0.080441
H20   H     H_    0.459173 0.032597 0.184014 0.101457
H21   H     H_    0.484257 0.472620 0.673845 0.072846
H22   H     H_    0.456355 0.469497 0.313020 0.094715
H23   H     H_    0.454361 0.529769 0.314033 0.081603
H24   H     H_    0.476170 0.532580 0.675867 0.102844
H25   H     H_    0.983490 0.972620 0.674018 0.072857
H26   H     H_    0.954357 0.969490 0.311536 0.094688
H27   H     H_    0.952351 0.029764 0.312502 0.081526
H28   H     H_    0.975425 0.032580 0.676123 0.102858
H29   H     H_    0.989496 0.472612 0.172912 0.073604
H30   H     H_    0.958029 0.469494 0.814195 0.095408
H31   H     H_    0.956075 0.529768 0.815268 0.082333
H32   H     H_    0.981293 0.532573 0.174357 0.103546
H33   H     H_    0.547744 0.966823 0.191868 0.065307
H34   H     H_    0.541614 0.967276 0.811894 0.059853
H35   H     H_    0.535180 0.026982 0.814412 0.096990
H36   H     H_    0.537286 0.026263 0.187677 0.093133
H37   H     H_    0.560152 0.466807 0.705048 0.067945
H38   H     H_    0.538645 0.467305 0.313833 0.060733
H39   H     H_    0.532086 0.527023 0.316002 0.097548
H40   H     H_    0.551051 0.526246 0.698421 0.095238
H41   H     H_    0.059701 0.966808 0.704438 0.067957
H42   H     H_    0.036588 0.967280 0.314995 0.060483
H43   H     H_    0.029964 0.026993 0.316981 0.097292
H44   H     H_    0.050531 0.026247 0.697910 0.095220
H45   H     H_    0.063037 0.466805 0.209311 0.068847
H46   H     H_    0.040315 0.467294 0.812779 0.061339
H47   H     H_    0.033820 0.527007 0.815137 0.098019
H48   H     H_    0.054422 0.526242 0.202067 0.095890
C177  C     C_1   0.499982 0.750004 0.431107 -0.118461
C178  C     C_1   0.499975 0.750009 0.568893 -0.117909
C179  C     C_1   0.499983 0.249996 0.568893 -0.120490
C180  C     C_1   0.499976 0.249991 0.431107 -0.122341
C181  C     C_1   0.499982 0.250004 0.931107 -0.120285
C182  C     C_1   0.499976 0.250009 0.068893 -0.119342
C183  C     C_1   0.499983 0.749996 0.068893 -0.122219
C184  C     C_1   0.499976 0.749990 0.931107 -0.124426
C185  C     C_1   0.999982 0.750004 0.931107 -0.119588
C186  C     C_1   0.999975 0.750008 0.068893 -0.117910
C187  C     C_1   0.999983 0.249996 0.068893 -0.120286
C188  C     C_1   0.999976 0.249991 0.931107 -0.123502
C189  C     C_1   0.999982 0.250004 0.431107 -0.120469
C190  C     C_1   0.999975 0.250008 0.568893 -0.118768
C191  C     C_1   0.999983 0.749996 0.568893 -0.121409
C192  C     C_1   0.999976 0.749991 0.431107 -0.124675
C193  C     C_1   0.499977 0.750009 0.474549 0.026594
C194  C     C_1   0.499974 0.750011 0.525451 0.026940
C195  C     C_1   0.499978 0.249991 0.525451 0.024275
C196  C     C_1   0.499975 0.249988 0.474549 0.023381
C197  C     C_1   0.499977 0.250009 0.974549 0.024707
C198  C     C_1   0.499974 0.250011 0.025451 0.025252
C199  C     C_1   0.499979 0.749991 0.025451 0.022307
C200  C     C_1   0.499975 0.749988 0.974549 0.021350
C201  C     C_1   0.999977 0.750008 0.974549 0.025698
C202  C     C_1   0.999974 0.750011 0.025451 0.026587
C203  C     C_1   0.999978 0.249991 0.025451 0.024140
C204  C     C_1   0.999975 0.249988 0.974549 0.022662
C205  C     C_1   0.999977 0.250008 0.474549 0.024733
C206  C     C_1   0.999974 0.250011 0.525451 0.025638
C207  C     C_1   0.999978 0.749991 0.525451 0.022922
C208  C     C_1   0.999975 0.749988 0.474549 0.021458
O105  O     O_3   0.089216 0.539178 0.261185 -0.575979
C209  C     C_3   0.088121 0.544690 0.311345 -0.163593
H49   H     H_    0.079592 0.519316 0.331799 0.195463
H50   H     H_    0.063897 0.567870 0.320906 0.136787
H51   H     H_    0.124694 0.553118 0.322930 0.187466
O106  O     O_3   0.087071 0.539018 0.771514 -0.576841
C210  C     C_3   0.104189 0.542583 0.724055 -0.145929
H52   H     H_    0.100415 0.517082 0.702482 0.184027
H53   H     H_    0.143306 0.548499 0.725806 0.194840
H54   H     H_    0.087353 0.566715 0.706176 0.138371
O107  O     O_3   0.085817 0.464566 0.752470 -0.600181
C211  C     C_3   0.121169 0.455611 0.787008 -0.175327
H55   H     H_    0.110235 0.430801 0.807872 0.149077
H56   H     H_    0.128407 0.479152 0.811664 0.195363
H57   H     H_    0.155190 0.448990 0.768008 0.200028
O108  O     O_3   0.077766 0.465234 0.283559 -0.605958
C212  C     C_3   0.124161 0.454901 0.267911 -0.187619
H58   H     H_    0.146538 0.448626 0.299931 0.193954
H59   H     H_    0.142062 0.477595 0.247739 0.202998
H60   H     H_    0.122340 0.429539 0.245460 0.151225
O109  O     O_3   0.089930 0.039180 0.754065 -0.576024
C213  C     C_3   0.092839 0.044692 0.804153 -0.161398
H61   H     H_    0.085973 0.019317 0.825221 0.195107
H62   H     H_    0.069450 0.067869 0.815616 0.136234
H63   H     H_    0.130218 0.053124 0.812784 0.188537
O110  O     O_3   0.085712 0.039004 0.276599 -0.577187
C214  C     C_3   0.105610 0.042587 0.230239 -0.145431
H64   H     H_    0.103130 0.017091 0.208470 0.184028
H65   H     H_    0.144552 0.048510 0.234307 0.194797
H66   H     H_    0.089855 0.066722 0.211405 0.138665
O111  O     O_3   0.085578 0.964561 0.257479 -0.599613
C215  C     C_3   0.118805 0.955552 0.294041 -0.176751
H67   H     H_    0.106627 0.930725 0.314170 0.148919
H68   H     H_    0.124579 0.979062 0.319126 0.194451
H69   H     H_    0.153890 0.948932 0.277086 0.200133
O112  O     O_3   0.080299 0.965234 0.777277 -0.606061
C216  C     C_3   0.125299 0.954901 0.757982 -0.185918
H70   H     H_    0.150156 0.948625 0.788117 0.195310
H71   H     H_    0.141537 0.977595 0.736450 0.202305
H72   H     H_    0.121694 0.929539 0.735747 0.151165
O113  O     O_3   0.589871 0.539178 0.754979 -0.576197
C217  C     C_3   0.592266 0.544692 0.805095 -0.160916
H73   H     H_    0.585183 0.519318 0.826092 0.195212
H74   H     H_    0.568760 0.567868 0.816317 0.136231
H75   H     H_    0.629555 0.553126 0.814111 0.188676
O114  O     O_3   0.586486 0.539042 0.273821 -0.577657
C218  C     C_3   0.604888 0.542579 0.226842 -0.144733
H76   H     H_    0.601687 0.517071 0.205190 0.184272
H77   H     H_    0.643946 0.548483 0.229650 0.195196
H78   H     H_    0.588556 0.566709 0.208496 0.138753
O115  O     O_3   0.585770 0.464568 0.254799 -0.599681
C219  C     C_3   0.620234 0.455769 0.290293 -0.175451
H79   H     H_    0.608834 0.430995 0.310978 0.148802
H80   H     H_    0.626758 0.479384 0.315027 0.194837
H81   H     H_    0.654762 0.449162 0.272219 0.200419
O116  O     O_3   0.580001 0.465236 0.778094 -0.605977
C220  C     C_3   0.625195 0.454899 0.759262 -0.185645
H82   H     H_    0.649744 0.448622 0.789651 0.195497
H83   H     H_    0.641654 0.477592 0.737895 0.202221
H84   H     H_    0.621816 0.429536 0.736991 0.151012
O117  O     O_3   0.588701 0.039191 0.233094 -0.577245
C221  C     C_3   0.603208 0.044708 0.281122 -0.156325
H85   H     H_    0.601464 0.019329 0.303205 0.194404
H86   H     H_    0.583120 0.067874 0.297726 0.135323
H87   H     H_    0.641563 0.053159 0.280799 0.191251
O118  O     O_3   0.587502 0.038979 0.769675 -0.577068
C222  C     C_3   0.603584 0.042587 0.721861 -0.144450
H88   H     H_    0.599365 0.017097 0.700348 0.184499
H89   H     H_    0.642724 0.048522 0.722772 0.194734
H90   H     H_    0.586347 0.066724 0.704377 0.138594
O119  O     O_3   0.585796 0.964561 0.750590 -0.599824
C223  C     C_3   0.621788 0.955361 0.784345 -0.175682
H91   H     H_    0.611144 0.930498 0.805254 0.148451
H92   H     H_    0.629635 0.978785 0.809002 0.194834
H93   H     H_    0.655383 0.948711 0.764618 0.200268
O120  O     O_3   0.584749 0.965242 0.257905 -0.605194
C224  C     C_3   0.624008 0.954900 0.228655 -0.184880
H94   H     H_    0.655203 0.948621 0.252168 0.198867
H95   H     H_    0.634786 0.977591 0.203928 0.198940
H96   H     H_    0.615311 0.929537 0.207876 0.150858
N1    N     N_R   0.453489 0.960413 0.331460 0.273310
O121  O     O_R   0.463747 0.935554 0.363669 -0.330139
O122  O     O_R   0.408948 0.970639 0.326622 -0.208898
N2    N     N_R   0.466236 0.960903 0.659506 0.273706
O123  O     O_R   0.470087 0.970087 0.614379 -0.298171
O124  O     O_R   0.441816 0.931340 0.669917 -0.299566
N3    N     N_R   0.453992 0.037316 0.667555 0.288917
O125  O     O_R   0.460924 0.066754 0.641620 -0.332676
O126  O     O_R   0.412001 0.021562 0.666096 -0.207049
N4    N     N_R   0.455534 0.037285 0.336110 0.281072
O127  O     O_R   0.453422 0.027118 0.381000 -0.285898
O128  O     O_R   0.434096 0.067919 0.324431 -0.305454
N5    N     N_R   0.434787 0.460437 0.817548 0.272654
O129  O     O_R   0.436903 0.435587 0.851297 -0.329371
O130  O     O_R   0.392763 0.470653 0.802005 -0.214197
N6    N     N_R   0.470797 0.460883 0.157948 0.273511
O131  O     O_R   0.476858 0.470053 0.113059 -0.305263
O132  O     O_R   0.445879 0.431333 0.167167 -0.300117
N7    N     N_R   0.458085 0.537290 0.165391 0.288429
O133  O     O_R   0.466221 0.566751 0.139853 -0.337006
O134  O     O_R   0.416240 0.521499 0.161877 -0.207156
N8    N     N_R   0.435642 0.537311 0.822506 0.281458
O135  O     O_R   0.422664 0.527154 0.865535 -0.287772
O136  O     O_R   0.417704 0.567947 0.805953 -0.307820
N9    N     N_R   0.935499 0.960436 0.818213 0.272666
O137  O     O_R   0.937960 0.935588 0.851942 -0.329410
O138  O     O_R   0.893316 0.970653 0.803107 -0.214102
N10   N     N_R   0.973767 0.960903 0.157016 0.273425
O139  O     O_R   0.981255 0.970085 0.112348 -0.306183
O140  O     O_R   0.948580 0.931343 0.165421 -0.300423
N11   N     N_R   0.960881 0.037314 0.164057 0.288446
O141  O     O_R   0.969867 0.066762 0.138779 -0.337989
O142  O     O_R   0.919154 0.021547 0.159204 -0.207261
N12   N     N_R   0.936403 0.037309 0.823166 0.281437
O143  O     O_R   0.923869 0.027152 0.866326 -0.287554
O144  O     O_R   0.918295 0.067946 0.806800 -0.307661
N13   N     N_R   0.930160 0.460443 0.312824 0.272370
O145  O     O_R   0.929925 0.435599 0.346648 -0.330389
O146  O     O_R   0.889317 0.470657 0.294399 -0.215414
N14   N     N_R   0.968255 0.460891 0.658794 0.273410
O147  O     O_R   0.973089 0.470066 0.613759 -0.307350
O148  O     O_R   0.943604 0.431335 0.668682 -0.300715
N15   N     N_R   0.955786 0.537300 0.666578 0.288260
O149  O     O_R   0.963245 0.566752 0.640817 -0.338033
O150  O     O_R   0.913851 0.521524 0.664206 -0.208173
N16   N     N_R   0.930665 0.537317 0.317817 0.281514
O151  O     O_R   0.914725 0.527163 0.359840 -0.289808
O152  O     O_R   0.913927 0.567955 0.300058 -0.308910
N17   N     N_R   0.407459 0.961295 0.221927 0.292808
O153  O     O_R   0.373970 0.970804 0.191607 -0.317528
O154  O     O_R   0.400840 0.931479 0.247135 -0.315210
N18   N     N_R   0.407115 0.960365 0.763390 0.292502
O155  O     O_R   0.388109 0.935871 0.791890 -0.357954
O156  O     O_R   0.383527 0.970002 0.725043 -0.212475
N19   N     N_R   0.404317 0.037543 0.766189 0.295495
O157  O     O_R   0.367372 0.027465 0.791827 -0.307068
O158  O     O_R   0.400570 0.068075 0.741845 -0.312670
N20   N     N_R   0.406689 0.037970 0.236004 0.298761
O159  O     O_R   0.389912 0.066530 0.213090 -0.351002
O160  O     O_R   0.380006 0.022811 0.268933 -0.213846
N21   N     N_R   0.416775 0.461285 0.700110 0.293489
O161  O     O_R   0.391654 0.470790 0.662563 -0.315054
O162  O     O_R   0.404242 0.431465 0.722954 -0.318362
N22   N     N_R   0.406671 0.460343 0.258857 0.292625
O163  O     O_R   0.386319 0.435851 0.286411 -0.356726
O164  O     O_R   0.384964 0.469965 0.219407 -0.211609
N23   N     N_R   0.403699 0.537520 0.261493 0.295701
O165  O     O_R   0.365560 0.527438 0.285316 -0.305507
O166  O     O_R   0.401120 0.568043 0.236975 -0.311429
N24   N     N_R   0.412615 0.537971 0.713528 0.298644
O167  O     O_R   0.401924 0.566531 0.687218 -0.351254
O168  O     O_R   0.378726 0.522824 0.738993 -0.216297
N25   N     N_R   0.916283 0.961287 0.700972 0.293475
O169  O     O_R   0.890781 0.970792 0.663682 -0.314783
O170  O     O_R   0.903982 0.931466 0.723940 -0.318231
N26   N     N_R   0.906444 0.960358 0.255794 0.292770
O171  O     O_R   0.885204 0.935864 0.282669 -0.355636
O172  O     O_R   0.886024 0.969993 0.215669 -0.211989
N27   N     N_R   0.903413 0.037534 0.258358 0.295522
O173  O     O_R   0.864522 0.027455 0.280936 -0.306705
O174  O     O_R   0.901636 0.068064 0.233785 -0.311775
N28   N     N_R   0.912263 0.037971 0.714436 0.298684
O175  O     O_R   0.901300 0.066528 0.688233 -0.350982
O176  O     O_R   0.878633 0.022823 0.740242 -0.216080
N29   N     N_R   0.920354 0.461282 0.194428 0.293866
O177  O     O_R   0.897903 0.470785 0.155224 -0.313289
O178  O     O_R   0.906269 0.431459 0.216341 -0.318546
N30   N     N_R   0.906896 0.460351 0.761394 0.292641
O179  O     O_R   0.887292 0.435858 0.789484 -0.355877
O180  O     O_R   0.884132 0.469979 0.722547 -0.212513
N31   N     N_R   0.904013 0.537529 0.764118 0.295757
O181  O     O_R   0.866529 0.527448 0.788960 -0.304981
O182  O     O_R   0.900779 0.568056 0.739688 -0.312072
N32   N     N_R   0.915277 0.537969 0.207511 0.298674
O183  O     O_R   0.906439 0.566524 0.180512 -0.350517
O184  O     O_R   0.879696 0.522825 0.230557 -0.216509

loop_
_geom_bond_atom_site_label_1
_geom_bond_atom_site_label_2
_geom_bond_distance
_ccdc_geom_bond_type
C135  C170  1.475568 S    
Zn29  O101  1.916757 S    
C222  H88   1.106620 S    
Zn4   O4    1.920041 S    
O98   C10   1.267741 A    
C186  C202  1.207201 T    
C103  N7    1.474320 S    
C37   C74   1.437686 S    
O48   C34   1.271557 A    
C98   H2    1.112985 S    
N2    O124  1.300682 A    
O10   C2    1.268737 A    
C86   H38   1.121613 S    
C187  C203  1.207195 T    
N29   O177  1.301740 A    
C185  C201  1.207201 T    
C102  H6    1.112990 S    
Zn23  O95   1.916730 S    
C180  C196  1.207195 T    
N24   O167  1.301472 A    
C224  H96   1.112101 S    
C59   C67   1.414370 S    
Zn28  O8    1.919326 S    
O15   C7    1.268583 A    
C89   C92   1.567991 S    
C57   C65   1.414370 S    
O16   C8    1.268794 A    
N20   O159  1.301472 A    
C151  H26   1.116153 S    
C84   H36   1.113561 S    
C90   C138  1.570854 S    
O60   C44   1.272028 A    
C213  H63   1.108916 S    
Zn13  O19   1.916314 S    
O63   C41   1.271909 A    
Zn14  O20   1.916218 S    
O50   C38   1.271564 A    
C223  H91   1.112090 S    
C220  H83   1.112595 S    
C123  C171  1.204500 T    
C9    C114  1.431736 S    
C60   C68   1.414400 S    
Zn11  O83   1.906178 S    
C97   N1    1.472839 S    
Zn26  O98   1.916853 S    
Zn2   O2    1.919997 S    
Zn5   O11   1.916314 S    
C101  C133  1.571123 S    
C64   C72   1.414400 S    
Zn6   O12   1.916218 S    
C213  H62   1.108806 S    
Zn7   O1    1.919858 S    
Zn11  O21   1.916289 S    
N28   O176  1.299489 A    
Zn15  O65   1.906621 S    
C115  C163  1.204480 T    
C6    C125  1.431582 S    
O104  C16   1.267757 A    
Zn26  O50   1.906082 S    
Zn29  O37   1.906076 S    
O36   C28   1.271913 A    
C107  C139  1.576325 S    
N29   O178  1.300702 A    
C145  N32   1.473460 S    
C104  H8    1.099792 S    
O119  C223  1.411080 S    
Zn7   O79   1.906177 S    
C214  H66   1.109263 S    
Zn22  O46   1.906082 S    
O14   C6    1.268733 A    
Zn10  O82   1.906075 S    
O21   C13   1.268684 A    
Zn26  O6    1.919263 S    
N12   O143  1.301977 A    
C224  H94   1.109089 S    
C110  C142  1.579473 S    
C99   C131  1.576343 S    
C203  C204  1.414502 S    
Zn31  O5    1.919506 S    
C192  C208  1.207195 T    
Zn12  O8    1.920041 S    
Zn6   O4    1.919997 S    
C111  H15   1.102039 S    
C93   O108  1.421604 S    
C98   N2    1.475447 S    
O45   C35   1.271681 A    
N14   O147  1.301796 A    
C68   C76   1.207133 T    
O46   C36   1.271566 A    
C154  C155  1.580378 S    
C177  C193  1.207201 T    
Zn11  O69   1.906622 S    
O95   C7    1.267860 A    
C199  C200  1.414502 S    
Zn14  O68   1.906665 S    
O96   C8    1.267702 A    
Zn18  O90   1.916853 S    
C35   C80   1.437686 S    
N30   O179  1.301431 A    
N4    O128  1.300990 A    
N21   O162  1.300711 A    
C26   C192  1.437789 S    
C197  C198  1.414510 S    
C83   O118  1.428572 S    
C146  C147  1.580400 S    
C140  C165  1.475919 S    
O87   C31   1.271912 A    
N27   O173  1.301823 A    
O88   C32   1.271894 A    
C149  C152  1.578860 S    
C53   C61   1.207119 T    
C210  H53   1.108943 S    
C103  C135  1.576312 S    
C104  C136  1.584284 S    
C20   C182  1.437792 S    
O71   C45   1.271911 A    
C147  H30   1.116152 S    
C90   O111  1.421904 S    
C132  C157  1.576981 S    
O64   C42   1.272023 A    
O23   C15   1.268510 A    
N16   O151  1.301978 A    
Zn21  O3    1.919469 S    
Zn22  O4    1.919263 S    
O105  C209  1.408497 S    
C154  N23   1.476501 S    
Zn10  O6    1.919997 S    
Zn3   O75   1.906178 S    
O116  C220  1.411141 S    
Zn2   O64   1.906666 S    
C86   C134  1.570940 S    
Zn19  O3    1.919506 S    
Zn16  O66   1.906645 S    
C223  H93   1.109082 S    
Zn6   O60   1.906665 S    
N26   O172  1.298872 A    
N6    O131  1.301795 A    
Zn15  O17   1.916289 S    
O83   C27   1.271909 A    
C141  C164  1.477189 S    
C106  C138  1.579464 S    
C209  H49   1.106614 S    
C105  C137  1.571052 S    
C142  C163  1.477404 S    
C116  C164  1.204455 T    
C117  C165  1.204446 T    
C109  C112  1.575031 S    
O33   C25   1.271864 A    
C137  C152  1.584380 S    
C119  C167  1.204469 T    
C85   H37   1.121638 S    
C138  C151  1.577033 S    
C46   C54   1.437689 S    
N9    O138  1.298900 A    
C212  H58   1.109087 S    
C139  C150  1.584509 S    
O75   C19   1.271912 A    
Zn1   O73   1.906179 S    
C112  H16   1.099748 S    
C133  C156  1.584441 S    
C118  C166  1.204434 T    
O73   C17   1.271880 A    
C134  C155  1.577048 S    
C214  H64   1.106618 S    
C108  H12   1.099748 S    
C129  C160  1.584386 S    
O31   C23   1.271895 A    
O77   C21   1.271882 A    
C130  C159  1.577013 S    
C112  N16   1.476891 S    
C131  C158  1.584526 S    
O22   C14   1.268744 A    
C34   C77   1.437664 S    
C216  H70   1.109085 S    
C95   C143  1.587195 S    
C222  H89   1.108944 S    
Zn19  O91   1.916730 S    
C150  C151  1.580375 S    
C91   C139  1.587201 S    
C12   C115  1.431717 S    
Zn28  O36   1.906178 S    
N22   O164  1.298876 A    
C13   C118  1.431733 S    
C93   C96   1.567969 S    
C107  N11   1.474314 S    
Zn16  O88   1.906085 S    
Zn22  O30   1.906179 S    
C210  H52   1.106622 S    
Zn32  O56   1.906050 S    
O91   C3    1.267986 A    
O56   C38   1.271558 A    
C86   O115  1.421887 S    
C19   C181  1.437795 S    
O89   C1    1.267833 A    
O44   C36   1.271558 A    
C21   C179  1.437789 S    
Zn24  O48   1.906050 S    
C159  H18   1.116159 S    
O93   C5    1.267907 A    
Zn30  O102  1.916853 S    
C111  N15   1.474316 S    
O99   C11   1.268006 A    
C221  H85   1.106621 S    
O26   C18   1.271884 A    
Zn29  O53   1.906094 S    
C56   C64   1.207133 T    
O20   C12   1.268755 A    
O39   C31   1.271898 A    
Zn17  O41   1.906094 S    
O40   C32   1.271915 A    
C67   C75   1.207116 T    
C102  N6    1.475461 S    
C100  H4    1.099744 S    
C65   C73   1.207116 T    
C132  C173  1.475883 S    
Zn18  O26   1.906179 S    
C158  N19   1.476499 S    
C104  N8    1.476896 S    
Zn13  O7    1.919794 S    
N8    O136  1.300984 A    
C153  N24   1.473477 S    
C82   H34   1.121665 S    
C27   C189  1.437795 S    
O118  C222  1.407893 S    
C84   O117  1.429172 S    
Zn26  O34   1.906179 S    
C95   O106  1.428577 S    
C211  H55   1.112060 S    
O62   C44   1.272026 A    
Zn19  O27   1.906086 S    
O81   C25   1.271880 A    
Zn2   O74   1.906075 S    
C91   H43   1.113188 S    
C219  H79   1.112042 S    
Zn28  O100  1.916828 S    
O49   C37   1.271679 A    
Zn13  O67   1.906653 S    
C10   C113  1.431629 S    
Zn11  O7    1.919858 S    
C87   O114  1.428580 S    
N5    O129  1.301466 A    
C42   C50   1.437689 S    
C133  C172  1.477150 S    
C28   C190  1.437792 S    
Zn3   O3    1.919858 S    
Zn1   O63   1.906654 S    
C221  H87   1.108920 S    
C48   C56   1.437689 S    
C140  C149  1.576983 S    
Zn3   O61   1.906622 S    
C129  C176  1.477148 S    
Zn8   O2    1.920041 S    
O108  C212  1.411144 S    
C212  H60   1.112096 S    
C23   C177  1.437795 S    
Zn5   O59   1.906653 S    
C131  C174  1.475646 S    
C108  N12   1.476895 S    
C181  C197  1.207201 T    
C215  H67   1.112053 S    
N18   O156  1.298877 A    
C89   C137  1.571769 S    
C183  C199  1.207195 T    
C87   C135  1.587150 S    
C149  H28   1.116090 S    
Zn20  O28   1.906178 S    
C150  N27   1.476493 S    
C135  C154  1.584489 S    
N15   O149  1.301686 A    
O112  C216  1.411142 S    
C216  H72   1.112096 S    
C110  C111  1.573695 S    
C160  H17   1.115118 S    
O97   C9    1.267866 A    
C124  C172  1.204450 T    
C11   C116  1.431649 S    
O69   C47   1.271908 A    
C106  N10   1.475448 S    
N11   O141  1.301698 A    
N1    O122  1.298915 A    
C98   C130  1.579467 S    
C147  N30   1.472336 S    
C121  C169  1.204460 T    
C153  H24   1.116098 S    
C105  C108  1.575026 S    
Zn9   O81   1.906179 S    
C149  N28   1.473462 S    
C141  C148  1.584378 S    
C142  C147  1.577036 S    
N24   O168  1.299484 A    
C70   C78   1.207133 T    
C137  C168  1.477176 S    
Zn5   O3    1.919794 S    
N30   O180  1.298873 A    
C7    C128  1.431603 S    
N25   O170  1.300700 A    
Zn15  O87   1.906177 S    
C155  N22   1.472345 S    
C8    C127  1.431675 S    
N20   O160  1.299489 A    
Zn7   O9    1.916289 S    
C97   C100  1.575039 S    
O37   C29   1.271863 A    
Zn20  O92   1.916828 S    
Zn27  O35   1.906086 S    
C69   C77   1.207116 T    
O35   C27   1.271898 A    
O120  C224  1.411133 S    
C223  H92   1.112564 S    
C90   C91   1.568646 S    
C101  C104  1.575040 S    
N23   O165  1.301827 A    
Zn24  O96   1.916828 S    
C120  C168  1.204443 T    
C22   C180  1.437789 S    
C97   C129  1.571079 S    
C136  C169  1.475918 S    
Zn12  O84   1.906086 S    
C89   H41   1.121664 S    
O58   C42   1.272031 A    
O109  C213  1.408493 S    
C29   C187  1.437789 S    
Zn28  O52   1.906050 S    
C38   C73   1.437664 S    
N7    O134  1.299610 A    
C61   C69   1.414370 S    
N3    O125  1.301687 A    
C100  C132  1.584212 S    
C211  H57   1.109092 S    
C189  C205  1.207201 T    
C154  H23   1.114683 S    
C217  H73   1.106601 S    
O61   C43   1.271908 A    
C97   H1    1.114839 S    
C195  C196  1.414502 S    
Zn32  O40   1.906178 S    
C81   C84   1.568036 S    
Zn4   O76   1.906086 S    
C110  N14   1.475455 S    
C219  H81   1.109098 S    
C4    C123  1.431742 S    
C101  H5    1.114875 S    
N27   O174  1.301007 A    
Zn16  O18   1.916191 S    
C5    C126  1.431776 S    
O94   C6    1.267728 A    
C85   C88   1.567955 S    
C99   N3    1.474314 S    
Zn8   O80   1.906085 S    
N13   O145  1.301470 A    
C15   C120  1.431634 S    
O82   C26   1.271860 A    
C43   C51   1.437666 S    
C17   C183  1.437789 S    
C16   C119  1.431715 S    
N12   O144  1.300985 A    
C58   C66   1.414400 S    
C1    C122  1.431701 S    
C41   C49   1.437666 S    
C152  H25   1.115109 S    
O34   C26   1.271884 A    
O78   C22   1.271863 A    
O79   C23   1.271914 A    
O114  C218  1.407907 S    
C152  N25   1.475202 S    
C44   C52   1.437689 S    
N32   O183  1.301474 A    
C45   C53   1.437666 S    
C215  H69   1.109074 S    
O85   C29   1.271884 A    
O74   C18   1.271860 A    
N14   O148  1.300670 A    
O30   C22   1.271883 A    
C179  C195  1.207195 T    
O24   C16   1.268761 A    
Zn21  O29   1.906076 S    
C134  C171  1.477416 S    
C110  H14   1.112990 S    
O18   C10   1.268742 A    
N11   O142  1.299608 A    
C109  H13   1.114847 S    
Zn24  O32   1.906178 S    
N21   O161  1.301721 A    
O13   C5    1.268658 A    
C130  C175  1.477384 S    
C218  H77   1.108940 S    
Zn17  O1    1.919469 S    
C151  N26   1.472330 S    
N2    O123  1.301793 A    
Zn30  O38   1.906179 S    
C50   C58   1.207133 T    
C224  H95   1.112579 S    
O55   C37   1.271675 A    
Zn23  O31   1.906086 S    
C2    C121  1.431644 S    
Zn31  O55   1.906074 S    
O90   C2    1.267746 A    
Zn31  O103  1.916730 S    
C63   C71   1.414370 S    
C85   O116  1.421575 S    
Zn32  O104  1.916828 S    
C105  N9    1.472827 S    
Zn1   O15   1.916314 S    
N16   O152  1.300987 A    
Zn2   O16   1.916218 S    
C143  C162  1.475603 S    
O25   C17   1.271864 A    
Zn3   O13   1.916289 S    
N31   O181  1.301826 A    
C125  C173  1.204426 T    
C212  H59   1.112583 S    
O66   C46   1.272029 A    
C218  H76   1.106627 S    
O28   C20   1.271914 A    
O29   C21   1.271864 A    
O76   C20   1.271893 A    
C220  H84   1.112114 S    
O32   C24   1.271913 A    
C71   C79   1.207116 T    
C106  C107  1.573716 S    
O17   C9    1.268674 A    
C107  H11   1.102037 S    
C209  H50   1.108808 S    
Zn17  O89   1.916757 S    
C213  H61   1.106617 S    
C82   C130  1.570796 S    
N28   O175  1.301472 A    
O41   C33   1.271681 A    
C82   O119  1.421933 S    
C54   C62   1.207133 T    
N13   O146  1.298902 A    
C201  C202  1.414510 S    
N19   O158  1.301000 A    
C102  C103  1.573693 S    
O92   C4    1.267798 A    
C211  H56   1.112583 S    
N15   O150  1.299610 A    
C209  H51   1.108916 S    
Zn13  O85   1.906178 S    
C81   O120  1.421599 S    
C30   C188  1.437789 S    
C40   C75   1.437664 S    
O47   C33   1.271673 A    
Zn27  O51   1.906074 S    
C155  H22   1.116148 S    
C89   O112  1.421603 S    
Zn5   O77   1.906178 S    
O103  C15   1.267966 A    
Zn10  O72   1.906666 S    
N10   O140  1.300681 A    
C94   C95   1.568668 S    
O68   C48   1.272027 A    
Zn24  O2    1.919326 S    
C136  C153  1.577052 S    
C214  H65   1.108950 S    
Zn22  O94   1.916853 S    
C102  C134  1.579482 S    
C158  H19   1.114686 S    
Zn20  O4    1.919326 S    
C18   C184  1.437789 S    
C96   O105  1.429185 S    
C94   C142  1.570887 S    
N4    O127  1.301966 A    
C158  C159  1.580413 S    
Zn25  O33   1.906076 S    
C221  H86   1.108809 S    
O52   C40   1.271557 A    
C109  N13   1.472821 S    
C92   O109  1.429182 S    
C126  C174  1.204465 T    
Zn12  O22   1.916191 S    
Zn17  O25   1.906076 S    
O102  C14   1.267732 A    
C210  H54   1.109255 S    
C83   C131  1.587256 S    
O51   C39   1.271675 A    
C88   O113  1.429165 S    
N23   O166  1.301001 A    
Zn27  O99   1.916730 S    
O107  C211  1.411162 S    
C99   H3    1.102051 S    
Zn8   O10   1.916191 S    
Zn25  O97   1.916757 S    
C25   C191  1.437789 S    
Zn1   O1    1.919794 S    
C207  C208  1.414502 S    
Zn4   O14   1.916191 S    
N10   O139  1.301798 A    
C33   C78   1.437686 S    
C112  C144  1.584194 S    
C105  H9    1.114845 S    
N26   O171  1.301449 A    
C114  C162  1.204440 T    
C55   C63   1.207119 T    
O38   C30   1.271883 A    
C96   H48   1.113562 S    
N19   O157  1.301827 A    
Zn7   O57   1.906621 S    
C111  C143  1.576323 S    
C148  N29   1.475196 S    
Zn20  O44   1.906050 S    
C219  H80   1.112590 S    
N9    O137  1.301466 A    
C92   H44   1.113562 S    
C138  C167  1.477397 S    
Zn25  O5    1.919469 S    
C108  C140  1.584197 S    
Zn15  O5    1.919858 S    
C109  C141  1.571050 S    
Zn23  O1    1.919506 S    
C188  C204  1.207195 T    
N7    O133  1.301680 A    
O11   C3    1.268509 A    
Zn9   O23   1.916314 S    
O57   C41   1.271911 A    
C94   O107  1.421905 S    
C139  C166  1.475625 S    
C91   O110  1.428570 S    
Zn10  O24   1.916218 S    
N17   O153  1.301737 A    
C106  H10   1.112992 S    
C113  C161  1.204450 T    
C190  C206  1.207201 T    
Zn9   O71   1.906654 S    
C215  H68   1.112545 S    
Zn18  O42   1.906082 S    
Zn6   O78   1.906075 S    
C178  C194  1.207198 T    
C86   C87   1.568747 S    
C66   C74   1.207133 T    
C14   C117  1.431613 S    
N6    O132  1.300667 A    
C191  C207  1.207195 T    
C143  C146  1.584504 S    
N31   O182  1.301000 A    
C216  H71   1.112582 S    
C83   H35   1.113184 S    
C222  H90   1.109258 S    
N32   O184  1.299487 A    
C184  C200  1.207195 T    
O100  C12   1.267759 A    
C127  C175  1.204458 T    
O101  C13   1.267852 A    
N22   O163  1.301425 A    
C84   C132  1.587040 S    
C218  H78   1.109256 S    
Zn27  O7    1.919506 S    
O111  C215  1.411129 S    
C94   H46   1.121634 S    
O27   C19   1.271895 A    
C88   H40   1.113595 S    
N1    O121  1.301441 A    
Zn14  O8    1.919997 S    
O86   C30   1.271863 A    
C32   C186  1.437792 S    
O59   C43   1.271913 A    
C90   H42   1.121624 S    
C85   C133  1.571822 S    
Zn12  O70   1.906645 S    
C62   C70   1.414400 S    
C96   C144  1.587022 S    
C81   C129  1.571766 S    
C31   C185  1.437795 S    
O19   C11   1.268481 A    
C153  C156  1.578875 S    
Zn29  O7    1.919469 S    
Zn9   O5    1.919794 S    
N25   O169  1.301740 A    
Zn30  O8    1.919263 S    
C92   C140  1.587029 S    
C24   C178  1.437795 S    
C39   C76   1.437686 S    
C93   C141  1.571764 S    
C160  N17   1.475227 S    
Zn18  O2    1.919263 S    
C193  C194  1.414510 S    
C100  N4    1.476908 S    
C182  C198  1.207201 T    
Zn4   O62   1.906645 S    
N17   O154  1.300700 A    
C88   C136  1.587078 S    
Zn30  O54   1.906082 S    
C220  H82   1.109114 S    
Zn32  O6    1.919326 S    
O43   C35   1.271673 A    
C145  C148  1.578892 S    
C3    C124  1.431677 S    
Zn8   O58   1.906645 S    
C148  H29   1.115107 S    
C36   C79   1.437661 S    
C128  C176  1.204430 T    
Zn14  O86   1.906075 S    
O110  C214  1.407899 S    
C157  C160  1.578767 S    
O9    C1    1.268692 A    
C145  H32   1.116086 S    
N8    O135  1.301970 A    
C144  C145  1.576980 S    
C144  C161  1.475939 S    
C51   C59   1.207119 T    
O67   C47   1.271913 A    
O84   C28   1.271894 A    
C159  N18   1.472327 S    
C49   C57   1.207119 T    
Zn25  O49   1.906094 S    
C47   C55   1.437666 S    
C217  H74   1.108783 S    
N3    O126  1.299610 A    
O65   C45   1.271910 A    
C122  C170  1.204427 T    
C157  N20   1.473476 S    
C146  N31   1.476502 S    
O70   C48   1.272026 A    
Zn19  O43   1.906074 S    
O115  C219  1.411215 S    
N5    O130  1.298887 A    
C103  H7    1.102033 S    
C82   C83   1.568563 S    
C205  C206  1.414510 S    
C101  N5    1.472827 S    
Zn31  O39   1.906086 S    
O53   C39   1.271679 A    
O72   C46   1.272024 A    
O12   C4    1.268727 A    
O54   C40   1.271564 A    
C95   H47   1.113203 S    
O117  C221  1.408480 S    
O42   C34   1.271564 A    
C217  H75   1.108978 S    
C81   H33   1.121661 S    
C150  H27   1.114675 S    
C157  H20   1.116096 S    
O80   C24   1.271896 A    
N18   O155  1.301439 A    
C52   C60   1.207133 T    
C72   C80   1.207133 T    
O113  C217  1.408509 S    
C98   C99   1.573702 S    
Zn21  O45   1.906094 S    
O106  C210  1.407902 S    
C156  N21   1.475199 S    
C93   H45   1.121663 S    
C146  H31   1.114682 S    
Zn23  O47   1.906074 S    
Zn21  O93   1.916757 S    
C87   H39   1.113211 S    
C156  H21   1.115133 S    
Zn16  O6    1.920041 S    
