data_mof_unit_16115.cif
_audit_creation_date              2012-10-26T19:18:47-0400
_audit_creation_method            fapswitch 2.2
_symmetry_space_group_name_H-M    P1
_symmetry_Int_Tables_number       1
_space_group_crystal_system       triclinic
_cell_length_a                    9.689314
_cell_length_b                    10.937927
_cell_length_c                    15.623482
_cell_angle_alpha                 89.747254
_cell_angle_beta                  73.377137
_cell_angle_gamma                 89.934897
_cell_volume                      1586.57888934

loop_
_atom_site_label
_atom_site_type_symbol
_atom_type_description
_atom_site_fract_x
_atom_site_fract_y
_atom_site_fract_z
_atom_type_partial_charge
C1    C     C_R   0.998544 0.265437 0.503614 0.552518
C2    C     C_R   0.220147 0.491278 0.041475 0.022394
C3    C     C_R   0.322072 0.516624 0.088600 -0.011547
C4    C     C_R   0.916294 0.502872 0.671784 0.547670
C5    C     C_R   0.073951 0.471590 0.088065 0.252214
C6    C     C_R   0.030014 0.482669 0.181629 -0.182182
C7    C     C_R   0.279169 0.501911 0.182404 0.234159
C8    C     C_2   0.886942 0.933298 0.503775 -0.135945
C9    C     C_2   0.006742 0.865877 0.487987 -0.089774
C10   C     C_2   0.894142 0.066565 0.495277 -0.111359
C11   C     C_2   0.993888 0.134063 0.518196 0.085695
C12   C     C_R   0.663552 0.540143 0.901994 0.022727
C13   C     C_2   0.396926 0.433233 0.554154 -0.029855
C14   C     C_2   0.554537 0.427605 0.551031 0.197737
C15   C     C_R   0.001157 0.734491 0.497352 0.549056
C16   C     C_R   0.084071 0.498017 0.327811 0.560053
C17   C     C_R   0.867988 0.522357 0.768436 -0.006160
C18   C     C_R   0.131572 0.494968 0.229244 -0.041803
C19   C     C_R   0.902974 0.611854 0.901802 -0.086958
C20   C     C_R   0.958439 0.576288 0.813101 -0.139500
C21   C     C_R   0.723188 0.501197 0.813712 -0.130870
C22   C     C_3   0.878090 0.357237 0.077217 -0.128418
C23   C     C_R   0.756685 0.593774 0.946676 0.068414
C24   C     C_3   0.426611 0.365284 0.222333 -0.111688
C25   C     C_R   0.514465 0.526461 0.947204 0.019448
C26   C     C_R   0.465644 0.548715 0.040283 0.036504
C27   C     C_R   0.559339 0.608295 0.081359 -0.117035
C28   C     C_R   0.702330 0.630492 0.035174 -0.130156
C29   C     C_R   0.411772 0.496051 0.902209 -0.159786
C30   C     C_R   0.266854 0.483040 0.948270 -0.119477
Cu1   Cu    Cu3+1 0.138640 0.500020 0.499980 0.952818
Cu2   Cu    Cu3+1 0.861360 0.499980 0.500020 0.958172
H1    H     H_    0.771080 0.675443 0.069269 0.122951
H2    H     H_    0.974132 0.654828 0.935090 0.135508
H3    H     H_    0.070474 0.594664 0.778732 0.125616
H4    H     H_    0.658989 0.453475 0.778522 0.124080
H5    H     H_    0.522162 0.643742 0.148433 0.171915
H6    H     H_    0.438962 0.487995 0.830550 0.101403
H7    H     H_    0.787255 0.392572 0.132291 0.120782
H8    H     H_    0.931509 0.278595 0.100359 0.108038
H9    H     H_    0.831424 0.322564 0.024905 0.145627
H10   H     H_    0.195370 0.098974 0.525997 0.227322
H11   H     H_    0.071926 0.125024 0.625196 0.232701
H12   H     H_    0.781526 0.890421 0.519493 0.138460
H13   H     H_    0.568236 0.253397 0.590059 0.200023
H14   H     H_    0.535190 0.356917 0.673206 0.189941
H15   H     H_    0.482191 0.339392 0.152110 0.105914
H16   H     H_    0.334684 0.302371 0.251369 0.119715
H17   H     H_    0.504962 0.353898 0.261476 0.130716
H18   H     H_    0.112821 0.907115 0.465594 0.137973
H19   H     H_    0.813442 0.110257 0.469437 0.116261
H20   H     H_    0.322109 0.376825 0.603496 0.132861
H21   H     H_    0.416690 0.547477 0.450960 0.212581
H22   H     H_    0.622298 0.565401 0.463723 0.177803
H23   H     H_    0.916729 0.477973 0.217551 0.137054
H24   H     H_    0.191970 0.463167 0.910281 0.161208
N1    N     N_2   0.346430 0.498660 0.500980 -0.357751
N2    N     N_2   0.652550 0.498630 0.501000 -0.305606
N3    N     N_3   0.089369 0.081099 0.563703 -0.641868
N4    N     N_3   0.596122 0.340192 0.607428 -0.543186
O1    O     O_R   0.117050 0.321960 0.499980 -0.507602
O2    O     O_3   0.381283 0.488384 0.228258 -0.565072
O3    O     O_R   0.882890 0.321920 0.500020 -0.474437
O4    O     O_R   0.052910 0.500040 0.629810 -0.505280
O5    O     O_R   0.818750 0.499990 0.629840 -0.467980
O6    O     O_R   0.117110 0.678080 0.499980 -0.492966
O7    O     O_R   0.882950 0.678040 0.500020 -0.502688
O8    O     O_R   0.181250 0.500010 0.370160 -0.436273
O9    O     O_R   0.947090 0.499960 0.370190 -0.519547
O10   O     O_3   0.975612 0.452191 0.039793 -0.583265

loop_
_geom_bond_atom_site_label_1
_geom_bond_atom_site_label_2
_ccdc_geom_bond_type
H10   N3    S    
C29   H6    S    
Cu1   O6    S    
C19   C23   A    
C2    C5    A    
C7    O2    S    
C5    O10   S    
C16   O8    A    
Cu2   N2    S    
C13   H20   S    
C14   N4    S    
Cu1   O1    S    
Cu1   Cu2   S    
C1    C11   S    
H11   N3    S    
C6    H23   S    
C2    C30   A    
C7    C18   A    
C22   H8    S    
Cu1   N1    S    
C2    C3    A    
C9    C15   S    
C15   O7    A    
H13   N4    S    
C21   H4    S    
C23   C28   A    
C15   O6    A    
C12   C23   A    
C26   C27   A    
C29   C30   A    
C27   H5    S    
Cu2   O7    S    
C11   N3    S    
C4    C17   S    
C1    O3    A    
C8    C10   S    
C22   O10   S    
C28   H1    S    
C3    C7    A    
C25   C29   A    
C5    C6    A    
C14   N2    D    
C6    C18   A    
C22   H9    S    
C13   N1    D    
C10   C11   D    
C22   H7    S    
C12   C25   A    
C24   H15   S    
C24   H16   S    
C8    H12   S    
C10   H19   S    
C27   C28   A    
C17   C20   A    
Cu1   O4    S    
Cu1   O8    S    
H21   N1    S    
C16   C18   S    
H22   N2    S    
C24   H17   S    
C4    O4    A    
C4    O5    A    
C8    C9    D    
C24   O2    S    
H14   N4    S    
C25   C26   A    
C13   C14   S    
Cu2   O9    S    
C30   H24   S    
C12   C21   A    
C20   H3    S    
C3    C26   A    
C17   C21   A    
C16   O9    A    
C19   C20   A    
Cu2   O3    S    
Cu2   O5    S    
C9    H18   S    
C19   H2    S    
C1    O1    A    
