data_mof_unit_32329.cif
_audit_creation_date              2013-03-05T15:51:16-0500
_audit_creation_method            fapswitch 2.2
_symmetry_space_group_name_H-M    P1
_symmetry_Int_Tables_number       1
_space_group_crystal_system       triclinic
_cell_length_a                    19.113422
_cell_length_b                    10.945861
_cell_length_c                    18.786975
_cell_angle_alpha                 90.099825
_cell_angle_beta                  89.756859
_cell_angle_gamma                 90.020857
_cell_volume                      3930.43517304

loop_
_atom_site_label
_atom_site_type_symbol
_atom_site_description
_atom_site_fract_x
_atom_site_fract_y
_atom_site_fract_z
_atom_type_partial_charge
O1    O     O_R   0.787520 0.042810 0.170440 -0.507568
O2    O     O_R   0.212480 0.042810 0.829560 -0.513744
O3    O     O_R   0.287520 0.542810 0.170440 -0.507274
O4    O     O_R   0.712480 0.542810 0.829560 -0.516211
O5    O     O_R   0.765640 0.292100 0.175020 -0.506374
O6    O     O_R   0.234360 0.292100 0.824980 -0.510701
O7    O     O_R   0.265640 0.792100 0.175020 -0.506614
O8    O     O_R   0.734360 0.792100 0.824980 -0.512142
C1    C     C_R   0.730590 0.377382 0.146443 0.519277
C2    C     C_R   0.271329 0.373672 0.855063 0.525239
C3    C     C_R   0.230592 0.877387 0.146445 0.518966
C4    C     C_R   0.771331 0.873668 0.855065 0.524548
O9    O     O_R   0.670190 0.408840 0.168540 -0.484961
O10   O     O_R   0.329810 0.408840 0.831460 -0.508844
O11   O     O_R   0.170190 0.908840 0.168540 -0.485152
O12   O     O_R   0.829810 0.908840 0.831460 -0.509496
O13   O     O_R   0.556620 0.251410 0.175160 -0.457034
O14   O     O_R   0.443380 0.251410 0.824840 -0.448800
O15   O     O_R   0.056620 0.751410 0.175160 -0.457179
O16   O     O_R   0.943380 0.751410 0.824840 -0.452917
C5    C     C_R   0.529664 0.156050 0.147843 0.522279
C6    C     C_R   0.467425 0.155088 0.854371 0.555591
C7    C     C_R   0.029665 0.656048 0.147842 0.522214
C8    C     C_R   0.967426 0.655087 0.854372 0.548026
O17   O     O_R   0.545960 0.049620 0.170320 -0.525020
O18   O     O_R   0.454040 0.049620 0.829680 -0.530973
O19   O     O_R   0.045960 0.549620 0.170320 -0.524998
O20   O     O_R   0.954040 0.549620 0.829680 -0.535155
O21   O     O_R   0.681390 0.958010 0.176690 -0.488122
O22   O     O_R   0.318610 0.958010 0.823310 -0.502615
O23   O     O_R   0.181390 0.458010 0.176690 -0.488080
O24   O     O_R   0.818610 0.458010 0.823310 -0.503763
C9    C     C_R   0.741911 0.968108 0.148541 0.538689
C10   C     C_R   0.258341 0.970951 0.852865 0.547240
C11   C     C_R   0.241910 0.468110 0.148540 0.538804
C12   C     C_R   0.758341 0.470951 0.852865 0.545256
O25   O     O_R   0.787510 0.044390 0.330970 -0.501563
O26   O     O_R   0.212490 0.044390 0.669030 -0.500167
O27   O     O_R   0.287510 0.544390 0.330970 -0.502143
O28   O     O_R   0.712490 0.544390 0.669030 -0.501815
O29   O     O_R   0.765630 0.293570 0.323840 -0.489782
O30   O     O_R   0.234370 0.293570 0.676160 -0.501596
O31   O     O_R   0.265630 0.793570 0.323840 -0.488146
O32   O     O_R   0.734370 0.793570 0.676160 -0.499785
C13   C     C_R   0.729569 0.380402 0.351661 0.541696
C14   C     C_R   0.269832 0.379858 0.648124 0.543573
C15   C     C_R   0.229937 0.881569 0.351273 0.541381
C16   C     C_R   0.770194 0.878723 0.647736 0.551673
O33   O     O_R   0.670190 0.410420 0.329080 -0.527411
O34   O     O_R   0.329810 0.410420 0.670920 -0.536875
O35   O     O_R   0.170190 0.910420 0.329080 -0.529016
O36   O     O_R   0.829810 0.910420 0.670920 -0.528506
O37   O     O_R   0.556610 0.252880 0.323980 -0.508515
O38   O     O_R   0.443390 0.252880 0.676020 -0.508747
O39   O     O_R   0.056610 0.752880 0.323980 -0.507846
O40   O     O_R   0.943390 0.752880 0.676020 -0.506917
C17   C     C_R   0.530994 0.156396 0.352674 0.536811
C18   C     C_R   0.437534 0.152802 0.638998 0.561699
C19   C     C_R   0.031173 0.656614 0.352817 0.539138
C20   C     C_R   0.965900 0.656719 0.645145 0.543454
O41   O     O_R   0.545950 0.051210 0.330860 -0.524799
O42   O     O_R   0.454050 0.051210 0.669140 -0.519770
O43   O     O_R   0.045950 0.551210 0.330860 -0.526838
O44   O     O_R   0.954050 0.551210 0.669140 -0.519715
O45   O     O_R   0.681390 0.959480 0.325510 -0.511779
O46   O     O_R   0.318610 0.959480 0.674490 -0.522166
O47   O     O_R   0.181390 0.459480 0.325510 -0.512762
O48   O     O_R   0.818610 0.459480 0.674490 -0.509521
C21   C     C_R   0.741135 0.972955 0.355022 0.540187
C22   C     C_R   0.260341 0.977534 0.643275 0.539117
C23   C     C_R   0.241314 0.473238 0.355185 0.540763
C24   C     C_R   0.760029 0.475944 0.643892 0.547398
Cr1   Cr    Cr6+3 0.772010 0.169670 0.250090 1.023451
Cr2   Cr    Cr6+3 0.227990 0.169670 0.749910 1.016435
Cr3   Cr    Cr6+3 0.272010 0.669670 0.250090 1.024499
Cr4   Cr    Cr6+3 0.727990 0.669670 0.749910 1.022808
Cr5   Cr    Cr6+3 0.615000 0.323260 0.249260 1.050557
Cr6   Cr    Cr6+3 0.385000 0.323260 0.750740 1.029779
Cr7   Cr    Cr6+3 0.115000 0.823260 0.249260 1.050119
Cr8   Cr    Cr6+3 0.885000 0.823260 0.750740 1.035949
Cr9   Cr    Cr6+3 0.616710 0.010760 0.250840 1.022610
Cr10  Cr    Cr6+3 0.383290 0.010760 0.749160 1.002800
Cr11  Cr    Cr6+3 0.116710 0.510760 0.250840 1.021867
Cr12  Cr    Cr6+3 0.883290 0.510760 0.749160 1.007532
O49   O     O_3   0.667900 0.167900 0.250060 -0.257119
O50   O     O_3   0.332100 0.167900 0.749940 -0.283954
O51   O     O_3   0.167900 0.667900 0.250060 -0.256442
O52   O     O_3   0.832100 0.667900 0.749940 -0.267216
H1    H     H_    0.478890 0.971902 0.070389 0.147831
H2    H     H_    0.474027 0.967493 0.944126 0.147588
H3    H     H_    0.978898 0.471889 0.070386 0.147836
H4    H     H_    0.974032 0.467484 0.944123 0.147681
C25   C     C_R   0.491636 0.161742 0.928915 0.021303
C26   C     C_R   0.494067 0.167188 0.078383 -0.009591
C27   C     C_R   0.991642 0.661736 0.928914 0.023109
C28   C     C_R   0.994069 0.667180 0.078382 -0.009678
C29   C     C_R   0.504327 0.274329 0.964682 -0.044939
C30   C     C_R   0.494298 0.279039 0.039615 -0.038381
C31   C     C_R   0.004331 0.774321 0.964683 -0.044312
C32   C     C_R   0.994299 0.779031 0.039615 -0.038490
C33   C     C_R   0.481666 0.058071 0.042312 -0.139280
C34   C     C_R   0.481588 0.055245 0.969187 -0.117315
C35   C     C_R   0.981675 0.558060 0.042310 -0.139487
C36   C     C_R   0.981598 0.555235 0.969185 -0.116715
C37   C     C_R   0.526541 0.382015 0.928681 0.185768
C38   C     C_R   0.485525 0.394908 0.073025 0.208428
C39   C     C_R   0.026548 0.882005 0.928684 0.186242
C40   C     C_R   0.985523 0.894899 0.073025 0.208453
C41   C     C_R   0.023100 0.996004 0.963858 0.312839
C42   C     C_R   0.001324 0.002616 0.034919 0.329711
C43   C     C_R   0.523096 0.496013 0.963855 0.312834
C44   C     C_R   0.501326 0.502625 0.034917 0.329732
C45   C     C_R   0.761594 0.890726 0.930020 0.031779
C46   C     C_R   0.250185 0.913903 0.075204 -0.005407
C47   C     C_R   0.261591 0.390729 0.930017 0.031585
C48   C     C_R   0.750181 0.413887 0.075202 -0.005501
C49   C     C_R   0.732889 0.999541 0.953665 -0.038154
C50   C     C_R   0.277498 0.822388 0.030598 -0.020757
C51   C     C_R   0.232942 0.499581 0.953665 -0.038132
C52   C     C_R   0.777473 0.322355 0.030593 -0.020806
C53   C     C_R   0.725899 0.020732 0.025409 0.004985
C54   C     C_R   0.276825 0.833898 0.957520 -0.034180
C55   C     C_R   0.225948 0.520770 0.025407 0.005123
C56   C     C_R   0.776805 0.333879 0.957515 -0.033979
C57   C     C_R   0.787774 0.835274 0.052750 -0.058793
C58   C     C_R   0.212692 0.022167 0.970413 -0.028018
C59   C     C_R   0.287722 0.335222 0.052749 -0.058769
C60   C     C_R   0.712718 0.522200 0.970417 -0.028029
C61   C     C_R   0.794226 0.810610 0.979950 0.230120
C62   C     C_R   0.216500 0.015136 0.043927 0.233741
C63   C     C_R   0.294183 0.310568 0.979949 0.230219
C64   C     C_R   0.716522 0.515152 0.043931 0.233608
C65   C     C_3   0.663072 0.053156 0.937583 -0.285550
C66   C     C_3   0.348542 0.765046 0.028932 -0.217583
C67   C     C_3   0.163178 0.553363 0.937562 -0.286295
C68   C     C_3   0.848515 0.265000 0.028926 -0.217617
C69   C     C_3   0.655226 0.075094 0.016900 -0.241590
C70   C     C_3   0.346420 0.775054 0.948294 -0.236139
C71   C     C_3   0.155318 0.575285 0.016882 -0.241339
C72   C     C_3   0.846398 0.275026 0.948290 -0.236240
C73   C     C_R   0.748471 0.935393 0.075174 0.006095
C74   C     C_R   0.247281 0.936455 0.926338 -0.013212
C75   C     C_R   0.248465 0.435394 0.075172 0.005987
C76   C     C_R   0.747284 0.436464 0.926339 -0.012541
H5    H     H_    0.811301 0.774500 0.091311 0.123891
H6    H     H_    0.188376 0.103055 0.948368 0.202173
H7    H     H_    0.311218 0.274414 0.091311 0.123933
H8    H     H_    0.688422 0.603110 0.948375 0.202122
H9    H     H_    0.125602 0.485118 0.916130 0.155251
H10   H     H_    0.847777 0.169000 0.047993 0.184731
H11   H     H_    0.625540 0.984802 0.916177 0.156017
H12   H     H_    0.347811 0.669050 0.048006 0.184730
H13   H     H_    0.667425 0.139021 0.906375 0.134622
H14   H     H_    0.389034 0.823668 0.053872 0.151288
H15   H     H_    0.167616 0.639222 0.906370 0.134028
H16   H     H_    0.889010 0.323610 0.053872 0.151303
H17   H     H_    0.653479 0.173346 0.031764 0.142430
H18   H     H_    0.386248 0.837431 0.925730 0.167586
H19   H     H_    0.153632 0.673527 0.031759 0.142441
H20   H     H_    0.886234 0.337401 0.925735 0.167540
H21   H     H_    0.615188 0.016180 0.042179 0.177262
H22   H     H_    0.342515 0.684946 0.921236 0.157944
H23   H     H_    0.115231 0.516456 0.042137 0.177169
H24   H     H_    0.842491 0.184923 0.921225 0.157866
C77   C     C_R   0.454433 0.158304 0.563493 0.018488
C78   C     C_R   0.490846 0.160261 0.418515 0.016489
C79   C     C_R   0.983785 0.661938 0.570137 0.018638
C80   C     C_R   0.995731 0.662008 0.421245 0.016012
C81   C     C_R   0.460373 0.049609 0.525451 0.018977
C82   C     C_R   0.477392 0.050302 0.454283 0.023912
C83   C     C_R   0.977605 0.554015 0.531319 0.038834
C84   C     C_R   0.983604 0.553280 0.458621 0.022720
C85   C     C_R   0.477224 0.270126 0.453784 -0.182363
C86   C     C_R   0.460105 0.269091 0.526363 -0.169241
C87   C     C_R   0.989654 0.772703 0.458184 -0.182020
C88   C     C_R   0.986306 0.772594 0.532706 -0.176076
C89   C     C_3   0.506414 0.942132 0.540541 -0.270076
C90   C     C_3   0.524229 0.941676 0.462425 -0.271587
C91   C     C_3   0.016938 0.437513 0.540224 -0.281675
C92   C     C_3   0.024069 0.435887 0.460219 -0.273685
H25   H     H_    0.486792 0.356004 0.427177 0.116729
H26   H     H_    0.457213 0.354015 0.554378 0.123030
H27   H     H_    0.995252 0.858305 0.430223 0.118568
H28   H     H_    0.989408 0.857690 0.561078 0.121173
H29   H     H_    0.983942 0.362034 0.561115 0.126050
H30   H     H_    0.078845 0.447718 0.442383 0.177340
H31   H     H_    0.477403 0.859298 0.557551 0.117894
H32   H     H_    0.579609 0.965291 0.451983 0.169725
H33   H     H_    0.551893 0.965798 0.574673 0.160663
H34   H     H_    0.504457 0.860233 0.433535 0.127234
H35   H     H_    0.067427 0.450670 0.568365 0.147216
H36   H     H_    0.995511 0.359656 0.434533 0.123007
C93   C     C_R   0.749029 0.923386 0.578298 0.002900
C94   C     C_R   0.248727 0.936580 0.419109 0.007455
C95   C     C_R   0.247793 0.425860 0.579023 0.000936
C96   C     C_R   0.746870 0.430957 0.420666 0.009920
C97   C     C_R   0.788825 0.013145 0.543890 -0.010739
C98   C     C_R   0.196846 0.997577 0.458253 -0.008784
C99   C     C_R   0.283640 0.521682 0.545399 -0.011872
C100  C     C_R   0.693174 0.485080 0.460611 -0.004597
C101  C     C_R   0.789262 0.020130 0.470644 0.092818
C102  C     C_R   0.201006 0.008137 0.530877 0.072446
C103  C     C_R   0.286985 0.525490 0.471812 0.097046
C104  C     C_R   0.697717 0.495563 0.532899 0.074244
C105  C     C_R   0.701416 0.862409 0.463560 -0.184221
C106  C     C_R   0.313893 0.911903 0.528025 -0.160305
C107  C     C_R   0.204355 0.359678 0.463348 -0.185536
C108  C     C_R   0.814344 0.413069 0.528658 -0.155927
C109  C     C_R   0.701221 0.854174 0.537790 -0.167446
C110  C     C_R   0.311108 0.907868 0.453381 -0.140569
C111  C     C_R   0.203446 0.351806 0.537508 -0.173425
C112  C     C_R   0.810467 0.406752 0.454175 -0.146139
C113  C     C_3   0.865724 0.037353 0.547761 -0.249582
C114  C     C_3   0.120091 0.973383 0.462102 -0.241738
C115  C     C_3   0.357762 0.563100 0.552885 -0.253659
C116  C     C_3   0.616927 0.454799 0.464878 -0.238805
C117  C     C_3   0.866996 0.035895 0.467239 0.015031
C118  C     C_3   0.124430 0.989009 0.542135 0.008213
C119  C     C_3   0.364561 0.547903 0.473051 0.010753
C120  C     C_3   0.621783 0.470494 0.545064 0.005395
C121  C     C_R   0.748181 0.941848 0.429414 -0.002493
C122  C     C_R   0.256057 0.954319 0.567514 -0.005979
C123  C     C_R   0.249224 0.442694 0.429769 0.000358
C124  C     C_R   0.755233 0.448995 0.568815 -0.002292
H37   H     H_    0.666054 0.805654 0.433009 0.131069
H38   H     H_    0.360059 0.880259 0.554921 0.127463
H39   H     H_    0.171348 0.299325 0.432398 0.128476
H40   H     H_    0.862562 0.388458 0.554665 0.133952
H41   H     H_    0.668343 0.785770 0.562566 0.173120
H42   H     H_    0.355096 0.876228 0.422517 0.149286
H43   H     H_    0.173080 0.280060 0.561778 0.181148
H44   H     H_    0.854972 0.377206 0.423163 0.143473
H45   H     H_    0.895415 0.960586 0.569836 0.146600
H46   H     H_    0.109694 0.877562 0.446659 0.149163
H47   H     H_    0.392907 0.502506 0.581974 0.139799
H48   H     H_    0.607575 0.358363 0.449332 0.143594
H49   H     H_    0.876660 0.126881 0.573479 0.123139
H50   H     H_    0.089656 0.043565 0.433215 0.125345
H51   H     H_    0.359651 0.658784 0.572606 0.125329
H52   H     H_    0.584482 0.523078 0.436650 0.125921
H53   H     H_    0.892965 0.954559 0.443938 0.128795
H54   H     H_    0.112368 0.904929 0.573152 0.132387
H55   H     H_    0.394027 0.465435 0.457356 0.127166
H56   H     H_    0.611486 0.385233 0.575745 0.137912
N1    N     N_2   0.888323 0.151214 0.435836 -0.490050
H57   H     H_    0.907282 0.214207 0.471697 0.231807
C125  C     C_3   0.933238 0.142189 0.373790 -0.275558
H58   H     H_    0.932879 0.230394 0.344741 0.138624
H59   H     H_    0.915505 0.069411 0.336885 0.185969
H60   H     H_    0.987507 0.121829 0.390393 0.100149
N2    N     N_2   0.090514 0.099632 0.568132 -0.516501
H61   H     H_    0.068437 0.156606 0.530742 0.241533
C126  C     C_3   0.050035 0.088993 0.633012 -0.278661
H62   H     H_    0.039545 0.181589 0.654769 0.133816
H63   H     H_    0.078738 0.035727 0.673736 0.191223
H64   H     H_    0.999413 0.043851 0.622034 0.120109
N3    N     N_2   0.387219 0.658018 0.436904 -0.491729
H65   H     H_    0.409890 0.720787 0.470611 0.229430
C127  C     C_3   0.431712 0.639318 0.375221 -0.274519
H66   H     H_    0.431658 0.723132 0.342042 0.142991
H67   H     H_    0.413752 0.561435 0.342210 0.186564
H68   H     H_    0.486080 0.620747 0.392447 0.094666
N4    N     N_2   0.585756 0.578687 0.571739 -0.512786
H69   H     H_    0.559684 0.631346 0.534880 0.240946
C128  C     C_3   0.548121 0.564341 0.638155 -0.273862
H70   H     H_    0.528272 0.654563 0.656275 0.126995
H71   H     H_    0.582688 0.526822 0.679999 0.198530
H72   H     H_    0.503334 0.501551 0.631083 0.130683
O53   O     O_3   0.556872 0.378053 0.861816 -0.707213
H73   H     H_    0.578457 0.296609 0.854837 0.314780
O54   O     O_3   0.456552 0.406604 0.140275 -0.706795
H74   H     H_    0.429573 0.331782 0.151614 0.318756
O55   O     O_3   0.056886 0.878039 0.861822 -0.708137
H75   H     H_    0.078463 0.796588 0.854842 0.313130
O56   O     O_3   0.956549 0.906595 0.140275 -0.707217
H76   H     H_    0.929573 0.831770 0.151615 0.318650
O57   O     O_3   0.040939 0.104266 0.930504 -0.656341
H77   H     H_    0.052356 0.088813 0.879856 0.357632
O58   O     O_3   0.996487 0.117369 0.065489 -0.646105
H78   H     H_    0.983620 0.110210 0.116385 0.356936
O59   O     O_3   0.540933 0.604274 0.930498 -0.656174
H79   H     H_    0.552337 0.588822 0.879846 0.357482
O60   O     O_3   0.496493 0.617377 0.065488 -0.646088
H80   H     H_    0.483629 0.610217 0.116385 0.357054
O61   O     O_3   0.831581 0.707684 0.960808 -0.715671
H81   H     H_    0.827932 0.693693 0.909042 0.338355
O62   O     O_3   0.187395 0.109350 0.083019 -0.660661
H82   H     H_    0.209910 0.111679 0.130420 0.322930
O63   O     O_3   0.331513 0.207612 0.960808 -0.715966
H83   H     H_    0.327948 0.193717 0.909030 0.338576
O64   O     O_3   0.687439 0.609381 0.083028 -0.660663
H84   H     H_    0.709952 0.611680 0.130431 0.322979

loop_
_geom_bond_atom_site_label_1
_geom_bond_atom_site_label_2
_geom_bond_distance
_ccdc_geom_bond_type
C80   C87   1.399893 A    
O4    C12   1.258446 A    
C65   C69   1.515759 S    
O39   C19   1.280458 A    
O64   H84   0.990980 S    
C65   H11   1.112262 S    
C68   C72   1.519777 S    
C49   C65   1.490312 S    
Cr7   O51   1.978862 S    
C67   C71   1.515797 S    
C82   C90   1.497032 S    
C117  N1    1.451793 S    
O25   C21   1.264355 A    
C112  H44   1.078416 S    
C27   C31   1.423841 A    
O54   H74   0.990660 S    
C24   C124  1.443773 S    
O21   C9    1.274724 A    
C88   H28   1.074116 S    
C18   C77   1.454826 S    
C1    O9    1.272555 A    
O44   Cr12  2.066358 S    
C3    O11   1.272560 A    
C4    O12   1.261058 A    
C106  H38   1.076344 S    
C119  N3    1.449636 S    
C29   C37   1.423758 A    
O2    C10   1.258447 A    
C71   H19   1.111044 S    
N1    H57   1.030008 S    
O17   Cr9   2.077964 S    
C46   C62   1.411967 A    
C113  H45   1.097119 S    
C77   C81   1.391277 A    
O16   Cr8   1.954288 S    
N2    H61   1.031812 S    
C89   H33   1.112617 S    
C63   O63   1.380353 S    
C79   C83   1.392439 A    
C17   C78   1.453428 S    
O13   C5    1.272140 A    
O28   Cr4   2.067206 S    
O12   Cr8   2.066923 S    
O22   Cr10  1.946789 S    
O15   C7    1.272151 A    
O46   Cr10  1.955192 S    
C87   C88   1.401224 A    
C108  C112  1.403162 A    
C70   H22   1.111449 S    
C59   C75   1.392488 A    
C60   C76   1.412808 A    
C2    O10   1.261061 A    
C115  H51   1.110961 S    
C98   C114  1.492146 S    
O31   Cr3   1.940614 S    
C87   H27   1.080044 S    
C42   O58   1.383188 S    
C125  H60   1.107273 S    
N4    C128  1.446381 S    
H1    C33   1.082652 S    
C1    C48   1.445241 S    
Cr12  O52   1.979151 S    
H3    C35   1.082658 S    
C127  H67   1.108585 S    
C17   O41   1.254145 A    
C51   C55   1.373201 A    
C19   O43   1.256430 A    
C30   C38   1.423766 A    
C20   O44   1.260574 A    
C61   O61   1.380356 S    
C12   C76   1.446309 S    
Cr8   O52   1.978184 S    
C69   H21   1.106630 S    
O46   C22   1.276496 A    
C21   C121  1.445922 S    
C39   O55   1.381891 S    
C59   C63   1.398566 A    
H4    C36   1.078928 S    
C96   C112  1.396923 A    
C57   C61   1.398545 A    
C16   O36   1.269585 A    
C91   H35   1.111516 S    
C58   C62   1.385611 A    
O31   C15   1.286309 A    
O32   C16   1.273153 A    
C107  C123  1.398581 A    
C16   C93   1.453041 S    
C43   C44   1.398469 A    
C101  C121  1.397525 A    
C40   O56   1.383060 S    
C86   H26   1.068754 S    
C29   C30   1.420804 A    
C99   C115  1.494459 S    
O24   C12   1.284431 A    
C114  H50   1.107921 S    
C126  H62   1.110207 S    
C55   C71   1.485562 S    
O8    Cr4   1.947951 S    
N3    H65   1.030257 S    
C50   C54   1.379007 A    
C53   C69   1.485615 S    
O32   Cr4   1.943923 S    
C106  C110  1.404190 A    
H2    C34   1.078915 S    
O11   Cr7   2.068969 S    
C57   C73   1.392508 A    
C98   C102  1.371712 A    
O27   Cr3   2.070858 S    
O3    Cr3   2.060225 S    
C50   C66   1.496339 S    
C100  C104  1.365843 A    
C13   C96   1.448188 S    
Cr5   O49   1.978862 S    
C38   O54   1.383060 S    
O57   H77   0.989612 S    
C107  C111  1.396077 A    
C83   C91   1.490599 S    
C81   C89   1.497601 S    
C95   C99   1.402386 A    
C37   C43   1.412390 A    
C32   C40   1.423772 A    
C20   C79   1.449850 S    
O22   C10   1.284428 A    
C116  H52   1.108554 S    
C114  C118  1.515605 S    
C9    C73   1.428516 S    
C77   C86   1.403952 A    
C48   C52   1.404283 A    
O5    C1    1.270301 A    
C94   C110  1.393709 A    
C70   H18   1.106017 S    
C48   C64   1.411965 A    
O3    C11   1.264575 A    
O8    C4    1.271665 A    
O63   H83   0.986942 S    
C64   O64   1.380811 S    
C128  H71   1.108556 S    
Cr1   O49   1.989988 S    
C92   H30   1.105553 S    
C45   C49   1.383318 A    
Cr3   O51   1.989988 S    
C78   C82   1.402658 A    
C47   C51   1.383262 A    
C120  N4    1.457179 S    
C25   C29   1.423845 A    
O26   Cr2   2.067206 S    
C5    O17   1.278892 A    
O29   C13   1.283464 A    
O28   C24   1.267118 A    
O14   C6    1.278747 A    
C8    O20   1.269758 A    
C126  H64   1.106269 S    
C41   O57   1.383351 S    
C72   H24   1.111451 S    
O40   Cr8   1.947591 S    
C69   H17   1.111120 S    
C102  C118  1.492687 S    
C71   H23   1.106560 S    
C90   H32   1.106312 S    
O41   Cr9   2.065446 S    
C108  H40   1.079423 S    
C94   C98   1.400893 A    
C106  C122  1.407183 A    
C28   C32   1.425637 A    
C100  C116  1.496296 S    
C40   C42   1.412356 A    
C118  H54   1.113678 S    
O5    Cr1   1.951389 S    
O35   Cr7   2.068668 S    
O29   Cr1   1.940614 S    
O60   H80   0.989528 S    
Cr9   O49   1.978577 S    
C18   O42   1.288747 A    
Cr11  O51   1.978577 S    
O26   C22   1.265550 A    
C33   C34   1.374093 A    
O20   Cr12  2.076683 S    
C43   O59   1.383354 S    
C118  N2    1.456293 S    
O56   H76   0.990656 S    
N4    H69   1.031788 S    
O47   Cr11  1.956853 S    
C111  H43   1.077106 S    
C104  C120  1.493679 S    
C90   H34   1.109909 S    
C26   C30   1.425650 A    
O30   C14   1.275599 A    
O58   H78   0.989529 S    
C105  H37   1.083478 S    
C84   C92   1.500426 S    
O42   Cr10  2.066358 S    
C85   H25   1.080584 S    
O18   Cr10  2.076683 S    
O53   H73   0.990725 S    
C99   C103  1.384385 A    
C39   C41   1.412402 A    
C114  H46   1.105894 S    
O34   Cr6   2.071430 S    
O6    Cr2   1.947951 S    
C125  H59   1.109082 S    
C37   O53   1.381893 S    
O24   Cr12  1.946789 S    
O30   Cr2   1.943923 S    
O48   Cr12  1.955192 S    
C53   C73   1.392673 A    
C54   C70   1.487486 S    
C8    C27   1.478451 S    
O37   C17   1.282594 A    
C60   H8    1.083831 S    
C47   C63   1.430427 A    
Cr10  O50   1.979151 S    
C58   C74   1.412805 A    
C51   C67   1.490208 S    
O40   C20   1.274963 A    
O43   Cr11  2.065446 S    
O48   C24   1.273802 A    
C52   C68   1.496352 S    
O37   Cr5   1.949204 S    
O21   Cr9   1.945616 S    
O61   H81   0.987012 S    
C115  C119  1.513784 S    
O39   Cr7   1.949204 S    
O45   Cr9   1.956853 S    
O62   H82   0.990974 S    
C13   O33   1.257322 A    
C66   H12   1.110833 S    
O13   Cr5   1.952008 S    
C110  H42   1.076295 S    
O23   Cr11  1.945616 S    
C103  C123  1.402844 A    
O15   Cr7   1.952008 S    
C107  H39   1.083512 S    
N1    C125  1.447991 S    
C116  H48   1.109376 S    
O23   C11   1.274708 A    
C108  C124  1.411491 A    
C97   C113  1.495448 S    
C10   C74   1.446324 S    
C78   C85   1.396063 A    
C56   C72   1.487496 S    
C62   O62   1.380807 S    
C25   C34   1.403521 A    
O6    C2    1.271657 A    
C15   O35   1.257941 A    
C91   H29   1.110402 S    
C31   C39   1.423739 A    
C89   H31   1.109415 S    
O1    Cr1   2.060225 S    
O19   Cr11  2.077964 S    
C41   C42   1.398467 A    
C66   H14   1.109911 S    
O45   C21   1.279886 A    
C22   C122  1.448056 S    
O47   C23   1.284647 A    
C117  H53   1.108027 S    
C91   C92   1.508720 S    
C80   C84   1.401603 A    
C89   C90   1.505157 S    
C6    O18   1.269760 A    
C28   C35   1.392960 A    
C35   C36   1.374099 A    
C57   H5    1.083627 S    
O36   Cr8   2.071430 S    
C72   H20   1.106036 S    
C19   C80   1.451692 S    
C11   C75   1.428518 S    
O38   Cr6   1.947591 S    
C83   C84   1.370120 A    
C81   C82   1.374716 A    
C102  C122  1.391376 A    
C15   C94   1.454926 S    
C96   C100  1.399913 A    
C127  H68   1.108673 S    
C58   H6    1.083821 S    
O1    C9    1.264561 A    
C14   C95   1.457178 S    
C38   C44   1.412364 A    
C85   C86   1.400966 A    
O7    C3    1.270312 A    
C120  H56   1.114775 S    
C45   C61   1.430438 A    
C65   H13   1.111513 S    
C113  H49   1.111994 S    
C68   H16   1.109928 S    
N2    C126  1.445793 S    
C5    C26   1.479468 S    
C67   H15   1.111430 S    
C7    C28   1.479455 S    
C3    C46   1.445260 S    
C49   C53   1.373242 A    
O16   C8    1.278769 A    
C26   C33   1.392940 A    
O33   Cr5   2.068668 S    
C97   C101  1.378320 A    
C7    O19   1.278874 A    
C128  H70   1.110450 S    
Cr4   O52   1.990000 S    
O2    Cr2   2.063591 S    
O14   Cr6   1.954288 S    
Cr6   O50   1.978184 S    
O27   C23   1.261140 A    
C104  C124  1.389800 A    
C60   C64   1.385601 A    
O9    Cr5   2.068969 S    
C23   C123  1.449641 S    
C115  H47   1.092949 S    
C92   H36   1.107955 S    
C126  H63   1.109777 S    
C113  C117  1.512917 S    
O7    Cr3   1.951389 S    
O59   H79   0.989616 S    
C67   H9    1.112181 S    
N3    C127  1.448767 S    
C44   O60   1.383185 S    
C95   C111  1.409515 A    
C93   C109  1.411195 A    
C31   C32   1.420793 A    
C105  C109  1.397609 A    
O55   H75   0.990729 S    
C109  H41   1.081918 S    
Cr2   O50   1.990000 S    
C46   C50   1.404275 A    
C6    C25   1.478450 S    
C54   C74   1.388450 A    
C127  H66   1.110038 S    
C27   C36   1.403525 A    
C4    C45   1.431563 S    
O38   C18   1.301614 A    
O25   Cr1   2.070858 S    
C66   C70   1.519803 S    
C68   H10   1.110835 S    
C125  H58   1.109911 S    
C14   O34   1.270006 A    
C103  C119  1.503087 S    
C101  C117  1.496798 S    
C93   C97   1.399721 A    
C105  C121  1.401087 A    
C119  H55   1.103186 S    
O10   Cr6   2.066923 S    
C128  H72   1.105915 S    
O4    Cr4   2.063591 S    
C55   C75   1.392627 A    
C56   C76   1.388466 A    
C116  C120  1.519153 S    
C2    C47   1.431550 S    
C52   C56   1.379031 A    
C59   H7    1.083607 S    
C79   C88   1.402340 A    
