data_mof_unit_33133.cif
_audit_creation_date              2012-12-10T17:02:44-0500
_audit_creation_method            fapswitch 2.2
_symmetry_space_group_name_H-M    P1
_symmetry_Int_Tables_number       1
_space_group_crystal_system       triclinic
_cell_length_a                    19.033341
_cell_length_b                    18.697742
_cell_length_c                    19.004755
_cell_angle_alpha                 109.523728
_cell_angle_beta                  110.431097
_cell_angle_gamma                 109.037063
_cell_volume                      5168.40604925

loop_
_atom_site_label
_atom_site_type_symbol
_atom_type_description
_atom_site_fract_x
_atom_site_fract_y
_atom_site_fract_z
_atom_type_partial_charge
C1    C     C_R   0.380084 0.380112 0.498155 0.942890
C2    C     C_3   0.809817 0.501933 0.811261 0.175549
C3    C     C_3   0.848935 0.578406 0.795937 -0.367657
C4    C     C_3   0.744279 0.512956 0.838135 -0.421891
C5    C     C_R   0.410964 0.371141 0.660392 0.344957
C6    C     C_R   0.427201 0.354458 0.730200 0.268610
C7    C     C_R   0.355201 0.299005 0.729141 0.254707
C8    C     C_R   0.272396 0.267603 0.661213 0.366260
C9    C     C_R   0.261502 0.255036 0.579390 -0.172270
C10   C     C_R   0.329817 0.313447 0.578548 -0.156354
C11   C     C_R   0.186296 0.184542 0.500133 -0.091264
C12   C     C_R   0.618449 0.498949 0.619717 0.848478
C13   C     C_R   0.178600 0.171174 0.419605 0.010496
C14   C     C_R   0.237555 0.237095 0.415436 -0.090186
C15   C     C_R   0.314244 0.310517 0.497195 -0.111665
C16   C     C_R   0.113402 0.090335 0.342851 -0.250052
C17   C     C_R   0.094794 0.078374 0.261871 -0.321948
C18   C     C_R   0.141138 0.146644 0.253034 0.437928
C19   C     C_R   0.217147 0.223510 0.329104 0.399615
C20   C     C_R   0.235164 0.503209 0.390384 -0.332730
C21   C     C_R   0.179478 0.528109 0.411369 0.466065
C22   C     C_R   0.126313 0.545762 0.355821 0.440651
C23   C     C_R   0.622988 0.618678 0.505037 0.901586
C24   C     C_R   0.130151 0.540145 0.282254 -0.333397
C25   C     C_R   0.186677 0.516057 0.261910 -0.023998
C26   C     C_R   0.246593 0.506947 0.321557 0.012590
C27   C     C_R   0.183222 0.499279 0.182565 -0.131024
C28   C     C_R   0.244630 0.482800 0.165986 -0.008979
C29   C     C_R   0.317253 0.493182 0.233320 -0.018760
C30   C     C_R   0.315607 0.501417 0.310878 -0.136861
C31   C     C_R   0.233457 0.454877 0.082000 -0.169560
C32   C     C_R   0.294949 0.443293 0.065474 -0.212958
C33   C     C_R   0.371537 0.464592 0.132742 -0.251217
C34   C     C_R   0.382815 0.501987 0.379985 0.893858
C35   C     C_R   0.387205 0.494500 0.219060 0.475511
C36   C     C_R   0.588527 0.738378 0.462247 -0.136726
C37   C     C_R   0.573882 0.805729 0.462441 -0.232281
C38   C     C_R   0.640223 0.882419 0.483696 -0.218048
C39   C     C_R   0.720666 0.890174 0.495651 0.513545
C40   C     C_R   0.737227 0.820005 0.496244 -0.016479
C41   C     C_R   0.671902 0.747692 0.487728 -0.002628
C42   C     C_R   0.814432 0.817531 0.504235 -0.163075
C43   C     C_R   0.829050 0.750399 0.515213 -0.166259
C44   C     C_R   0.770201 0.689061 0.523559 -0.068462
C45   C     C_3   0.693465 0.415274 0.651783 -0.372709
C46   C     C_R   0.689736 0.685744 0.505305 -0.126708
C47   C     C_R   0.901711 0.741371 0.518290 0.449553
C48   C     C_R   0.935456 0.706397 0.566924 0.367315
C49   C     C_R   0.882971 0.656986 0.587881 -0.441779
C50   C     C_R   0.794991 0.632827 0.548854 0.388176
C51   C     C_R   0.000920 0.379901 0.883758 0.834754
C52   C     C_R   0.878250 0.501533 0.879385 0.730952
C53   C     C_R   0.002661 0.619809 0.119949 0.854822
C54   C     C_R   0.116177 0.500522 0.116803 0.836745
C55   C     C_R   0.996861 0.878269 0.381274 0.903346
C56   C     C_3   0.760721 0.414015 0.724833 -0.389835
C57   C     C_R   0.118674 0.119364 0.500981 0.871532
C58   C     C_R   0.002485 0.122230 0.617632 0.945513
C59   C     C_R   0.881186 0.883987 0.502744 0.937027
C60   C     C_R   0.954179 0.371300 0.721345 -0.147397
C61   C     C_R   0.940498 0.376179 0.647200 -0.231663
C62   C     C_R   0.961634 0.330701 0.592042 -0.242162
C63   C     C_R   0.995872 0.277827 0.609566 0.461204
C64   C     C_R   0.992541 0.258664 0.676069 -0.037180
C65   C     C_R   0.981685 0.313900 0.738098 0.014600
C66   C     C_R   0.996493 0.185737 0.682030 -0.114367
C67   C     C_3   0.776222 0.581067 0.729800 -0.406020
C68   C     C_R   0.979473 0.164717 0.741605 -0.054349
C69   C     C_R   0.985291 0.228595 0.813109 -0.077803
C70   C     C_R   0.993621 0.308064 0.813506 -0.130533
C71   C     C_R   0.950942 0.078243 0.726905 -0.294603
C72   C     C_R   0.927279 0.053662 0.780048 0.384835
C73   C     C_R   0.933329 0.116144 0.850727 0.320425
C74   C     C_R   0.975626 0.206085 0.876060 0.289707
C75   C     C_R   0.169386 0.782054 0.277461 0.489244
C76   C     C_R   0.240104 0.869399 0.335588 -0.251489
C77   C     C_R   0.230419 0.935384 0.383435 -0.203179
C78   C     C_3   0.668280 0.502692 0.762661 -0.311928
C79   C     C_R   0.151433 0.916722 0.376907 -0.143332
C80   C     C_R   0.077650 0.832008 0.317222 0.011217
C81   C     C_R   0.084045 0.766287 0.259845 0.004198
C82   C     C_R   0.997090 0.813851 0.311926 -0.178824
C83   C     C_R   0.918125 0.741634 0.235131 -0.043000
C84   C     C_R   0.924268 0.686589 0.168359 0.010107
C85   C     C_R   0.004606 0.690543 0.185804 -0.178301
C86   C     C_R   0.833105 0.723297 0.220265 0.524269
C87   C     C_R   0.762257 0.670553 0.133342 -0.241153
C88   C     C_R   0.771637 0.626070 0.066057 -0.243520
C89   C     C_3   0.687423 0.499436 0.689093 0.124026
C90   C     C_R   0.850275 0.630631 0.083589 -0.145346
Cu1   Cu    Cu3+1 0.500360 0.438220 0.438540 0.930585
Cu2   Cu    Cu3+1 0.499640 0.561780 0.561460 0.920139
Cu3   Cu    Cu3+1 0.935530 0.438290 0.997340 0.931369
Cu4   Cu    Cu3+1 0.059130 0.561800 0.997250 0.935223
Cu5   Cu    Cu3+1 0.937870 0.000030 0.437890 0.979513
Cu6   Cu    Cu3+1 0.062130 0.000000 0.562130 0.994649
H1    H     H_    0.713069 0.412707 0.603012 0.163386
H2    H     H_    0.777051 0.579319 0.895562 0.153038
H3    H     H_    0.774902 0.641912 0.762627 0.170607
H4    H     H_    0.888732 0.642259 0.858203 0.167240
H5    H     H_    0.075163 0.033820 0.343750 0.166898
H6    H     H_    0.043058 0.014815 0.206535 0.162444
H7    H     H_    0.629194 0.355630 0.618592 0.160746
H8    H     H_    0.417812 0.457691 0.114847 0.142351
H9    H     H_    0.267681 0.479125 0.426974 0.183591
H10   H     H_    0.089466 0.556415 0.242255 0.184558
H11   H     H_    0.175522 0.438802 0.026993 0.152783
H12   H     H_    0.284431 0.420479 0.000314 0.158957
H13   H     H_    0.907024 0.628119 0.624069 0.163831
H14   H     H_    0.727518 0.358621 0.732783 0.179204
H15   H     H_    0.533453 0.679623 0.443989 0.171238
H16   H     H_    0.511161 0.799226 0.448393 0.156347
H17   H     H_    0.627396 0.935601 0.488655 0.136048
H18   H     H_    0.938007 0.409560 0.762776 0.144528
H19   H     H_    0.915326 0.417287 0.633668 0.146812
H20   H     H_    0.806615 0.402444 0.705850 0.142713
H21   H     H_    0.952407 0.338445 0.536224 0.142186
H22   H     H_    0.938459 0.026027 0.669233 0.184206
H23   H     H_    0.717039 0.586145 0.000048 0.154775
H24   H     H_    0.304313 0.888660 0.345636 0.135065
H25   H     H_    0.285272 0.001411 0.427568 0.153927
H26   H     H_    0.148560 0.971312 0.416628 0.131932
H27   H     H_    0.791150 0.583967 0.679388 0.199122
H28   H     H_    0.698750 0.662629 0.116675 0.144213
H29   H     H_    0.853372 0.593091 0.028776 0.142533
H30   H     H_    0.892196 0.569576 0.770921 0.169509
H31   H     H_    0.656651 0.557810 0.788179 0.185283
H32   H     H_    0.609646 0.440227 0.736005 0.243657
H33   H     H_    0.718724 0.463867 0.856379 0.186578
O1    O     O_R   0.410140 0.357660 0.448100 -0.581433
O2    O     O_R   0.049980 0.462000 0.907580 -0.606483
O3    O     O_R   0.854480 0.447890 0.906670 -0.597667
O4    O     O_R   0.958860 0.552200 0.906600 -0.600818
O5    O     O_R   0.944670 0.538090 0.087010 -0.612879
O6    O     O_R   0.049050 0.642400 0.086940 -0.546560
O7    O     O_R   0.035800 0.447890 0.088000 -0.587749
O8    O     O_R   0.140170 0.552200 0.087920 -0.583275
O9    O     O_R   0.948030 0.909890 0.357850 -0.576010
O10   O     O_R   0.052970 0.909860 0.462770 -0.564485
O11   O     O_R   0.037700 0.090200 0.447550 -0.601322
O12   O     O_R   0.409530 0.462000 0.551910 -0.574521
O13   O     O_R   0.142640 0.090170 0.552470 -0.588380
O14   O     O_R   0.947030 0.090160 0.537260 -0.559142
O15   O     O_R   0.051970 0.090130 0.642170 -0.596576
O16   O     O_R   0.857360 0.909860 0.447560 -0.536625
O17   O     O_R   0.962300 0.909830 0.552480 -0.575325
O18   O     O_R   0.590960 0.447830 0.538760 -0.598141
O19   O     O_R   0.590350 0.552170 0.642570 -0.586530
O20   O     O_R   0.590470 0.538000 0.448090 -0.546487
O21   O     O_R   0.589860 0.642340 0.551900 -0.605373
O22   O     O_R   0.409650 0.447830 0.357430 -0.550575
O23   O     O_R   0.409040 0.552170 0.461240 -0.623367
O24   O     O_R   0.945600 0.357690 0.907660 -0.533978
O25   O     O_3   0.122059 0.139468 0.171994 -0.634887
C91   C     C_3   0.035680 0.077354 0.102636 0.044715
H34   H     H_    0.017311 0.105636 0.061285 0.198501
H35   H     H_    0.987381 0.064960 0.123700 0.130832
C92   C     C_3   0.030422 0.993003 0.045667 -0.358491
H36   H     H_    0.074116 0.009026 0.020047 0.219122
H37   H     H_    0.052327 0.963515 0.084556 0.214370
C93   C     C_3   0.938251 0.926003 0.969139 -0.906460
H38   H     H_    0.893524 0.907700 0.993097 0.249579
H39   H     H_    0.936650 0.866046 0.928737 0.248384
H40   H     H_    0.915854 0.953287 0.927834 0.296145
O26   O     O_3   0.475899 0.444632 0.674878 -0.560670
C94   C     C_3   0.479612 0.519676 0.731963 -0.252509
H41   H     H_    0.510719 0.533404 0.799869 0.152286
H42   H     H_    0.414407 0.513577 0.711039 0.122712
H43   H     H_    0.520031 0.577832 0.732053 0.187030
O27   O     O_3   0.514741 0.395436 0.793808 -0.627435
C95   C     C_3   0.534593 0.407543 0.877252 0.139502
H44   H     H_    0.605741 0.435771 0.915706 0.123915
H45   H     H_    0.508794 0.344726 0.876293 0.188919
C96   C     C_3   0.513375 0.473934 0.925394 -0.331980
H46   H     H_    0.554943 0.539491 0.937454 0.183858
H47   H     H_    0.444821 0.455223 0.886083 0.223360
C97   C     C_3   0.530045 0.480712 0.012455 -0.945371
H48   H     H_    0.486515 0.416858 0.002091 0.277165
H49   H     H_    0.517567 0.531331 0.047602 0.245128
H50   H     H_    0.598500 0.499690 0.053012 0.249237
O28   O     O_3   0.363085 0.285081 0.797876 -0.589500
C98   C     C_3   0.334696 0.195475 0.769344 -0.285252
H51   H     H_    0.367416 0.171601 0.736558 0.138794
H52   H     H_    0.263162 0.154684 0.725769 0.218322
H53   H     H_    0.351724 0.187154 0.827036 0.165969
O29   O     O_3   0.202960 0.247802 0.674375 -0.539966
C99   C     C_3   0.215963 0.326376 0.736033 -0.274064
H54   H     H_    0.219506 0.373681 0.712342 0.119322
H55   H     H_    0.274478 0.357801 0.800780 0.180543
H56   H     H_    0.160959 0.311132 0.746859 0.179257
O30   O     O_3   0.267691 0.286612 0.318009 -0.589968
C100  C     C_3   0.296094 0.250395 0.262218 -0.149825
H57   H     H_    0.262119 0.246605 0.199135 0.175130
H58   H     H_    0.288146 0.184952 0.250719 0.114141
H59   H     H_    0.366098 0.293659 0.290913 0.175908
O31   O     O_3   0.171165 0.532153 0.482394 -0.588716
C101  C     C_3   0.249337 0.557633 0.554490 -0.353930
H60   H     H_    0.306555 0.611857 0.565263 0.174506
H61   H     H_    0.258185 0.500233 0.547240 0.169232
H62   H     H_    0.245209 0.582319 0.613858 0.183183
O32   O     O_3   0.074083 0.574250 0.376844 -0.596767
C102  C     C_3   0.988521 0.503000 0.331419 0.051733
H63   H     H_    0.963436 0.512305 0.376514 0.159724
H64   H     H_    0.984221 0.437612 0.312018 0.123402
C103  C     C_3   0.930728 0.502850 0.251324 -0.349012
H65   H     H_    0.946837 0.571134 0.267529 0.233741
H66   H     H_    0.942583 0.474562 0.198145 0.225700
C104  C     C_3   0.834779 0.448848 0.218810 -0.936477
H67   H     H_    0.817010 0.380228 0.202410 0.253195
H68   H     H_    0.795160 0.448374 0.159542 0.266891
H69   H     H_    0.819985 0.477964 0.269237 0.250884
O33   O     O_3   0.468706 0.528808 0.290611 -0.632418
C105  C     C_3   0.536947 0.539154 0.273122 0.079650
H70   H     H_    0.598589 0.589926 0.334550 0.165964
H71   H     H_    0.536361 0.566990 0.229692 0.112689
C106  C     C_3   0.540935 0.454153 0.242577 -0.329499
H72   H     H_    0.550396 0.435593 0.293390 0.231830
H73   H     H_    0.479340 0.398821 0.182798 0.198356
C107  C     C_3   0.614930 0.465628 0.224834 -0.987634
H74   H     H_    0.603883 0.479853 0.171142 0.265621
H75   H     H_    0.618282 0.404393 0.205578 0.264775
H76   H     H_    0.677686 0.520357 0.283932 0.250292
O34   O     O_3   0.784772 0.968751 0.514971 -0.591203
C108  C     C_3   0.750065 0.001790 0.462674 -0.273753
H77   H     H_    0.731480 0.046773 0.496281 0.148141
H78   H     H_    0.694470 0.949019 0.396103 0.127043
H79   H     H_    0.799302 0.040421 0.452490 0.207506
O35   O     O_3   0.934901 0.759100 0.468114 -0.528992
C109  C     C_3   0.904751 0.678612 0.395430 -0.245275
H80   H     H_    0.832869 0.641635 0.354567 0.139222
H81   H     H_    0.927596 0.636930 0.414529 0.141897
H82   H     H_    0.931372 0.692082 0.355331 0.193937
O36   O     O_3   0.018911 0.720840 0.591244 -0.578197
C110  C     C_3   0.020743 0.641302 0.564508 0.070136
H83   H     H_    0.055780 0.641433 0.528444 0.206071
H84   H     H_    0.955449 0.581084 0.518718 0.113870
C111  C     C_3   0.070907 0.636407 0.643936 -0.333032
H85   H     H_    0.140118 0.688298 0.680695 0.224916
H86   H     H_    0.044788 0.647802 0.687936 0.211403
C112  C     C_3   0.064522 0.546921 0.616447 -0.945699
H87   H     H_    0.995723 0.494753 0.580609 0.245964
H88   H     H_    0.101260 0.544561 0.674819 0.258606
H89   H     H_    0.091464 0.534301 0.573472 0.296269
O37   O     O_3   0.733755 0.554815 0.533049 -0.609905
C113  C     C_3   0.747436 0.483199 0.500034 0.088455
H90   H     H_    0.692771 0.423863 0.485211 0.165461
H91   H     H_    0.806496 0.491340 0.549881 0.114751
C114  C     C_3   0.746217 0.462477 0.413984 -0.376443
H92   H     H_    0.680186 0.439058 0.362732 0.231328
H93   H     H_    0.792334 0.521176 0.418859 0.200778
C115  C     C_3   0.769414 0.391002 0.387006 -0.964090
H94   H     H_    0.836529 0.413698 0.436273 0.252360
H95   H     H_    0.765355 0.375285 0.323502 0.262568
H96   H     H_    0.723678 0.330479 0.380098 0.255580
O38   O     O_3   0.900233 0.090086 0.897695 -0.628196
C116  C     C_3   0.808892 0.052300 0.852219 0.075411
H97   H     H_    0.783037 0.011860 0.878198 0.157979
H98   H     H_    0.777820 0.006830 0.781164 0.175370
C117  C     C_3   0.782506 0.122943 0.866830 -0.352905
H99   H     H_    0.812063 0.166771 0.937633 0.220055
H100  H     H_    0.805882 0.163153 0.839601 0.235528
C118  C     C_3   0.684278 0.081883 0.822851 -0.942661
H101  H     H_    0.653208 0.038869 0.751558 0.260357
H102  H     H_    0.667208 0.134434 0.834331 0.258630
H103  H     H_    0.658942 0.042700 0.850072 0.254632
O39   O     O_3   0.028862 0.241934 0.561321 -0.597981
C119  C     C_3   0.070837 0.296642 0.534990 0.072076
H104  H     H_    0.132797 0.298083 0.548767 0.172153
H105  H     H_    0.090568 0.366904 0.572819 0.121929
C120  C     C_3   0.015607 0.258467 0.436649 -0.359011
H106  H     H_    0.011722 0.195430 0.400832 0.246912
H107  H     H_    0.948564 0.244925 0.418061 0.205555
C121  C     C_3   0.054049 0.320801 0.408283 -0.902378
H108  H     H_    0.052460 0.381881 0.438454 0.286874
H109  H     H_    0.015116 0.289578 0.336448 0.245159
H110  H     H_    0.121871 0.336780 0.427530 0.265921
O40   O     O_3   0.888909 0.966537 0.758158 -0.566954
C122  C     C_3   0.951033 0.939411 0.768848 -0.295337
H111  H     H_    0.009562 0.983654 0.835422 0.153868
H112  H     H_    0.969367 0.934526 0.718648 0.169074
H113  H     H_    0.921997 0.872938 0.760311 0.189942
O41   O     O_3   0.995468 0.269134 0.955483 -0.590014
C123  C     C_3   0.043518 0.262803 0.027259 0.141175
H114  H     H_    0.107283 0.323056 0.069679 0.150640
H115  H     H_    0.057936 0.208329 0.010421 0.116576
C124  C     C_3   0.997447 0.256987 0.079215 -0.330485
H116  H     H_    0.967393 0.298957 0.080422 0.238908
H117  H     H_    0.944225 0.188855 0.046712 0.221283
C125  C     C_3   0.058579 0.284431 0.172985 -0.894444
H118  H     H_    0.117008 0.279396 0.180576 0.297353
H119  H     H_    0.024353 0.242343 0.193190 0.242669
H120  H     H_    0.079290 0.352807 0.217547 0.262356
O42   O     O_3   0.180215 0.712178 0.236720 -0.622180
C126  C     C_3   0.266917 0.728999 0.274111 0.076175
H121  H     H_    0.265322 0.667427 0.266314 0.172283
H122  H     H_    0.306731 0.773537 0.345948 0.118397
C127  C     C_3   0.309567 0.757824 0.225818 -0.334031
H123  H     H_    0.273444 0.704341 0.157013 0.244139
H124  H     H_    0.307323 0.816212 0.225328 0.201558
C128  C     C_3   0.403615 0.778952 0.267533 -0.947342
H125  H     H_    0.442081 0.835262 0.335204 0.249795
H126  H     H_    0.431925 0.796797 0.229689 0.255481
H127  H     H_    0.407416 0.721088 0.268195 0.267517
O43   O     O_3   0.822163 0.757850 0.290635 -0.563009
C129  C     C_3   0.737343 0.709430 0.273006 -0.341834
H128  H     H_    0.711164 0.637432 0.237250 0.147153
H129  H     H_    0.693580 0.728472 0.237713 0.163125
H130  H     H_    0.738803 0.725112 0.334970 0.191369

loop_
_geom_bond_atom_site_label_1
_geom_bond_atom_site_label_2
_ccdc_geom_bond_type
C8    C9    A    
C66   C68   A    
C87   C88   A    
C49   C50   A    
Cu5   O14   S    
O26   C94   S    
C4    H2    S    
C91   H35   S    
C33   H8    S    
C11   C13   A    
C127  H123  S    
C60   H18   S    
O34   C108  S    
Cu5   O16   S    
C106  C107  S    
C111  H86   S    
C35   O33   S    
C117  C118  S    
C78   H32   S    
C108  H77   S    
C125  H120  S    
Cu6   O10   S    
Cu1   O18   S    
C93   H38   S    
C3    H30   S    
C7    C8    A    
C94   H42   S    
Cu1   O1    S    
O28   C98   S    
C114  H92   S    
C95   H45   S    
C117  H99   S    
Cu5   O11   S    
C62   C63   A    
C55   O9    A    
C102  H64   S    
C57   O13   A    
C5    C6    A    
C12   O18   A    
C21   C22   A    
C28   C29   A    
C106  H73   S    
C18   C19   A    
C109  H82   S    
C50   O37   S    
C10   C15   A    
C104  H69   S    
C6    O27   S    
C124  H116  S    
C18   O25   S    
C119  C120  S    
C103  C104  S    
C54   O8    A    
C17   H6    S    
O27   C95   S    
C45   H1    S    
C65   C70   A    
C116  C117  S    
C67   C89   S    
C121  H110  S    
C55   O10   A    
O37   C113  S    
C124  H117  S    
C17   C18   A    
C72   O40   S    
C73   C74   A    
C11   C57   S    
C101  H61   S    
C98   H51   S    
C62   H21   S    
C45   H7    S    
C92   C93   S    
C121  H109  S    
C73   O38   S    
C3    H4    S    
C58   C66   S    
C122  H111  S    
C51   O24   A    
C47   O35   S    
Cu5   Cu6   S    
C45   C56   S    
C128  H126  S    
C16   C17   A    
C99   H56   S    
C122  H113  S    
C116  H98   S    
C61   H19   S    
C47   C48   A    
C41   C46   A    
C120  H107  S    
C1    C15   S    
C51   C70   S    
C5    O26   S    
Cu3   O3    S    
C45   C89   S    
O36   C110  S    
C118  H101  S    
C48   O36   S    
C22   O32   S    
C114  C115  S    
C67   H3    S    
C115  H95   S    
C72   C73   A    
Cu3   O7    S    
C40   C42   A    
C23   O20   A    
O33   C105  S    
C23   C46   S    
C13   C14   A    
C123  C124  S    
C92   H37   S    
C52   O4    A    
C127  H124  S    
C120  C121  S    
O42   C126  S    
C36   C41   A    
C61   C62   A    
C110  H84   S    
C118  H103  S    
C78   H31   S    
C58   O14   A    
C56   H14   S    
O35   C109  S    
C93   H39   S    
C109  H80   S    
C44   C46   A    
Cu4   O6    S    
C91   C92   S    
C98   H52   S    
C76   C77   A    
C105  H71   S    
C78   C89   S    
C38   C39   A    
C95   C96   S    
Cu1   O22   S    
C114  H93   S    
C30   C34   S    
O30   C100  S    
C52   O3    A    
C100  H59   S    
C12   C89   S    
C115  H94   S    
C84   C85   A    
C77   H25   S    
C24   C25   A    
C126  C127  S    
C80   C82   A    
C1    O1    A    
C102  H63   S    
C104  H67   S    
Cu1   Cu2   S    
Cu1   O20   S    
C38   H17   S    
C51   O2    A    
C86   C87   A    
O31   C101  S    
C115  H96   S    
C118  H102  S    
C127  C128  S    
C97   H49   S    
C25   C26   A    
C103  H65   S    
Cu6   O13   S    
C39   O34   S    
C112  H89   S    
C63   C64   A    
C57   O11   A    
C67   H27   S    
C60   C61   A    
C88   H23   S    
C110  C111  S    
C100  H58   S    
C101  H62   S    
C2    C4    S    
C75   C76   A    
C28   C31   A    
C4    C78   S    
C37   C38   A    
C7    O28   S    
Cu6   O15   S    
C110  H83   S    
C16   H5    S    
C99   H54   S    
C83   C84   A    
C96   C97   S    
C105  H70   S    
C79   H26   S    
C119  H104  S    
C97   H50   S    
C54   O7    A    
C116  H97   S    
C36   H15   S    
C112  H88   S    
C125  H118  S    
C56   H20   S    
C77   C79   A    
C69   C74   A    
Cu3   Cu4   S    
C76   H24   S    
C106  H72   S    
C55   C82   S    
Cu2   O12   S    
C9    C11   A    
C95   H44   S    
C64   C66   A    
O25   C91   S    
C4    H33   S    
C2    C52   S    
C97   H48   S    
C59   O16   A    
C69   C70   A    
C40   C41   A    
C23   O21   A    
C88   C90   A    
C60   C65   A    
C26   C30   A    
C123  H114  S    
C86   O43   S    
C27   C54   S    
C43   C44   A    
Cu2   O21   S    
C92   H36   S    
C129  H130  S    
C22   C24   A    
C53   O6    A    
C13   C16   A    
C24   H10   S    
C42   C43   A    
Cu3   O5    S    
O38   C116  S    
C108  H79   S    
C107  H74   S    
C93   H40   S    
C128  H125  S    
C49   H13   S    
C20   H9    S    
C9    C10   A    
C105  C106  S    
C44   C50   A    
C111  C112  S    
C36   C37   A    
Cu5   O9    S    
C34   O23   A    
C32   C33   A    
C124  C125  S    
C120  H106  S    
C31   H11   S    
C14   C19   A    
C68   C69   A    
C31   C32   A    
C3    C67   S    
C53   O5    A    
C113  H90   S    
C80   C81   A    
C117  H100  S    
C108  H78   S    
C42   C59   S    
C34   O22   A    
C128  H127  S    
O43   C129  S    
C6    C7    A    
C75   C81   A    
C25   C27   A    
Cu6   O17   S    
C29   C35   A    
O41   C123  S    
Cu4   O2    S    
O32   C102  S    
C8    O29   S    
C100  H57   S    
C12   O19   A    
C113  H91   S    
C2    C3    S    
C71   C72   A    
C109  H81   S    
C104  H68   S    
C2    C56   S    
C64   C65   A    
C107  H76   S    
C126  H122  S    
Cu2   O19   S    
C119  H105  S    
C126  H121  S    
C94   H41   S    
C20   C26   A    
Cu4   O4    S    
C68   C71   A    
C48   C49   A    
C111  H85   S    
Cu3   O24   S    
C112  H87   S    
C33   C35   A    
C90   H29   S    
C122  H112  S    
C107  H75   S    
C21   O31   S    
C101  H60   S    
C63   O39   S    
C96   H47   S    
C129  H129  S    
C99   H55   S    
C1    O12   A    
O39   C119  S    
C84   C90   A    
C29   C30   A    
C79   C80   A    
C39   C40   A    
C59   O17   A    
C58   O15   A    
Cu2   O23   S    
C5    C10   A    
C83   C86   A    
C87   H28   S    
C20   C21   A    
C74   O41   S    
C94   H43   S    
C75   O42   S    
C129  H128  S    
C32   H12   S    
C113  C114  S    
C91   H34   S    
Cu4   O8    S    
C14   C15   A    
C125  H119  S    
C53   C85   S    
C102  C103  S    
C82   C83   A    
O29   C99   S    
O40   C122  S    
C103  H66   S    
C43   C47   A    
C98   H53   S    
C81   C85   A    
C37   H16   S    
C71   H22   S    
C19   O30   S    
C123  H115  S    
C27   C28   A    
C96   H46   S    
C121  H108  S    
