data_mof_unit_61119.cif
_audit_creation_date              2012-12-11T16:04:09-0500
_audit_creation_method            fapswitch 2.2
_symmetry_space_group_name_H-M    P1
_symmetry_Int_Tables_number       1
_space_group_crystal_system       triclinic
_cell_length_a                    20.003087
_cell_length_b                    19.96883
_cell_length_c                    20.044221
_cell_angle_alpha                 106.990521
_cell_angle_beta                  111.032839
_cell_angle_gamma                 110.608907
_cell_volume                      6139.81230851

loop_
_atom_site_label
_atom_site_type_symbol
_atom_type_description
_atom_site_fract_x
_atom_site_fract_y
_atom_site_fract_z
_atom_type_partial_charge
C1    C     C_R   0.071390 0.342758 0.070493 -0.202009
C2    C     C_R   0.999508 0.545392 0.770806 -0.408580
C3    C     C_R   0.785523 0.258650 0.757419 -0.186986
C4    C     C_R   0.274267 0.543672 0.045470 -0.189696
C5    C     C_R   0.228744 0.658182 0.227987 -0.224086
C6    C     C_R   0.785446 0.520760 0.950680 -0.085872
C7    C     C_R   0.932576 0.463135 0.167781 0.760579
C8    C     C_R   0.070412 0.735759 0.039835 -0.070935
C9    C     C_R   0.930754 0.666908 0.967557 -0.048183
C10   C     C_R   0.071770 0.536769 0.236114 -0.203946
C11   C     C_R   0.229086 0.727256 0.158777 0.736400
C12   C     C_R   0.930574 0.502105 0.773017 0.668557
C13   C     C_R   0.785520 0.451408 0.020255 -0.050718
C14   C     C_R   0.274543 0.729703 0.230454 -0.138674
C15   C     C_R   0.752428 0.494636 0.993700 0.027860
C16   C     C_R   0.002854 0.515898 0.243971 -0.136617
C17   C     C_R   0.000971 0.742907 0.022031 0.019407
C18   C     C_3   0.518897 0.517170 0.998579 0.734429
C19   C     C_3   0.496733 0.502287 0.060802 -0.575324
C20   C     C_1   0.358206 0.568685 0.071537 0.104330
C21   C     C_1   0.704085 0.519624 0.018270 0.019940
C22   C     C_3   0.519868 0.597535 0.024163 0.767703
C23   C     C_R   0.806166 0.264881 0.833170 0.771049
C24   C     C_3   0.498090 0.583866 0.086769 -0.434453
C25   C     C_3   0.613964 0.645176 0.088773 -0.534865
C26   C     C_3   0.611721 0.563198 0.062677 -0.435779
C27   C     C_3   0.590874 0.630452 0.151575 0.772202
C28   C     C_3   0.590380 0.549570 0.125482 0.767625
C29   C     C_1   0.425807 0.582420 0.085673 0.304119
C30   C     C_1   0.664496 0.541705 0.040451 0.306736
C31   C     C_3   0.956980 0.488349 0.521022 0.520744
C32   C     C_3   0.093346 0.623121 0.605345 1.234963
C33   C     C_3   0.094221 0.616393 0.526656 0.328882
C34   C     C_R   0.229137 0.569930 0.001970 0.841090
C35   C     C_1   0.004144 0.540807 0.317668 0.083843
C36   C     C_3   0.001544 0.579244 0.585025 -0.609622
C37   C     C_3   0.958411 0.482141 0.443496 -0.532590
C38   C     C_3   0.003574 0.568306 0.453367 -0.381738
C39   C     C_3   0.957311 0.613537 0.469998 0.563672
C40   C     C_3   0.955028 0.619074 0.548112 0.528891
C41   C     C_1   0.004355 0.557739 0.379569 0.287318
C42   C     C_1   0.000142 0.579985 0.656535 0.341498
C43   C     C_1   0.999518 0.568571 0.711148 0.253441
C44   C     C_3   0.482853 0.931040 0.487503 -0.459891
C45   C     C_R   0.807289 0.335035 0.764622 -0.164981
C46   C     C_3   0.515595 0.990778 0.400911 0.415673
C47   C     C_3   0.591884 0.069322 0.478395 0.514092
C48   C     C_1   0.740024 0.185482 0.683736 0.145753
C49   C     C_3   0.499649 0.916456 0.416419 -0.169768
C50   C     C_3   0.558167 0.008814 0.564817 -0.278617
C51   C     C_3   0.627151 0.049017 0.547484 -0.057913
C52   C     C_3   0.654521 0.987790 0.519171 -0.603058
C53   C     C_3   0.578471 0.908594 0.440659 0.749577
C54   C     C_1   0.694274 0.123282 0.621457 0.112311
C55   C     C_1   0.425360 0.844456 0.345297 0.149167
C56   C     C_R   0.228146 0.499590 0.070185 -0.202183
C57   C     C_1   0.357991 0.789750 0.290832 0.120917
C58   C     C_3   0.047840 0.064904 0.038622 0.671335
C59   C     C_3   0.912027 0.014719 0.038598 1.218418
C60   C     C_3   0.911614 0.935626 0.033810 0.483962
C61   C     C_1   0.001703 0.816561 0.049707 0.004928
C62   C     C_3   0.003595 0.086325 0.084117 -0.586881
C63   C     C_3   0.046351 0.986158 0.033357 -0.553357
C64   C     C_3   0.002446 0.953359 0.076056 -0.365428
C65   C     C_3   0.050600 0.019368 0.166638 0.415790
C66   C     C_3   0.050511 0.098624 0.171560 0.369652
C67   C     C_R   0.068794 0.570018 0.841630 0.748988
C68   C     C_1   0.002191 0.878939 0.067106 0.279252
C69   C     C_1   0.004467 0.158844 0.083989 0.331886
C70   C     C_1   0.004194 0.213463 0.071793 0.154903
C71   C     C_R   0.932887 0.274497 0.005215 0.893613
C72   C     C_R   0.002783 0.272470 0.047500 -0.194040
H1    H     H_    0.764948 0.416118 0.047706 0.218419
H2    H     H_    0.989046 0.458195 0.545941 0.128861
H3    H     H_    0.127454 0.584003 0.515006 0.117020
H4    H     H_    0.459651 0.997301 0.384296 0.147819
H5    H     H_    0.582565 0.993361 0.613916 0.218851
H6    H     H_    0.013781 0.939708 0.968362 0.300555
H7    H     H_    0.019297 0.113399 0.204905 0.194354
N1    N     N_R   0.043550 0.386750 0.043430 -0.084449
N2    N     N_R   0.842970 0.499770 0.956570 -0.056850
N3    N     N_R   0.956860 0.456580 0.113260 -0.127962
N4    N     N_R   0.042910 0.656420 0.999750 -0.058213
N5    N     N_R   0.956450 0.613250 0.956570 -0.062011
N6    N     N_R   0.043310 0.499740 0.156440 -0.079485
N7    N     N_R   0.156680 0.656400 0.113260 -0.127808
N8    N     N_R   0.843080 0.456590 0.999750 -0.070802
N9    N     N_R   0.956690 0.500260 0.843560 -0.163234
N10   N     N_R   0.843320 0.343600 0.886740 -0.127047
N11   N     N_R   0.156920 0.543410 0.000250 -0.139463
N12   N     N_R   0.843210 0.386780 0.843560 -0.082236
N13   N     N_R   0.157030 0.500230 0.043430 -0.081518
N14   N     N_R   0.043140 0.543420 0.886740 -0.172728
N15   N     N_R   0.957090 0.343580 0.000250 -0.149715
N16   N     N_R   0.156790 0.613220 0.156440 -0.077066
Ni1   Ni    Ni4+2 0.099270 0.499990 0.099040 0.190017
Ni2   Ni    Ni4+2 0.900730 0.500010 0.900960 0.270697
Ni3   Ni    Ni4+2 0.900990 0.400990 0.000000 0.319755
Ni4   Ni    Ni4+2 0.099010 0.599010 0.000000 0.337034
H8    H     H_    0.135613 0.365418 0.113908 0.167670
H9    H     H_    0.765637 0.548916 0.915393 0.134840
F1    F     F_    0.855838 0.414792 0.152503 -0.669809
H10   H     H_    0.134759 0.784299 0.078759 0.179302
H11   H     H_    0.867565 0.653819 0.937859 0.131786
H12   H     H_    0.136502 0.574622 0.284244 0.166435
F2    F     F_    0.260809 0.775065 0.129239 -0.636763
H13   H     H_    0.448653 0.443933 0.049440 0.248661
F3    F     F_    0.482282 0.459119 0.918859 -0.599455
F4    F     F_    0.628683 0.525390 0.178131 -0.579275
F5    F     F_    0.852784 0.486111 0.725546 -0.644549
F6    F     F_    0.626422 0.688249 0.231063 -0.588345
H14   H     H_    0.662384 0.703106 0.099859 0.253085
F7    F     F_    0.481604 0.621367 0.971068 -0.570973
H15   H     H_    0.990834 0.448856 0.431543 0.175932
F8    F     F_    0.135113 0.704364 0.663177 -0.520291
F9    F     F_    0.134971 0.587305 0.637671 -0.681737
F10   F     F_    0.137167 0.693301 0.535690 -0.594857
H16   H     H_    0.889154 0.586731 0.532508 0.187781
F11   F     F_    0.788260 0.201969 0.849670 -0.628664
F12   F     F_    0.990986 0.699822 0.604030 -0.589916
F13   F     F_    0.876664 0.572907 0.404288 -0.612644
F14   F     F_    0.875093 0.446632 0.502008 -0.608759
H17   H     H_    0.893546 0.445812 0.390191 0.312401
H18   H     H_    0.990094 0.675890 0.478068 0.163364
H19   H     H_    0.537878 0.051723 0.586440 0.222792
H20   H     H_    0.426665 0.937142 0.471504 0.193239
F15   F     F_    0.529161 0.979289 0.336321 -0.642765
F16   F     F_    0.568734 0.125800 0.502274 -0.651584
F17   F     F_    0.261398 0.631201 0.986114 -0.568452
H21   H     H_    0.641096 0.096869 0.464974 0.121091
F18   F     F_    0.565569 0.841899 0.453850 -0.633004
H22   H     H_    0.591772 0.899059 0.390408 0.110767
H23   H     H_    0.680851 0.973087 0.568291 0.271915
H24   H     H_    0.470136 0.878205 0.499544 0.257478
H25   H     H_    0.704438 0.015557 0.506673 0.177408
F19   F     F_    0.010029 0.055777 0.960811 -0.589448
F20   F     F_    0.872711 0.032817 0.079856 -0.670201
H26   H     H_    0.797851 0.350764 0.716232 0.222849
F21   F     F_    0.867718 0.003255 0.960769 -0.526170
F22   F     F_    0.866753 0.875320 0.953178 -0.585926
H27   H     H_    0.880049 0.912400 0.064684 0.126306
F23   F     F_    0.131852 0.163483 0.214805 -0.652809
H28   H     H_    0.115944 0.032677 0.196813 0.160942
H29   H     H_    0.113861 0.115258 0.072014 0.121591
H30   H     H_    0.111494 0.998642 0.062631 0.179508
F24   F     F_    0.014298 0.991373 0.207574 -0.647327
H31   H     H_    0.250006 0.480319 0.114586 0.165706
F25   F     F_    0.146913 0.629914 0.870878 -0.557488
F26   F     F_    0.857661 0.230312 0.995630 -0.588688
H32   H     H_    0.251496 0.635851 0.268988 0.165548

loop_
_geom_bond_atom_site_label_1
_geom_bond_atom_site_label_2
_ccdc_geom_bond_type
C44   C49   S    
C58   C62   S    
C40   H16   S    
C10   N6    A    
C33   F10   S    
C8    N4    A    
C36   C42   S    
N16   Ni1   S    
C18   C26   S    
C24   C27   S    
C2    C12   A    
C46   H4    S    
C47   F16   S    
C71   N15   A    
C48   C54   T    
C66   H7    S    
C46   C49   S    
C44   H20   S    
N5    Ni2   S    
C64   C68   S    
C16   C35   S    
C23   F11   S    
C38   C39   S    
C65   H28   S    
C11   C14   A    
C59   F20   S    
C11   N7    A    
C3    C48   S    
N13   Ni1   S    
C22   C25   S    
C18   C19   S    
C6    H9    S    
C24   C29   S    
C25   H14   S    
C17   C61   S    
C6    C15   A    
C37   H17   S    
C3    C23   A    
C33   H3    S    
C22   F7    S    
C34   F17   S    
C7    F1    S    
C23   N10   A    
C53   F18   S    
N10   N12   A    
N14   Ni4   S    
N9    Ni2   S    
N8    Ni3   S    
C27   F6    S    
C59   C60   S    
C6    N2    A    
N4    Ni4   S    
C4    C56   A    
C52   H23   S    
N3    Ni3   S    
C35   C41   T    
C1    H8    S    
C12   F5    S    
C5    N16   A    
C20   C29   T    
C44   H24   S    
C4    C34   A    
C1    C72   A    
C62   C66   S    
C47   H21   S    
C51   C52   S    
C46   F15   S    
C36   C40   S    
C38   C41   S    
C2    C67   A    
C39   C40   S    
C53   H22   S    
C12   N9    A    
C31   H2    S    
C47   C51   S    
C37   H15   S    
C58   F19   S    
C25   C26   S    
C49   C55   S    
C3    C45   A    
N12   Ni2   S    
C5    H32   S    
C31   C37   S    
C62   C69   S    
C34   N11   A    
C37   C38   S    
C19   C28   S    
C60   H27   S    
N11   N13   A    
N4    N5    A    
C59   F21   S    
C2    C43   S    
C13   N8    A    
C11   F2    S    
C50   C51   S    
C50   H19   S    
C32   F9    S    
N7    Ni4   S    
C5    C14   A    
N2    N8    A    
C60   F22   S    
C9    C17   A    
C7    C16   A    
C40   F12   S    
C13   H1    S    
C26   C30   S    
C13   C15   A    
C22   C24   S    
N1    Ni1   S    
C42   C43   T    
N1    N15   A    
C50   H5    S    
C32   C36   S    
N11   Ni4   S    
C67   F25   S    
C52   C53   S    
C44   C50   S    
C58   C63   S    
C52   H25   S    
C14   C57   S    
C46   C47   S    
C59   C62   S    
C18   C22   S    
C8    C17   A    
C31   F14   S    
C66   F23   S    
C28   F4    S    
C25   C27   S    
N3    N6    A    
C21   C30   T    
C26   C28   S    
C33   C38   S    
C39   F13   S    
N10   Ni3   S    
C60   C64   S    
C51   C54   S    
C64   C65   S    
C56   H31   S    
C55   C57   T    
C19   C24   S    
C71   C72   A    
C10   C16   A    
C32   C33   S    
C61   C68   T    
C71   F26   S    
N2    Ni2   S    
C9    H11   S    
C49   C53   S    
C45   H26   S    
N6    Ni1   S    
N9    N14   A    
C32   F8    S    
C69   C70   T    
C45   N12   A    
C8    H10   S    
C18   F3    S    
N7    N16   A    
C39   H18   S    
C9    N5    A    
C63   C64   S    
C4    C20   S    
C58   H29   S    
C15   C21   S    
C7    N3    A    
C65   C66   S    
C27   C28   S    
C67   N14   A    
C1    N1    A    
N15   Ni3   S    
C31   C36   S    
C10   H12   S    
C70   C72   S    
C65   F24   S    
C56   N13   A    
C63   H30   S    
C63   H6    S    
C19   H13   S    
