data_mof_unit_33841.cif
_audit_creation_date              2012-12-11T21:22:56-0500
_audit_creation_method            fapswitch 2.2
_symmetry_space_group_name_H-M    P1
_symmetry_Int_Tables_number       1
_space_group_crystal_system       triclinic
_cell_length_a                    8.316768
_cell_length_b                    18.812134
_cell_length_c                    19.031583
_cell_angle_alpha                 104.149059
_cell_angle_beta                  92.469185
_cell_angle_gamma                 92.172404
_cell_volume                      2880.98810627

loop_
_atom_site_label
_atom_site_type_symbol
_atom_type_description
_atom_site_fract_x
_atom_site_fract_y
_atom_site_fract_z
_atom_type_partial_charge
Ba1   Ba    Ba6+2 0.155460 0.532000 0.467920 1.678303
Ba2   Ba    Ba6+2 0.654730 0.467990 0.532020 1.673080
C1    C     C_3   0.323320 0.801145 0.252922 -0.367679
C2    C     C_R   0.095690 0.910881 0.568532 0.030675
C3    C     C_R   0.252061 0.936418 0.596418 -0.086299
C4    C     C_3   0.922464 0.725269 0.346536 0.344511
C5    C     C_R   0.313219 0.005573 0.592726 -0.104650
C6    C     C_R   0.218383 0.051344 0.561937 0.033923
C7    C     C_R   0.061582 0.026626 0.533505 0.012608
C8    C     C_R   0.277707 0.121589 0.560094 -0.121463
C9    C     C_R   0.180460 0.169726 0.532692 -0.043351
C10   C     C_R   0.024850 0.144238 0.501409 0.020019
C11   C     C_R   0.966439 0.072265 0.501878 -0.010762
C12   C     C_3   0.365441 0.732697 0.282194 1.121654
C13   C     C_R   0.232560 0.243258 0.537540 -0.062198
C14   C     C_R   0.131932 0.289493 0.509618 -0.267000
C15   C     C_R   0.983530 0.264017 0.472651 -0.005146
C16   C     C_3   0.934984 0.803684 0.337137 -0.379106
C17   C     C_R   0.927310 0.190212 0.469746 -0.044229
C18   C     C_R   0.845994 0.929845 0.505781 -0.008891
C19   C     C_R   0.787888 0.857648 0.505095 -0.010529
C20   C     C_R   0.884633 0.811453 0.536666 -0.057749
C21   C     C_R   0.034715 0.840821 0.571419 -0.055492
C22   C     C_R   0.777458 0.160229 0.435849 -0.067662
C23   C     C_3   0.436221 0.702846 0.674649 0.411509
C24   C     C_R   0.720026 0.089259 0.435918 0.042123
C25   C     C_R   0.812636 0.045743 0.470771 0.007098
C26   C     C_R   0.752203 0.974947 0.472941 0.011230
C27   C     C_R   0.570157 0.061004 0.401632 -0.090332
C28   C     C_3   0.837581 0.248557 0.291510 0.669959
C29   C     C_R   0.507834 0.992590 0.406078 -0.092727
C30   C     C_R   0.598220 0.949065 0.441332 0.032952
C31   C     C_R   0.634703 0.831348 0.470804 -0.037605
C32   C     C_R   0.539051 0.878924 0.442416 -0.094192
C33   C     C_R   0.584307 0.757379 0.463269 0.035393
C34   C     C_3   0.369484 0.777218 0.707211 -0.338938
C35   C     C_R   0.682024 0.711646 0.492561 -0.273993
C36   C     C_R   0.829358 0.737109 0.530229 0.038027
C37   C     C_R   0.384612 0.504927 0.804626 -0.120051
C38   C     C_R   0.330778 0.506846 0.733784 0.068706
C39   C     C_R   0.143326 0.434874 0.815519 -0.150522
C40   C     C_3   0.990959 0.204991 0.286778 -0.103054
C41   C     C_R   0.086089 0.441684 0.747420 -0.030797
C42   C     C_R   0.644638 0.548220 0.185254 -0.095210
C43   C     C_R   0.710343 0.549820 0.254971 -0.007162
C44   C     C_R   0.451062 0.452917 0.195995 -0.141362
C45   C     C_3   0.902199 0.280697 0.699966 0.333195
C46   C     C_R   0.489778 0.468774 0.270351 0.010410
C47   C     C_R   0.301508 0.460451 0.844228 0.004590
C48   C     C_R   0.185408 0.471780 0.704663 -0.241681
C49   C     C_R   0.520295 0.495180 0.151707 0.037272
C50   C     C_R   0.624485 0.514535 0.298949 -0.188990
C51   C     C_R   0.154301 0.368199 0.946583 -0.083286
C52   C     C_3   0.000616 0.629625 0.688412 0.302423
C53   C     C_R   0.044553 0.354705 0.995632 -0.058486
C54   C     C_R   0.054185 0.398257 0.066189 -0.068824
C55   C     C_R   0.183272 0.449140 0.089267 -0.118594
C56   C     C_3   0.826286 0.204852 0.695847 -0.311110
C57   C     C_R   0.310033 0.453391 0.043569 0.022212
C58   C     C_R   0.274950 0.425127 0.967891 0.036879
C59   C     C_R   0.470120 0.480016 0.070688 -0.022120
C60   C     C_R   0.585763 0.481460 0.017404 0.035987
C61   C     C_R   0.535009 0.467418 0.942075 0.008942
C62   C     C_R   0.371265 0.448997 0.917542 -0.022966
C63   C     C_R   0.753306 0.493906 0.035720 -0.080662
C64   C     C_3   0.020885 0.649834 0.770847 -0.395858
C65   C     C_R   0.860097 0.507052 0.985766 -0.083388
C66   C     C_R   0.809251 0.493383 0.913641 -0.056738
C67   C     C_3   0.345973 0.273000 0.706910 0.296655
C68   C     C_R   0.653779 0.464759 0.891749 -0.074487
C69   C     C_3   0.447833 0.291194 0.289312 0.669973
C70   C     C_3   0.428825 0.266348 0.206360 -0.255654
C71   C     C_3   0.222098 0.662315 0.172181 0.192651
C72   C     C_3   0.383911 0.239920 0.385911 0.252201
C73   C     C_3   0.615422 0.731972 0.229179 0.037242
C74   C     C_3   0.212836 0.149465 0.781684 0.128568
C75   C     C_3   0.855797 0.303804 0.193254 0.196984
C76   C     C_3   0.389368 0.245744 0.774313 0.285295
C77   C     C_R   0.000812 0.955786 0.536046 0.005142
H1    H     H_    0.013085 0.189335 0.338247 0.003890
H2    H     H_    0.299696 0.261661 0.187477 0.064087
H3    H     H_    0.479593 0.211778 0.186230 0.151657
H4    H     H_    0.494185 0.305557 0.181567 0.024211
H5    H     H_    0.384762 0.851220 0.288583 0.078397
H6    H     H_    0.366741 0.679079 0.622617 0.087308
H7    H     H_    0.428890 0.802054 0.761558 0.113971
H8    H     H_    0.392620 0.814195 0.671353 0.068985
H9    H     H_    0.237771 0.771371 0.712714 0.113939
H10   H     H_    0.192875 0.809697 0.252964 0.079409
H11   H     H_    0.832345 0.834892 0.360941 0.098781
H12   H     H_    0.095567 0.238796 0.277189 0.113364
H13   H     H_    0.941420 0.281218 0.644832 -0.005781
H14   H     H_    0.008630 0.289552 0.738893 0.003947
H15   H     H_    0.725737 0.191579 0.653820 0.147993
H16   H     H_    0.917748 0.163073 0.680648 0.048702
H17   H     H_    0.781028 0.202437 0.749293 0.100479
H18   H     H_    0.248124 0.235878 0.675156 -0.048074
H19   H     H_    0.302338 0.329156 0.723305 -0.017893
H20   H     H_    0.455552 0.291185 0.814871 0.053285
H21   H     H_    0.998391 0.722306 0.395047 0.095915
H22   H     H_    0.474305 0.200382 0.760848 0.015177
H23   H     H_    0.113602 0.607900 0.665376 -0.000760
H24   H     H_    0.328724 0.902668 0.620155 0.066361
H25   H     H_    0.434665 0.023458 0.614467 0.066498
H26   H     H_    0.173570 0.345585 0.513606 0.075856
H27   H     H_    0.398913 0.138794 0.582152 0.086050
H28   H     H_    0.107755 0.809314 0.599594 0.104050
H29   H     H_    0.699990 0.192124 0.411287 0.087991
H30   H     H_    0.501617 0.090659 0.369865 0.089138
H31   H     H_    0.390491 0.972937 0.380164 0.068196
H32   H     H_    0.419356 0.861565 0.419010 0.087780
H33   H     H_    0.795548 0.711931 0.356005 -0.005839
H34   H     H_    0.902543 0.586406 0.672151 0.095625
H35   H     H_    0.640468 0.655318 0.487492 0.067386
H36   H     H_    0.488838 0.539823 0.828310 0.079991
H37   H     H_    0.057405 0.411802 0.844594 0.057962
H38   H     H_    0.699236 0.584286 0.155800 0.032272
H39   H     H_    0.365338 0.407763 0.174067 0.049272
H40   H     H_    0.141775 0.475285 0.651283 0.047784
H41   H     H_    0.666310 0.520254 0.354768 0.065243
H42   H     H_    0.147615 0.332230 0.892865 0.132749
H43   H     H_    0.949459 0.312310 0.978304 0.070857
H44   H     H_    0.963620 0.392023 0.103468 0.045530
H45   H     H_    0.121333 0.691696 0.789413 0.130581
H46   H     H_    0.048194 0.832734 0.364204 0.119807
H47   H     H_    0.187681 0.481860 0.143994 0.134646
H48   H     H_    0.806920 0.492131 0.087445 0.062942
H49   H     H_    0.984913 0.523407 0.002218 0.071949
H50   H     H_    0.892484 0.502321 0.874751 0.085463
H51   H     H_    0.625083 0.439294 0.835475 0.131691
H52   H     H_    0.930403 0.803927 0.278888 0.112022
H53   H     H_    0.744391 0.218109 0.312942 0.037242
H54   H     H_    0.301397 0.677529 0.132346 -0.027741
H55   H     H_    0.117630 0.697711 0.180392 0.052151
H56   H     H_    0.047719 0.600576 0.790652 0.061445
H57   H     H_    0.172504 0.606019 0.147186 0.073841
H58   H     H_    0.985573 0.150758 0.179288 0.199964
H59   H     H_    0.067782 0.104793 0.235423 0.181364
H60   H     H_    0.416852 0.295492 0.420708 0.080819
H61   H     H_    0.426462 0.199303 0.414147 0.032846
H62   H     H_    0.252316 0.232637 0.380722 -0.001999
H63   H     H_    0.644600 0.789183 0.226114 0.054446
H64   H     H_    0.548861 0.701082 0.178749 0.050814
H65   H     H_    0.728856 0.704447 0.229405 0.095522
H66   H     H_    0.673050 0.724804 0.710304 0.197189
H67   H     H_    0.908003 0.672170 0.794444 0.119212
H68   H     H_    0.641345 0.664312 0.629045 0.164774
H69   H     H_    0.304958 0.118767 0.804501 0.044129
H70   H     H_    0.203491 0.130582 0.721475 0.029475
H71   H     H_    0.094637 0.136720 0.801826 0.072737
H72   H     H_    0.823725 0.292299 0.134270 0.038378
H73   H     H_    0.989215 0.304345 0.200136 0.033490
H74   H     H_    0.811706 0.358682 0.218897 0.040420
H75   H     H_    0.565706 0.321336 0.305897 -0.006861
H76   H     H_    0.361228 0.797439 0.197039 0.042265
N1    N     N_3   0.971831 0.137427 0.229000 -0.482659
N2    N     N_3   0.605159 0.713746 0.660940 -0.521031
O1    O     O_2   0.114280 0.679350 0.549180 -0.469510
O2    O     O_2   0.766097 0.479276 0.749799 -0.502603
O3    O     O_3   0.791033 0.334823 0.724359 -0.559611
O4    O     O_3   0.866400 0.589600 0.543550 -0.496008
O5    O     O_3   0.444420 0.455520 0.411210 -0.479196
O6    O     O_2   0.612810 0.550740 0.677950 -0.454118
O7    O     O_3   0.420363 0.659197 0.724566 -0.653231
O8    O     O_2   0.571547 0.249488 0.535683 -0.489681
O9    O     O_3   0.484251 0.273678 0.667463 -0.587214
O10   O     O_3   0.362150 0.623490 0.415650 -0.446477
O11   O     O_2   0.273216 0.750601 0.482937 -0.500179
O12   O     O_3   0.319294 0.334909 0.314832 -0.663992
O13   O     O_3   0.963427 0.692404 0.664833 -0.644695
O14   O     O_3   0.286996 0.743839 0.348745 -0.612236
O15   O     O_2   0.197490 0.449210 0.322030 -0.416791
O16   O     O_3   0.950520 0.583920 0.376610 -0.471670
O17   O     O_2   0.046068 0.537451 0.246987 -0.477105
O18   O     O_3   0.308009 0.662218 0.238176 -0.617200
O19   O     O_3   0.445733 0.227122 0.316287 -0.688744
O20   O     O_3   0.535371 0.732061 0.293667 -0.708647
O21   O     O_3   0.248158 0.225794 0.805259 -0.677089
O22   O     O_3   0.778149 0.248814 0.220497 -0.668897
O23   O     O_3   0.973889 0.676248 0.284056 -0.593580
O24   O     O_2   0.696020 0.320600 0.450800 -0.490743
O25   O     O_3   0.943900 0.410390 0.456390 -0.442235
O26   O     O_3   0.448150 0.376500 0.584290 -0.452254
O27   O     O_3   0.859192 0.321482 0.335438 -0.657563
O28   O     O_3   0.365880 0.544470 0.588730 -0.489312
O29   O     O_3   0.859790 0.416060 0.623340 -0.458462
P1    P     P_3+3 0.941030 0.670050 0.569830 0.956848
P2    P     P_3+3 0.370400 0.428500 0.331430 0.981078
P3    P     P_3+3 0.917642 0.586680 0.287264 0.965396
P4    P     P_3+3 0.869270 0.329940 0.430110 0.976244
P5    P     P_3+3 0.875886 0.418017 0.714331 0.952784
P6    P     P_3+3 0.385016 0.717688 0.422257 1.012156
P7    P     P_3+3 0.428788 0.565643 0.681874 0.938563
P8    P     P_3+3 0.431227 0.283569 0.580580 0.955495

loop_
_geom_bond_atom_site_label_1
_geom_bond_atom_site_label_2
_ccdc_geom_bond_type
C53   C54   A    
C3    H24   S    
C40   H1    S    
C33   P6    S    
C45   H13   S    
C52   O13   S    
C49   C59   S    
O1    P1    D    
Ba2   O5    S    
C16   H52   S    
C5    C6    A    
C69   O19   S    
O10   P6    S    
Ba1   O16   S    
C24   C25   A    
C75   O22   S    
C63   H48   S    
C27   H30   S    
Ba1   O1    S    
C33   C35   A    
C22   C24   A    
C40   H12   S    
C46   C50   A    
C74   O21   S    
O23   P3    S    
C16   H46   S    
C7    C77   A    
C28   H53   S    
C55   C57   A    
C19   C31   A    
O6    P7    D    
C23   O7    S    
C36   P1    S    
C20   C36   A    
C52   H34   S    
C68   H51   S    
O26   P8    S    
C54   C55   A    
C44   H39   S    
Ba1   Ba2   S    
Ba2   O25   S    
O29   P5    S    
C56   H17   S    
C67   O9    S    
C7    C11   A    
C75   H74   S    
C13   P8    S    
C9    C13   A    
C14   C15   A    
C63   C65   A    
O13   P1    S    
C28   O22   S    
C69   O12   S    
C22   H29   S    
C70   H2    S    
C60   C63   A    
C45   O3    S    
C74   H70   S    
C67   H19   S    
C51   C53   A    
C53   H43   S    
Ba1   O4    S    
C57   C58   A    
C47   C62   S    
C19   C20   A    
O8    P8    D    
C76   H22   S    
C32   H32   S    
C39   C41   A    
C75   H72   S    
C67   C76   S    
C59   C60   A    
C4    H33   S    
Ba2   O4    S    
C39   C47   A    
C51   C58   A    
C38   P7    S    
Ba1   P1    S    
C34   H8    S    
C4    C16   S    
C44   C46   A    
C57   C59   A    
C65   C66   A    
C16   H11   S    
C54   H44   S    
O2    P5    D    
C26   C30   A    
O17   P3    D    
O3    P5    S    
C2    C77   A    
C8    C9    A    
C55   H47   S    
C3    C5    A    
C2    C21   A    
O7    P7    S    
C6    C7    A    
C35   H35   S    
C18   C26   A    
C43   C50   A    
C34   H7    S    
C61   C62   A    
C69   H75   S    
C72   H61   S    
C44   C49   A    
C34   H9    S    
C48   H40   S    
H58   N1    S    
Ba2   O24   S    
C30   C32   A    
C71   O18   S    
C40   N1    S    
C56   H16   S    
Ba2   O29   S    
C72   O19   S    
C35   C36   A    
C73   H63   S    
H66   N2    S    
O24   P4    D    
C29   C30   A    
C61   C68   A    
C74   H71   S    
Ba1   O25   S    
C21   H28   S    
C60   C61   A    
C23   H6    S    
C31   C32   A    
C45   H14   S    
C75   H73   S    
C71   H55   S    
C1    C12   S    
C73   H64   S    
C14   H26   S    
C50   H41   S    
C42   C49   A    
C43   P3    S    
C37   C47   A    
C72   H62   S    
C71   H54   S    
Ba1   O5    S    
C37   H36   S    
C5    H25   S    
C23   N2    S    
C64   H45   S    
C8    H27   S    
O9    P8    S    
C1    H76   S    
C39   H37   S    
C15   C17   A    
H68   N2    S    
C37   C38   A    
C42   C43   A    
Ba1   P2    S    
H59   N1    S    
C12   O18   S    
C18   C77   A    
C4    O23   S    
C76   O21   S    
C28   O27   S    
C52   H23   S    
C20   C21   A    
C28   C40   S    
Ba2   P4    S    
O12   P2    S    
O28   P7    S    
C12   O14   S    
Ba2   O6    S    
C71   H57   S    
C9    C10   A    
C41   C48   A    
C46   P2    S    
C52   C64   S    
Ba1   O28   S    
C15   P4    S    
C76   H20   S    
C72   H60   S    
Ba1   O15   S    
O11   P6    D    
C1    H10   S    
C58   C62   A    
C17   C22   A    
C56   H15   S    
Ba2   O28   S    
C69   C70   S    
C27   C29   A    
C51   H42   S    
C65   H49   S    
C45   C56   S    
O5    P2    S    
C42   H38   S    
O15   P2    D    
C38   C48   A    
O4    P1    S    
C10   C17   A    
O16   P3    S    
C31   C33   A    
C29   H31   S    
O14   P6    S    
O27   P4    S    
Ba2   O26   S    
C66   H50   S    
C73   O20   S    
C64   H67   S    
C70   H4    S    
C73   H65   S    
C23   C34   S    
C41   P5    S    
C64   H56   S    
C2    C3    A    
C18   C19   A    
C74   H69   S    
C24   C27   A    
C6    C8    A    
C1    H5    S    
C66   C68   A    
Ba1   O10   S    
C12   O20   S    
C11   C25   A    
O25   P4    S    
C10   C11   A    
C70   H3    S    
C13   C14   A    
C4    H21   S    
C25   C26   A    
C67   H18   S    
