data_mof_unit_29620.cif
_audit_creation_date              2012-10-26T18:43:50-0400
_audit_creation_method            fapswitch 2.2
_symmetry_space_group_name_H-M    P1
_symmetry_Int_Tables_number       1
_space_group_crystal_system       triclinic
_cell_length_a                    9.53445
_cell_length_b                    10.828433
_cell_length_c                    17.382356
_cell_angle_alpha                 90.943798
_cell_angle_beta                  86.079381
_cell_angle_gamma                 89.872362
_cell_volume                      1790.15636622

loop_
_atom_site_label
_atom_site_type_symbol
_atom_type_description
_atom_site_fract_x
_atom_site_fract_y
_atom_site_fract_z
_atom_type_partial_charge
C1    C     C_R   0.500082 0.737685 0.498427 0.541256
C2    C     C_R   0.526355 0.496702 0.267039 0.029423
C3    C     C_R   0.375023 0.936526 0.491117 0.008836
C4    C     C_R   0.482085 0.498914 0.650281 0.543493
C5    C     C_R   0.501000 0.870520 0.490314 0.004133
C6    C     C_R   0.628475 0.934622 0.478589 -0.162300
C7    C     C_R   0.628547 0.063357 0.478791 -0.164724
C8    C     C_R   0.501193 0.128918 0.490291 0.006730
C9    C     C_R   0.374965 0.063754 0.490885 0.011444
C10   C     C_3   0.248592 0.071871 0.546575 -0.265735
C11   C     C_3   0.249172 0.931969 0.546840 -0.270788
C12   C     C_R   0.368519 0.542033 0.786139 -0.022387
C13   C     C_R   0.934543 0.461426 0.436126 0.166863
C14   C     C_R   0.918080 0.553102 0.558889 -0.020156
C15   C     C_R   0.067026 0.553784 0.558454 -0.026391
C16   C     C_R   0.500320 0.262226 0.498308 0.548339
C17   C     C_R   0.081816 0.461959 0.436003 0.163272
C18   C     C_3   0.094210 0.339273 0.396175 -0.277304
C19   C     C_3   0.934633 0.337702 0.397230 -0.281358
C20   C     C_R   0.518072 0.501870 0.350610 0.536274
C21   C     C_R   0.479450 0.494613 0.735353 0.007799
C22   C     C_R   0.601703 0.448759 0.766568 -0.135799
C23   C     C_R   0.446531 0.559511 0.144780 -0.045657
C24   C     C_R   0.620953 0.457621 0.845297 -0.017028
C25   C     C_R   0.514185 0.512957 0.894035 0.058162
C26   C     C_R   0.389505 0.552307 0.864816 -0.108879
C27   C     C_3   0.378811 0.695833 0.259006 -0.266253
C28   C     C_3   0.455600 0.813205 0.231429 -0.299831
C29   C     C_3   0.382517 0.929233 0.265435 -0.453859
C30   C     C_3   0.229789 0.588495 0.760849 -0.251465
C31   C     C_3   0.241969 0.722068 0.733375 -0.296040
C32   C     C_3   0.098079 0.785224 0.735302 -0.464043
C33   C     C_3   0.756453 0.410019 0.875079 -0.258273
C34   C     C_R   0.451481 0.581137 0.223934 -0.021168
C35   C     C_3   0.855536 0.515941 0.894195 -0.284683
C36   C     C_3   0.984885 0.467452 0.931302 -0.462401
C37   C     C_R   0.599870 0.397633 0.230196 -0.144380
C38   C     C_R   0.596488 0.379300 0.151057 -0.133188
C39   C     C_R   0.520529 0.460455 0.108131 0.053491
C40   C     C_2   0.529301 0.534290 0.975953 0.336304
C41   C     C_2   0.517657 0.440320 0.024861 -0.114919
Cu1   Cu    Cu3+1 0.359330 0.500020 0.500000 0.921502
Cu2   Cu    Cu3+1 0.640670 0.499980 0.500000 0.930473
F1    F     F_    0.548667 0.652441 0.000965 -0.662117
H1    H     H_    0.685542 0.408577 0.728863 0.127849
H2    H     H_    0.116997 0.597150 0.605252 0.117429
H3    H     H_    0.146040 0.345932 0.337137 0.130371
H4    H     H_    0.138043 0.267230 0.432301 0.147518
H5    H     H_    0.894644 0.341779 0.338745 0.124391
H6    H     H_    0.886492 0.265427 0.434931 0.137432
H7    H     H_    0.656353 0.332204 0.263191 0.107973
H8    H     H_    0.508124 0.346290 0.002936 0.059341
H9    H     H_    0.308518 0.593529 0.904051 0.119915
H10   H     H_    0.383634 0.619955 0.111820 0.160531
H11   H     H_    0.273216 0.934614 0.247320 0.153530
H12   H     H_    0.652918 0.301899 0.123292 0.105824
H13   H     H_    0.380158 0.928665 0.329295 0.164566
H14   H     H_    0.440740 0.012331 0.244712 0.147531
H15   H     H_    0.565387 0.811193 0.249267 0.172997
H16   H     H_    0.459157 0.818015 0.167507 0.193935
H17   H     H_    0.268407 0.697680 0.242143 0.136682
H18   H     H_    0.374217 0.696714 0.322837 0.176559
H19   H     H_    0.109889 0.880809 0.713805 0.142010
H20   H     H_    0.025871 0.734070 0.698975 0.135740
H21   H     H_    0.050400 0.790312 0.795405 0.158456
H22   H     H_    0.309178 0.776418 0.771268 0.173901
H23   H     H_    0.728237 0.886132 0.473260 0.136056
H24   H     H_    0.292456 0.722327 0.674024 0.173265
H25   H     H_    0.188489 0.525672 0.717065 0.155321
H26   H     H_    0.149895 0.585287 0.810292 0.134244
H27   H     H_    0.953071 0.418191 0.985250 0.160817
H28   H     H_    0.045639 0.403479 0.890942 0.148386
H29   H     H_    0.053295 0.546013 0.945960 0.138553
H30   H     H_    0.889330 0.565004 0.840414 0.153176
H31   H     H_    0.801325 0.583561 0.934695 0.222325
H32   H     H_    0.732381 0.352571 0.926563 0.137058
H33   H     H_    0.812236 0.348220 0.831235 0.132973
H34   H     H_    0.728309 0.110726 0.473950 0.123054
H35   H     H_    0.271962 0.114511 0.602917 0.140196
H36   H     H_    0.155209 0.110269 0.520468 0.127790
H37   H     H_    0.274526 0.894528 0.603094 0.131665
H38   H     H_    0.156688 0.890043 0.520926 0.139295
H39   H     H_    0.856493 0.594496 0.607165 0.117072
N1    N     N_R   0.852130 0.499070 0.499500 -0.231594
N2    N     N_R   0.148040 0.499110 0.499500 -0.232507
O1    O     O_R   0.381190 0.680360 0.500000 -0.507796
O2    O     O_R   0.618770 0.680320 0.499990 -0.504824
O3    O     O_R   0.367430 0.500040 0.613600 -0.513786
O4    O     O_R   0.605020 0.500000 0.613590 -0.513047
O5    O     O_R   0.381230 0.319680 0.500010 -0.498735
O6    O     O_R   0.618810 0.319640 0.500000 -0.508351
O7    O     O_R   0.394980 0.500000 0.386410 -0.510762
O8    O     O_R   0.632570 0.499960 0.386400 -0.500991

loop_
_geom_bond_atom_site_label_1
_geom_bond_atom_site_label_2
_ccdc_geom_bond_type
C1    O2    A    
C31   H22   S    
C20   O8    A    
C35   H30   S    
C16   O5    A    
C35   C36   S    
C2    C37   A    
C14   N1    A    
C18   H3    S    
C7    C8    A    
C39   C41   S    
C11   H37   S    
C20   O7    A    
C13   N1    A    
C35   H31   S    
Cu2   O4    S    
C17   N2    A    
C28   C29   S    
C25   C40   S    
C5    C6    A    
C37   H7    S    
C18   C19   S    
C27   H17   S    
Cu2   O8    S    
C8    C9    A    
Cu1   O1    S    
C9    C10   S    
C41   H8    S    
C36   H27   S    
C15   N2    A    
C2    C34   A    
C11   H38   S    
C21   C22   A    
Cu2   N1    S    
C14   H39   S    
C30   H26   S    
C28   H16   S    
C27   C34   S    
C31   H24   S    
C13   C19   S    
C2    C20   S    
C24   C25   A    
C32   H20   S    
C10   C11   S    
C10   H36   S    
C29   H11   S    
C25   C26   A    
C12   C21   A    
Cu2   O6    S    
C12   C26   A    
Cu1   O5    S    
C37   C38   A    
C3    C9    A    
C27   H18   S    
C19   H5    S    
C33   H32   S    
C31   C32   S    
C30   C31   S    
C23   C34   A    
C17   C18   S    
Cu1   N2    S    
C7    H34   S    
C6    H23   S    
C29   H13   S    
C22   C24   A    
Cu1   O3    S    
Cu1   Cu2   S    
C26   H9    S    
C1    C5    S    
C30   H25   S    
C23   H10   S    
C4    O4    A    
C28   H15   S    
C1    O1    A    
C40   C41   D    
C12   C30   S    
C32   H19   S    
C3    C5    A    
C18   H4    S    
C10   H35   S    
C6    C7    A    
C4    O3    A    
C24   C33   S    
C13   C17   A    
Cu2   O2    S    
C4    C21   S    
C19   H6    S    
C33   H33   S    
C38   C39   A    
C23   C39   A    
C33   C35   S    
Cu1   O7    S    
C3    C11   S    
C36   H29   S    
C40   F1    S    
C22   H1    S    
C38   H12   S    
C29   H14   S    
C16   O6    A    
C8    C16   S    
C27   C28   S    
C14   C15   A    
C15   H2    S    
C36   H28   S    
C32   H21   S    
