data_mof_unit_16784.cif
_audit_creation_date              2012-12-10T19:00:13-0500
_audit_creation_method            fapswitch 2.2
_symmetry_space_group_name_H-M    P1
_symmetry_Int_Tables_number       1
_space_group_crystal_system       triclinic
_cell_length_a                    9.560734
_cell_length_b                    10.757106
_cell_length_c                    13.387793
_cell_angle_alpha                 90.851194
_cell_angle_beta                  72.089057
_cell_angle_gamma                 89.567351
_cell_volume                      1309.89832209

loop_
_atom_site_label
_atom_site_type_symbol
_atom_type_description
_atom_site_fract_x
_atom_site_fract_y
_atom_site_fract_z
_atom_type_partial_charge
C1    C     C_R   0.498972 0.737392 0.501234 0.795824
C2    C     C_R   0.432548 0.507012 0.981687 0.092435
C3    C     C_R   0.459434 0.541483 0.876080 0.008677
C4    C     C_R   0.539554 0.533181 0.032707 0.027329
C5    C     C_R   0.663115 0.607118 0.982685 0.074012
C6    C     C_R   0.676371 0.656153 0.883615 0.320949
C7    C     C_R   0.575019 0.624254 0.832098 -0.245540
C8    C     C_R   0.526840 0.487260 0.132567 -0.218534
C9    C     C_R   0.747484 0.591905 0.136310 -0.238405
C10   C     C_R   0.367669 0.495546 0.818007 -0.145048
C11   C     C_R   0.417495 0.934769 0.449635 0.084584
C12   C     C_R   0.419728 0.500387 0.701130 0.777910
C13   C     C_R   0.494217 0.870601 0.506205 -0.110918
C14   C     C_R   0.560803 0.936097 0.570426 -0.186518
C15   C     C_R   0.560697 0.065681 0.570008 -0.222039
C16   C     C_R   0.496690 0.129070 0.503894 -0.094362
C17   C     C_R   0.418798 0.063005 0.448213 0.087050
C18   C     C_3   0.437163 0.064831 0.332984 -0.505708
C19   C     C_3   0.436381 0.923343 0.334739 -0.055333
C20   C     C_R   0.963388 0.444910 0.418952 0.219027
C21   C     C_R   0.893219 0.564521 0.574125 -0.050663
C22   C     C_R   0.041593 0.563163 0.575041 -0.063325
C23   C     C_R   0.500176 0.262433 0.499872 0.786713
C24   C     C_R   0.110657 0.451831 0.416669 0.198791
C25   C     C_3   0.151484 0.327713 0.367714 -0.560766
C26   C     C_3   0.989221 0.311605 0.374049 0.238981
C27   C     C_R   0.579060 0.502954 0.299853 0.784820
C28   C     C_R   0.768022 0.632939 0.034519 -0.151293
C29   C     C_R   0.623812 0.522294 0.186582 -0.044148
C30   C     C_R   0.232913 0.435343 0.872302 0.148720
C31   C     C_R   0.199168 0.418966 0.980800 -0.135338
C32   C     C_R   0.297521 0.451129 0.033701 -0.236643
Cu1   Cu    Cu3+1 0.359330 0.500020 0.500010 0.927950
Cu2   Cu    Cu3+1 0.640670 0.499980 0.499990 0.934607
H1    H     H_    0.824209 0.619528 0.177292 0.153980
H2    H     H_    0.612945 0.116078 0.619123 0.166184
H3    H     H_    0.340982 0.106968 0.315772 0.197823
H4    H     H_    0.544792 0.102985 0.286354 0.179830
H5    H     H_    0.543758 0.879513 0.290040 0.160593
H6    H     H_    0.811450 0.615754 0.634456 0.180805
H7    H     H_    0.070193 0.612470 0.636844 0.175424
H8    H     H_    0.229593 0.335310 0.287389 0.154932
H9    H     H_    0.192193 0.264564 0.417445 0.225965
H10   H     H_    0.863900 0.688102 0.998453 0.199251
H11   H     H_    0.440549 0.424997 0.171664 0.133699
H12   H     H_    0.261378 0.435226 0.116889 0.123447
H13   H     H_    0.097361 0.377932 0.026581 0.154810
H14   H     H_    0.584823 0.668897 0.758532 0.176405
H15   H     H_    0.614766 0.887292 0.618872 0.169927
N1    N     N_R   0.852320 0.499070 0.499340 -0.202803
N2    N     N_R   0.148230 0.499110 0.499340 -0.189887
O1    O     O_R   0.381190 0.680360 0.500000 -0.577728
O2    O     O_R   0.618780 0.680320 0.499990 -0.581558
O3    O     O_R   0.323230 0.500000 0.650990 -0.592403
O4    O     O_R   0.560820 0.499960 0.650980 -0.579547
O5    O     O_R   0.381220 0.319680 0.500010 -0.579573
O6    O     O_R   0.618810 0.319640 0.500000 -0.584104
O7    O     O_R   0.439180 0.500040 0.349020 -0.578090
O8    O     O_R   0.676770 0.500000 0.349010 -0.578801
C33   C     C_3   0.303382 0.863239 0.312453 -0.353468
C34   C     C_3   0.323161 0.858558 0.194928 -0.814629
H16   H     H_    0.332375 0.954009 0.163217 0.257917
H17   H     H_    0.423556 0.803830 0.152694 0.262049
H18   H     H_    0.226708 0.813213 0.180994 0.238404
H19   H     H_    0.292314 0.766462 0.341504 0.226957
H20   H     H_    0.200078 0.914855 0.354075 0.206602
C35   C     C_3   0.976710 0.298992 0.260563 -0.397538
C36   C     C_3   0.838939 0.235291 0.250782 -0.845185
H21   H     H_    0.843048 0.134259 0.265723 0.236185
H22   H     H_    0.738200 0.276574 0.305759 0.267791
H23   H     H_    0.833377 0.246019 0.169691 0.240167
H24   H     H_    0.983163 0.392547 0.225228 0.190637
H25   H     H_    0.071711 0.243684 0.210095 0.197651
Cl1   Cl    Cl    0.817001 0.760014 0.821190 -0.716538
C37   C     C_3   0.924263 0.201201 0.448138 -0.303270
C38   C     C_3   0.910181 0.222347 0.564575 -0.830832
H26   H     H_    0.014540 0.254063 0.575661 0.252413
H27   H     H_    0.821863 0.291177 0.601422 0.273132
H28   H     H_    0.880524 0.133509 0.606636 0.240229
H29   H     H_    0.815877 0.174337 0.443026 0.231415
H30   H     H_    0.995940 0.117982 0.419330 0.181602
C39   C     C_3   0.126715 0.388753 0.815023 -0.361565
C40   C     C_3   0.990114 0.320368 0.880681 -0.857031
H31   H     H_    0.022088 0.236713 0.916618 0.258372
H32   H     H_    0.918877 0.383153 0.942469 0.260087
H33   H     H_    0.925194 0.289458 0.829036 0.256270
H34   H     H_    0.086233 0.469783 0.780980 0.231826
H35   H     H_    0.187068 0.323599 0.750718 0.217973

loop_
_geom_bond_atom_site_label_1
_geom_bond_atom_site_label_2
_ccdc_geom_bond_type
Cu1   O7    S    
C27   C29   S    
C38   H28   S    
C4    C8    A    
C25   H9    S    
C23   O5    A    
Cu1   O1    S    
C11   C19   S    
C26   C35   S    
C19   H5    S    
C2    C32   A    
C18   H3    S    
C38   H27   S    
C18   C19   S    
C3    C7    A    
C5    C6    A    
C14   H15   S    
C16   C17   A    
C15   C16   A    
C17   C18   S    
C35   H24   S    
C34   H17   S    
C1    O2    A    
C8    H11   S    
C20   N1    A    
C31   C32   A    
C36   H21   S    
Cu2   O6    S    
C35   H25   S    
C37   H29   S    
C9    C29   A    
C24   N2    A    
C33   H20   S    
Cu2   O4    S    
C31   H13   S    
C21   C22   A    
C21   N1    A    
C6    Cl1   S    
Cu2   N1    S    
C35   C36   S    
C20   C24   A    
C38   H26   S    
C37   H30   S    
C25   C26   S    
C28   H10   S    
C33   C34   S    
C30   C39   S    
C34   H18   S    
C2    C4    A    
C37   C38   S    
C5    C28   A    
C10   C30   A    
C40   H31   S    
C26   C37   S    
C24   C25   S    
C10   C12   S    
C40   H32   S    
C33   H19   S    
C16   C23   S    
Cu2   O8    S    
C1    C13   S    
C8    C29   A    
C15   H2    S    
Cu1   O3    S    
C23   O6    A    
C11   C17   A    
C32   H12   S    
C4    C5    A    
C27   O7    A    
C25   H8    S    
C6    C7    A    
C19   C33   S    
Cu1   N2    S    
C7    H14   S    
C2    C3    A    
C18   H4    S    
C3    C10   A    
C27   O8    A    
C11   C13   A    
C30   C31   A    
C21   H6    S    
C20   C26   S    
Cu1   O5    S    
C36   H23   S    
C39   H35   S    
Cu1   Cu2   S    
C34   H16   S    
C1    O1    A    
C12   O4    A    
C22   H7    S    
C40   H33   S    
Cu2   O2    S    
C36   H22   S    
C39   C40   S    
C9    H1    S    
C14   C15   A    
C13   C14   A    
C12   O3    A    
C39   H34   S    
C9    C28   A    
C22   N2    A    
