data_mof_unit_59918.cif
_audit_creation_date              2012-12-10T18:50:53-0500
_audit_creation_method            fapswitch 2.2
_symmetry_space_group_name_H-M    P1
_symmetry_Int_Tables_number       1
_space_group_crystal_system       triclinic
_cell_length_a                    10.716569
_cell_length_b                    9.833986
_cell_length_c                    15.747218
_cell_angle_alpha                 89.809151
_cell_angle_beta                  90.115979
_cell_angle_gamma                 90.012131
_cell_volume                      1659.53295808

loop_
_atom_site_label
_atom_site_type_symbol
_atom_type_description
_atom_site_fract_x
_atom_site_fract_y
_atom_site_fract_z
_atom_type_partial_charge
C1    C     C_R   0.259822 0.499991 0.500019 0.861328
C2    C     C_R   0.936040 0.621322 0.483738 -0.200485
C3    C     C_R   0.872554 0.500061 0.500358 -0.010065
C4    C     C_R   0.127397 0.500009 0.500197 -0.010086
C5    C     C_R   0.580477 0.071721 0.550771 -0.076365
C6    C     C_R   0.580464 0.927776 0.550783 -0.077045
C7    C     C_R   0.499974 0.500232 0.338213 0.910913
C8    C     C_R   0.419364 0.928276 0.449274 -0.074679
C9    C     C_R   0.419359 0.072219 0.449278 -0.074522
C10   C     C_R   0.740122 0.500015 0.500147 0.861324
C11   C     C_R   0.499887 0.499760 0.661764 0.915794
C12   C     C_3   0.619860 0.436001 0.951906 -0.401506
C13   C     C_3   0.493172 0.648498 0.048862 -0.428170
C14   C     C_3   0.382321 0.420496 0.050252 -0.428129
C15   C     C_3   0.384588 0.409924 0.951478 -0.078825
C16   C     C_3   0.476006 0.646952 0.951260 -0.055896
C17   C     C_1   0.498561 0.499044 0.750508 -0.202758
C18   C     C_3   0.497638 0.500633 0.082703 0.314712
C19   C     C_3   0.496176 0.498093 0.917223 0.305623
C20   C     C_3   0.387005 0.258918 0.922165 -0.395918
C21   C     C_3   0.258701 0.190834 0.931974 -0.354875
C22   C     C_3   0.264228 0.040226 0.909201 -0.903876
C23   C     C_3   0.617636 0.431732 0.049668 -0.408857
C24   C     C_3   0.543685 0.766884 0.905821 -0.401174
C25   C     C_3   0.686101 0.755935 0.898384 -0.314395
C26   C     C_3   0.742803 0.890757 0.869411 -0.917317
C27   C     C_1   0.497268 0.498355 0.825725 -0.136402
C28   C     C_1   0.498697 0.501116 0.174085 -0.103047
C29   C     C_1   0.499411 0.500831 0.249359 -0.194463
C30   C     C_R   0.063922 0.378798 0.516984 -0.201213
C31   C     C_R   0.063859 0.621289 0.483635 -0.199592
C32   C     C_R   0.936088 0.378830 0.517086 -0.199501
H1    H     H_    0.375563 0.671112 0.940187 0.117721
H2    H     H_    0.621523 0.324155 0.071801 0.170475
H3    H     H_    0.702702 0.493272 0.930465 0.161874
H4    H     H_    0.633568 0.331428 0.926993 0.162184
H5    H     H_    0.112647 0.284600 0.530477 0.156635
H6    H     H_    0.112518 0.715476 0.470061 0.152314
H7    H     H_    0.887413 0.284653 0.530662 0.152589
H8    H     H_    0.887342 0.715537 0.470250 0.156637
H9    H     H_    0.644814 0.126110 0.591362 0.122412
H10   H     H_    0.644767 0.872988 0.591406 0.127094
H11   H     H_    0.300093 0.026742 0.843622 0.265306
H12   H     H_    0.296514 0.455298 0.926401 0.133128
H13   H     H_    0.325676 0.985207 0.954551 0.250882
H14   H     H_    0.169215 0.995570 0.912983 0.249354
H15   H     H_    0.225122 0.200334 0.998385 0.221215
H16   H     H_    0.190228 0.242037 0.889461 0.218163
H17   H     H_    0.413905 0.252563 0.854219 0.212375
H18   H     H_    0.457493 0.200781 0.959362 0.208924
H19   H     H_    0.703180 0.921693 0.807009 0.262411
H20   H     H_    0.723956 0.971588 0.916812 0.257245
H21   H     H_    0.845397 0.879355 0.862685 0.249125
H22   H     H_    0.728299 0.727549 0.960381 0.216588
H23   H     H_    0.354941 0.873878 0.408753 0.122399
H24   H     H_    0.710153 0.678275 0.850119 0.221169
H25   H     H_    0.504020 0.779296 0.840916 0.204684
H26   H     H_    0.520516 0.861654 0.940744 0.201077
H27   H     H_    0.354935 0.127011 0.408757 0.125954
H28   H     H_    0.414299 0.704828 0.078396 0.150214
H29   H     H_    0.295369 0.473255 0.070298 0.149182
H30   H     H_    0.380749 0.318085 0.080592 0.177601
H31   H     H_    0.580241 0.702615 0.067165 0.180606
H32   H     H_    0.701763 0.484355 0.075051 0.165785
N1    N     N_R   0.499970 0.857200 0.499980 -0.078089
N2    N     N_R   0.499970 0.142800 0.499980 -0.077967
O1    O     O_R   0.316750 0.614620 0.499990 -0.628521
O2    O     O_R   0.316750 0.385380 0.499990 -0.629519
O3    O     O_R   0.499990 0.614720 0.377140 -0.615477
O4    O     O_R   0.499990 0.385280 0.377140 -0.613464
O5    O     O_R   0.683220 0.614710 0.500000 -0.629060
O6    O     O_R   0.683220 0.385290 0.500000 -0.628077
O7    O     O_R   0.499980 0.614620 0.622860 -0.614484
O8    O     O_R   0.499980 0.385380 0.622860 -0.617266
Zn1   Zn    Zn3+2 0.499980 0.653120 0.500000 0.944073
Zn2   Zn    Zn3+2 0.499980 0.346880 0.500000 0.943997

loop_
_geom_bond_atom_site_label_1
_geom_bond_atom_site_label_2
_ccdc_geom_bond_type
C7    O3    A    
O5    Zn1   S    
C25   H24   S    
C20   H17   S    
C7    C29   S    
C30   C32   A    
C26   H20   S    
C16   H1    S    
O2    Zn2   S    
C19   C27   S    
C14   C18   S    
C26   H19   S    
C22   H11   S    
C13   H31   S    
C31   H6    S    
O6    Zn2   S    
C1    C4    S    
N2    Zn2   S    
C10   O5    A    
C21   H16   S    
C7    O4    A    
C2    C3    A    
C8    C9    A    
C23   H32   S    
C18   C28   S    
C8    N1    A    
C16   C24   S    
C3    C10   S    
C21   C22   S    
C24   C25   S    
C12   H3    S    
C15   C19   S    
O7    Zn1   S    
C12   C23   S    
C3    C32   A    
O8    Zn2   S    
C13   C18   S    
C16   C19   S    
C5    C6    A    
C12   C19   S    
C28   C29   T    
C22   H14   S    
C15   H12   S    
O3    Zn1   S    
C2    C31   A    
O4    Zn2   S    
C15   C20   S    
C21   H15   S    
C32   H7    S    
C4    C31   A    
C12   H4    S    
C18   C23   S    
C14   H30   S    
C26   H21   S    
C2    H8    S    
C1    O2    A    
O1    Zn1   S    
C25   H22   S    
C8    H23   S    
C24   H26   S    
C22   H13   S    
C11   O7    A    
C13   C16   S    
C13   H28   S    
C5    H9    S    
C9    N2    A    
C5    N2    A    
C23   H2    S    
C20   H18   S    
C1    O1    A    
C25   C26   S    
C14   C15   S    
C14   H29   S    
C6    H10   S    
C20   C21   S    
C6    N1    A    
C4    C30   A    
N1    Zn1   S    
C11   C17   S    
C30   H5    S    
C10   O6    A    
C24   H25   S    
C9    H27   S    
C11   O8    A    
C17   C27   T    
