data_mof_unit_42510.cif
_audit_creation_date              2013-03-05T15:40:57-0500
_audit_creation_method            fapswitch 2.2
_symmetry_space_group_name_H-M    P1
_symmetry_Int_Tables_number       1
_space_group_crystal_system       triclinic
_cell_length_a                    7.946032
_cell_length_b                    8.554558
_cell_length_c                    13.791724
_cell_angle_alpha                 93.776972
_cell_angle_beta                  93.851023
_cell_angle_gamma                 93.865491
_cell_volume                      930.908146161

loop_
_atom_site_label
_atom_site_type_symbol
_atom_site_description
_atom_site_fract_x
_atom_site_fract_y
_atom_site_fract_z
_atom_type_partial_charge
O1    O     O_R   0.891570 0.738930 0.506190 -0.577581
O2    O     O_R   0.108430 0.261070 0.493810 -0.590926
O3    O     O_R   0.174650 0.711050 0.490030 -0.590359
O4    O     O_R   0.825350 0.288950 0.509970 -0.583519
C1    C     C_R   0.044273 0.793953 0.497016 0.912469
C2    C     C_R   0.955313 0.205877 0.501643 0.922750
O5    O     O_R   0.909850 0.521900 0.644940 -0.561760
O6    O     O_R   0.090150 0.478100 0.355060 -0.590732
O7    O     O_R   0.192930 0.494020 0.628780 -0.575382
O8    O     O_R   0.807070 0.505980 0.371220 -0.555868
C3    C     C_R   0.063833 0.516634 0.682704 0.860444
C4    C     C_R   0.935087 0.482156 0.318448 0.930047
Zn1   Zn    Zn3+2 0.810990 0.518620 0.510790 1.153168
Zn2   Zn    Zn3+2 0.189010 0.481380 0.489210 1.124572
C5    C     C_R   0.094214 0.535601 0.790189 -0.333968
C6    C     C_R   0.895758 0.446681 0.214322 -0.288947
C7    C     C_R   0.021345 0.603864 0.956240 -0.263745
C8    C     C_R   0.890215 0.268250 0.069873 -0.258737
C9    C     C_R   0.972031 0.578360 0.856367 0.277693
C10   C     C_R   0.962054 0.318678 0.162791 0.240303
C11   C     C_R   0.260790 0.528138 0.827914 0.398590
C12   C     C_R   0.760483 0.521533 0.172418 0.404168
C13   C     C_R   0.293496 0.509919 0.926701 -0.033043
C14   C     C_R   0.668998 0.450009 0.088635 -0.007968
C15   C     C_R   0.181611 0.568947 0.991902 0.015657
C16   C     C_R   0.744123 0.332110 0.032642 0.032360
C17   C     C_R   0.444033 0.450971 0.961627 0.109229
C18   C     C_R   0.505705 0.491855 0.058538 0.063989
C19   C     C_R   0.397007 0.562582 0.123039 -0.051845
C20   C     C_R   0.525097 0.341012 0.904169 -0.063612
C21   C     C_R   0.234534 0.595907 0.090377 -0.165281
C22   C     C_R   0.670531 0.277707 0.940900 -0.165307
H1    H     H_    0.151962 0.644685 0.141887 0.154249
H2    H     H_    0.727281 0.188805 0.896734 0.163012
H3    H     H_    0.933097 0.647096 0.006074 0.171724
H4    H     H_    0.944229 0.174066 0.028628 0.183876
H5    H     H_    0.429099 0.580542 0.200432 0.236331
H6    H     H_    0.471994 0.298644 0.832054 0.176203
C23   C     C_2   0.066789 0.957605 0.494376 -0.316325
C24   C     C_2   0.931916 0.041867 0.501561 -0.307490
H7    H     H_    0.194045 0.008146 0.487113 0.248223
H8    H     H_    0.804363 0.991225 0.507971 0.250771
N1    N     N_2   0.440860 0.456490 0.474790 0.052161
N2    N     N_2   0.559140 0.543510 0.525210 0.067921
O9    O     O_3   0.713253 0.659099 0.218598 -0.605046
C25   C     C_3   0.771363 0.787489 0.167917 -0.228160
H9    H     H_    0.710577 0.782499 0.092622 0.171964
H10   H     H_    0.911321 0.794385 0.166617 0.175393
H11   H     H_    0.736838 0.897193 0.206723 0.236906
O10   O     O_3   0.392325 0.588301 0.777535 -0.531381
C26   C     C_3   0.386578 0.754204 0.782124 -0.031663
H12   H     H_    0.371244 0.805311 0.857265 0.116639
H13   H     H_    0.284366 0.789529 0.730810 0.106094
H14   H     H_    0.506778 0.808510 0.760714 0.250554
N3    N     N_R   0.094213 0.232904 0.205046 0.224420
O11   O     O_R   0.242322 0.303161 0.229990 -0.348342
O12   O     O_R   0.078078 0.080211 0.199510 -0.419713
N4    N     N_R   0.805101 0.613972 0.824551 0.235009
O13   O     O_R   0.738954 0.732049 0.868152 -0.451587
O14   O     O_R   0.706653 0.509296 0.771842 -0.334225
N5    N     N_R   0.482836 0.303019 0.457974 0.312585
O15   O     O_R   0.468235 0.205075 0.525663 -0.373643
O16   O     O_R   0.519358 0.252463 0.371475 -0.330079
N6    N     N_R   0.529162 0.701578 0.527951 0.303170
O17   O     O_R   0.490738 0.764209 0.446540 -0.347473
O18   O     O_R   0.598490 0.793554 0.600325 -0.398931

loop_
_geom_bond_atom_site_label_1
_geom_bond_atom_site_label_2
_geom_bond_distance
_ccdc_geom_bond_type
C15   C21   1.394094 A    
O5    C3    1.302037 A    
O7    Zn2   1.918856 S    
C21   H1    1.081566 S    
C8    H4    1.084428 S    
C16   C22   1.394929 A    
C13   C17   1.397532 A    
O6    C4    1.303388 A    
C23   H7    1.086195 S    
C8    C16   1.397168 A    
C6    C10   1.416752 A    
N1    N2    1.292563 D    
C26   H14   1.100624 S    
C7    C15   1.392622 A    
N6    O17   1.302388 A    
C12   O9    1.387188 S    
N3    O11   1.299088 A    
C24   H8    1.086573 S    
O10   C26   1.420419 S    
C19   C21   1.392604 A    
N6    O18   1.297345 A    
O9    C25   1.408621 S    
N2    N6    1.387275 S    
C17   C20   1.407046 A    
C20   C22   1.388256 A    
O7    C3    1.324034 A    
C25   H11   1.109363 S    
N1    N5    1.384914 S    
O2    C2    1.289116 A    
O3    Zn2   1.975036 S    
O8    C4    1.309151 A    
C10   N3    1.434865 S    
O1    C1    1.288926 A    
C12   C14   1.404305 A    
C18   C19   1.416399 A    
C7    C9    1.405277 A    
C14   C16   1.417882 A    
C8    C10   1.396391 A    
N3    O12   1.300555 A    
C9    N4    1.427825 S    
N5    O15   1.300581 A    
O2    Zn2   1.955614 S    
C2    C24   1.402731 S    
C5    C11   1.396426 A    
O1    Zn1   1.955615 S    
N4    O14   1.298330 A    
C26   H12   1.115534 S    
C23   C24   1.336775 D    
C25   H10   1.111106 S    
C4    C6    1.456563 S    
O5    Zn1   1.958550 S    
C13   C15   1.400748 A    
C20   H6    1.083576 S    
O4    C2    1.299534 A    
C19   H5    1.079122 S    
C17   C18   1.405770 A    
N5    O16   1.299959 A    
C1    C23   1.402526 S    
C25   H9    1.112428 S    
C11   O10   1.382825 S    
O6    Zn2   1.958551 S    
C7    H3    1.080312 S    
C26   H13   1.111692 S    
N4    O13   1.300832 A    
C5    C9    1.425610 A    
C3    C5    1.482258 S    
C11   C13   1.390660 A    
Zn1   N2    2.048184 S    
C14   C18   1.412051 A    
O4    Zn1   1.975035 S    
C6    C12   1.399119 A    
Zn2   N1    2.048183 S    
O3    C1    1.299602 A    
O8    Zn1   1.918858 S    
C22   H2    1.083903 S    
