data_mof_unit_7459.cif
_audit_creation_date              2012-12-11T20:55:36-0500
_audit_creation_method            fapswitch 2.2
_symmetry_space_group_name_H-M    P1
_symmetry_Int_Tables_number       1
_space_group_crystal_system       triclinic
_cell_length_a                    8.267452
_cell_length_b                    19.126296
_cell_length_c                    22.784391
_cell_angle_alpha                 99.884662
_cell_angle_beta                  90.135071
_cell_angle_gamma                 91.894812
_cell_volume                      3547.25735567

loop_
_atom_site_label
_atom_site_type_symbol
_atom_type_description
_atom_site_fract_x
_atom_site_fract_y
_atom_site_fract_z
_atom_type_partial_charge
Ba1   Ba    Ba6+2 0.157290 0.533910 0.474710 1.651266
Ba2   Ba    Ba6+2 0.652900 0.466090 0.525240 1.652741
C1    C     C_3   0.357935 0.739262 0.264786 -0.342584
C2    C     C_R   0.990201 0.271703 0.479031 0.053767
C3    C     C_R   0.139708 0.187288 0.549675 -0.151401
C4    C     C_3   0.921656 0.721726 0.347126 0.397778
C5    C     C_R   0.206963 0.254004 0.544400 0.009538
C6    C     C_R   0.674575 0.810656 0.447754 -0.163445
C7    C     C_R   0.606363 0.744346 0.453840 -0.006870
C8    C     C_R   0.858657 0.801573 0.528107 -0.148581
C9    C     C_R   0.821756 0.727578 0.519958 0.056912
C10   C     C_R   0.021673 0.153253 0.508233 -0.001015
C11   C     C_R   0.121740 0.298338 0.514543 -0.249452
C12   C     C_3   0.419818 0.717117 0.321534 0.328968
C13   C     C_R   0.793550 0.845019 0.488676 0.001792
C14   C     C_R   0.688864 0.700926 0.485377 -0.241971
C15   C     C_R   0.230678 0.033855 0.538175 -0.078496
C16   C     C_3   0.940043 0.792404 0.325232 -0.368187
C17   C     C_R   0.324116 0.981679 0.555301 -0.083862
C18   C     C_R   0.277810 0.911387 0.537568 -0.067094
C19   C     C_R   0.132169 0.894601 0.507252 -0.076708
C20   C     C_R   0.015141 0.945922 0.505621 0.012235
C21   C     C_R   0.069384 0.019376 0.516912 0.038871
C22   C     C_R   0.851372 0.923799 0.490095 -0.017007
C23   C     C_3   0.484437 0.683994 0.618781 0.308709
C24   C     C_R   0.746278 0.978736 0.479317 0.039141
C25   C     C_R   0.800724 0.052138 0.490562 0.013791
C26   C     C_R   0.964324 0.074283 0.506149 -0.017275
C27   C     C_R   0.584612 0.964469 0.458313 -0.078086
C28   C     C_3   0.820263 0.375080 0.342213 0.301703
C29   C     C_R   0.491052 0.016843 0.441475 -0.080238
C30   C     C_R   0.537759 0.087088 0.459340 -0.066264
C31   C     C_R   0.683901 0.103513 0.489198 -0.080591
C32   C     C_R   0.643777 0.523952 0.335428 -0.302078
C33   C     C_R   0.370010 0.564149 0.947826 -0.025622
C34   C     C_3   0.492729 0.764387 0.636339 -0.380662
C35   C     C_R   0.321723 0.560675 0.887965 0.582860
C36   C     C_R   0.229756 0.439187 0.882628 0.577635
C37   C     C_R   0.279059 0.440575 0.942214 -0.025962
C38   C     C_R   0.350471 0.503385 0.974771 -0.051670
C39   C     C_R   0.438057 0.626932 0.981286 -0.077643
C40   C     C_3   0.813271 0.355882 0.274613 -0.363538
C41   C     C_R   0.486490 0.629322 0.040335 -0.079032
C42   C     C_R   0.470265 0.568748 0.067529 -0.020099
C43   C     C_R   0.402742 0.505457 0.034529 -0.053456
C44   C     C_R   0.261381 0.380264 0.969670 -0.093679
C45   C     C_3   0.879463 0.284210 0.648677 0.389209
C46   C     C_R   0.316840 0.381767 0.027843 -0.074495
C47   C     C_R   0.388055 0.444158 0.060923 -0.022297
C48   C     C_R   0.445139 0.446552 0.119728 0.584679
C49   C     C_R   0.519053 0.570337 0.127119 0.584261
C50   C     C_2   0.060019 0.480288 0.773061 -0.076018
C51   C     C_3   0.018069 0.484884 0.708950 -0.070867
C52   C     C_3   0.998072 0.633216 0.660367 0.300885
C53   C     C_1   0.302196 0.511904 0.694206 0.013585
C54   C     C_2   0.342191 0.511033 0.750340 -0.076470
C55   C     C_2   0.214134 0.495171 0.793338 0.219715
C56   C     C_3   0.872457 0.212187 0.668508 -0.364453
C57   C     C_R   0.706870 0.544013 0.235846 -0.099970
C58   C     C_R   0.749543 0.549871 0.296082 -0.039974
C59   C     C_R   0.500155 0.487920 0.314727 0.037212
C60   C     C_R   0.453834 0.483933 0.254957 -0.084990
C61   C     C_R   0.555837 0.512679 0.214764 0.208367
C62   C     C_2   0.168308 0.479234 0.670942 -0.280487
C63   C     C_3   0.037663 0.663563 0.725264 -0.361470
C64   C     C_3   0.320613 0.317211 0.393572 0.317363
C65   C     C_3   0.318757 0.236770 0.376237 -0.380970
C66   C     C_3   0.649699 0.297878 0.807522 0.291945
C67   C     C_3   0.372745 0.294310 0.681140 0.456787
C68   C     C_3   0.583609 0.338238 0.865489 -0.384548
C69   C     C_3   0.430093 0.280112 0.741487 0.302143
C70   C     C_R   0.956114 0.197389 0.469371 -0.150232
H1    H     H_    0.430132 0.658355 0.313835 0.029182
H2    H     H_    0.196608 0.334214 0.404641 0.000642
H3    H     H_    0.401149 0.332676 0.433031 0.080057
H4    H     H_    0.243802 0.709550 0.249532 0.159763
H5    H     H_    0.235113 0.219378 0.337918 0.126423
H6    H     H_    0.277606 0.211694 0.414225 0.056141
H7    H     H_    0.442457 0.218934 0.363781 0.127664
H8    H     H_    0.540852 0.743293 0.331038 -0.037284
H9    H     H_    0.449352 0.728007 0.229223 0.134018
H10   H     H_    0.607924 0.665617 0.607156 0.017015
H11   H     H_    0.403818 0.670300 0.579140 0.075604
H12   H     H_    0.728535 0.309619 0.261012 0.138242
H13   H     H_    0.575219 0.780274 0.675221 0.130325
H14   H     H_    0.539119 0.788715 0.598541 0.056362
H15   H     H_    0.370147 0.784251 0.647995 0.124217
H16   H     H_    0.336827 0.797148 0.272680 0.099685
H17   H     H_    0.882533 0.834936 0.356627 0.067076
H18   H     H_    0.776841 0.286016 0.617533 0.102577
H19   H     H_    0.994637 0.290533 0.625705 -0.050035
H20   H     H_    0.759076 0.205795 0.693306 0.143965
H21   H     H_    0.874305 0.169199 0.629067 0.067627
H22   H     H_    0.977800 0.207364 0.697705 0.108192
H23   H     H_    0.770657 0.401131 0.254993 0.068433
H24   H     H_    0.250267 0.268941 0.672211 -0.194665
H25   H     H_    0.365802 0.352686 0.683106 0.009595
H26   H     H_    0.335319 0.297089 0.774895 0.038154
H27   H     H_    0.978341 0.727416 0.392094 0.067267
H28   H     H_    0.445216 0.221822 0.737661 -0.012910
H29   H     H_    0.872392 0.175655 0.433896 0.075216
H30   H     H_    0.178845 0.164183 0.587064 0.066419
H31   H     H_    0.634045 0.833599 0.410542 0.059356
H32   H     H_    0.943412 0.823568 0.563147 0.076242
H33   H     H_    0.163367 0.352895 0.516386 0.061041
H34   H     H_    0.935600 0.342368 0.257027 0.129810
H35   H     H_    0.643978 0.647202 0.485649 0.065986
H36   H     H_    0.295836 0.082789 0.538448 0.073831
H37   H     H_    0.443096 0.995283 0.574774 0.078011
H38   H     H_    0.360493 0.870575 0.543655 0.099239
H39   H     H_    0.790743 0.708225 0.349869 -0.096465
H40   H     H_    0.109252 0.841146 0.485169 0.127197
H41   H     H_    0.519084 0.915681 0.458224 0.074719
H42   H     H_    0.371725 0.003415 0.422263 0.078212
H43   H     H_    0.455405 0.128285 0.453938 0.094587
H44   H     H_    0.707244 0.156757 0.511332 0.127519
H45   H     H_    0.110566 0.614372 0.637670 0.020935
H46   H     H_    0.302828 0.333866 0.046982 0.121596
H47   H     H_    0.206897 0.331212 0.945865 0.112655
H48   H     H_    0.537876 0.678808 0.064539 0.120011
H49   H     H_    0.791228 0.563279 0.205536 0.112028
H50   H     H_    0.454048 0.674584 0.961911 0.123257
H51   H     H_    0.069893 0.807490 0.322014 0.142053
H52   H     H_    0.466450 0.522118 0.765444 0.106043
H53   H     H_    0.964049 0.471226 0.803617 0.094683
H54   H     H_    0.339182 0.458087 0.239798 0.122893
H55   H     H_    0.678805 0.527442 0.381652 0.079489
H56   H     H_    0.907954 0.588576 0.658016 0.032502
H57   H     H_    0.165995 0.450110 0.625581 0.064644
H58   H     H_    0.881914 0.788285 0.280723 0.120401
H59   H     H_    0.697449 0.387563 0.358933 0.011815
H60   H     H_    0.903460 0.422101 0.354674 0.062576
H61   H     H_    0.781236 0.311233 0.806336 0.127712
H62   H     H_    0.639045 0.239549 0.806995 -0.001848
H63   H     H_    0.457978 0.319273 0.872064 0.125778
H64   H     H_    0.658760 0.328691 0.903603 0.087372
H65   H     H_    0.585768 0.396117 0.864444 0.135886
H66   H     H_    0.119656 0.711205 0.727816 0.146323
H67   H     H_    0.099004 0.624271 0.747131 0.082369
H68   H     H_    0.924694 0.678856 0.749746 0.118519
N1    N     N_R   0.254607 0.498383 0.855824 -0.425650
N2    N     N_R   0.506725 0.509636 0.152855 -0.423498
O1    O     O_2   0.108070 0.674980 0.540650 -0.458495
O2    O     O_2   0.686475 0.443106 0.697512 -0.447096
O3    O     O_3   0.872634 0.337804 0.698745 -0.576703
O4    O     O_3   0.861930 0.586170 0.535430 -0.487907
O5    O     O_3   0.451480 0.461630 0.428900 -0.494511
O6    O     O_2   0.599240 0.538720 0.642170 -0.464424
O7    O     O_3   0.424255 0.653774 0.666709 -0.634884
O8    O     O_2   0.532776 0.247104 0.521856 -0.512566
O9    O     O_3   0.481591 0.265027 0.637082 -0.609278
O10   O     O_2   0.338270 0.613313 0.864485 -0.596120
O11   O     O_2   0.167086 0.384975 0.854300 -0.618268
O12   O     O_3   0.375557 0.347368 0.345253 -0.627536
O13   O     O_2   0.441822 0.392169 0.141157 -0.600005
O14   O     O_2   0.571212 0.626137 0.156302 -0.621643
O15   O     O_3   0.366390 0.628250 0.433820 -0.460027
O16   O     O_2   0.287272 0.751776 0.484632 -0.503559
O17   O     O_3   0.931966 0.686931 0.634656 -0.636901
O18   O     O_3   0.312951 0.739281 0.368431 -0.585625
O19   O     O_2   0.211060 0.461230 0.357810 -0.458919
O20   O     O_3   0.958150 0.591500 0.402390 -0.484561
O21   O     O_2   0.083370 0.538772 0.296438 -0.478387
O22   O     O_3   0.576280 0.319199 0.757545 -0.602041
O23   O     O_3   0.998800 0.669596 0.307095 -0.584604
O24   O     O_2   0.702240 0.324970 0.459330 -0.463073
O25   O     O_3   0.948380 0.413820 0.464520 -0.492431
O26   O     O_3   0.443920 0.371740 0.566130 -0.461394
O27   O     O_3   0.875825 0.316826 0.364987 -0.631746
O28   O     O_3   0.358830 0.538360 0.571050 -0.480076
O29   O     O_3   0.852160 0.408490 0.597560 -0.496217
P1    P     P_3+3 0.933470 0.664380 0.557030 0.981546
P2    P     P_3+3 0.383600 0.440030 0.365120 0.993379
P3    P     P_3+3 0.947522 0.586479 0.324982 0.970458
P4    P     P_3+3 0.876840 0.335610 0.442930 0.980474
P5    P     P_3+3 0.856590 0.419985 0.675555 1.004155
P6    P     P_3+3 0.395750 0.717986 0.433523 0.936631
P7    P     P_3+3 0.418005 0.561233 0.645730 0.956940
P8    P     P_3+3 0.413697 0.282515 0.568579 0.926570

loop_
_geom_bond_atom_site_label_1
_geom_bond_atom_site_label_2
_ccdc_geom_bond_type
C57   H49   S    
C32   C58   A    
C53   C54   D    
C45   O3    S    
O4    P1    S    
C58   P3    S    
C4    H39   S    
C17   C18   A    
C65   H5    S    
C67   H24   S    
C52   C63   S    
C25   C31   A    
Ba1   P2    S    
O24   P4    D    
C15   C21   A    
C35   N1    Am   
O28   P7    S    
C68   H65   S    
C54   H52   S    
C66   H61   S    
C33   C35   A    
O16   P6    D    
C22   C24   A    
O1    P1    D    
C8    C13   A    
C36   C37   A    
O18   P6    S    
C51   C62   S    
C70   H29   S    
Ba1   O25   S    
Ba2   O6    S    
C28   H59   S    
C64   H2    S    
Ba1   O28   S    
C54   C55   S    
C23   O7    S    
Ba1   Ba2   S    
C2    C11   A    
C67   C69   S    
C14   H35   S    
C52   O17   S    
C63   H68   S    
C16   H51   S    
C6    C7    A    
C2    P4    S    
C1    H9    S    
C12   H8    S    
Ba2   O24   S    
C29   H42   S    
C41   H48   S    
C66   O22   S    
C64   C65   S    
C10   C70   A    
C4    O23   S    
Ba1   O19   S    
C9    P1    S    
C19   C20   A    
C68   H64   S    
C39   C41   A    
Ba1   O4    S    
C65   H6    S    
C3    C5    A    
C17   H37   S    
C34   H15   S    
C38   C43   A    
C4    C16   S    
C69   H26   S    
C44   C46   A    
C49   O14   D    
O17   P1    S    
C40   H23   S    
C67   O9    S    
C12   H1    S    
C40   H12   S    
C3    C10   A    
C11   H33   S    
C69   O22   S    
C15   H36   S    
C37   C38   A    
C60   H54   S    
C32   H55   S    
C46   H46   S    
C34   H14   S    
O23   P3    S    
C52   H56   S    
C32   C59   A    
C12   O18   S    
C39   H50   S    
C64   O12   S    
C41   C42   A    
C28   O27   S    
C60   C61   A    
Ba1   O1    S    
Ba2   P4    S    
O19   P2    D    
C9    C14   A    
O9    P8    S    
C29   C30   A    
O3    P5    S    
C43   C47   A    
C48   O13   D    
C53   C62   D    
O2    P5    D    
O27   P4    S    
C5    P8    S    
Ba1   O15   S    
C57   C58   A    
O15   P6    S    
C21   C26   A    
C62   H57   S    
C1    H4    S    
C40   H34   S    
C1    C12   S    
Ba2   O28   S    
C37   C44   A    
C18   H38   S    
C63   H66   S    
C42   C49   A    
C46   C47   A    
C10   C26   S    
Ba1   O20   S    
C6    C13   A    
C8    C9    A    
C24   C25   A    
C68   H63   S    
C36   N1    Am   
C20   C22   A    
C16   H58   S    
C35   O10   D    
Ba2   O26   S    
C2    C70   A    
C19   H40   S    
C7    P6    S    
C50   C51   S    
O25   P4    S    
C69   H28   S    
C49   N2    Am   
C27   H41   S    
C3    H30   S    
C13   C22   S    
C31   H44   S    
O6    P7    D    
O12   P2    S    
C1    H16   S    
C16   H17   S    
C45   H19   S    
C56   H21   S    
C42   C43   A    
C53   P7    S    
C50   H53   S    
O5    P2    S    
O20   P3    S    
C34   H13   S    
Ba2   O4    S    
O26   P8    S    
O29   P5    S    
Ba2   O29   S    
Ba1   P1    S    
C57   C61   A    
C55   N1    S    
C30   C31   A    
C66   H62   S    
C33   C38   A    
Ba2   O5    S    
C27   C29   A    
C4    H27   S    
C45   C56   S    
C23   H10   S    
C28   H60   S    
C64   H3    S    
C8    H32   S    
O7    P7    S    
C15   C17   A    
C61   N2    S    
C44   H47   S    
C30   H43   S    
C56   H22   S    
C59   C60   A    
C33   C39   A    
C6    H31   S    
C45   H18   S    
Ba1   O5    S    
C50   C55   D    
C23   C34   S    
C63   H67   S    
C5    C11   A    
C18   C19   A    
C24   C27   A    
C66   C68   S    
C47   C48   A    
C52   H45   S    
C25   C26   A    
C23   H11   S    
C59   P2    S    
C20   C21   A    
C28   C40   S    
C36   O11   D    
O21   P3    D    
C56   H20   S    
Ba2   O25   S    
C65   H7    S    
C48   N2    Am   
C51   P5    S    
C7    C14   A    
O8    P8    D    
C67   H25   S    
