data_mof_unit_28349.cif
_audit_creation_date              2012-12-10T19:04:47-0500
_audit_creation_method            fapswitch 2.2
_symmetry_space_group_name_H-M    P1
_symmetry_Int_Tables_number       1
_space_group_crystal_system       triclinic
_cell_length_a                    15.858601
_cell_length_b                    10.817534
_cell_length_c                    9.543717
_cell_angle_alpha                 90.043699
_cell_angle_beta                  89.97927
_cell_angle_gamma                 90.151774
_cell_volume                      1637.22744411

loop_
_atom_site_label
_atom_site_type_symbol
_atom_type_description
_atom_site_fract_x
_atom_site_fract_y
_atom_site_fract_z
_atom_type_partial_charge
C1    C     C_R   0.498393 0.262317 0.499920 0.794417
C2    C     C_3   0.082742 0.500068 0.500123 0.169236
C3    C     C_3   0.972061 0.566396 0.609930 -0.180792
C4    C     C_3   0.917204 0.500340 0.500067 0.157429
C5    C     C_3   0.028363 0.617079 0.490112 -0.144395
C6    C     C_3   0.972098 0.550960 0.380256 -0.180144
C7    C     C_1   0.174434 0.500074 0.500093 -0.074526
C8    C     C_1   0.825473 0.500597 0.500010 -0.085302
C9    C     C_R   0.489974 0.063729 0.625585 0.118383
C10   C     C_R   0.489988 0.129218 0.499687 -0.095842
C11   C     C_R   0.478246 0.064274 0.373477 -0.222366
C12   C     C_R   0.339797 0.499928 0.500000 0.824111
C13   C     C_R   0.478479 0.935407 0.373505 -0.221719
C14   C     C_R   0.490429 0.870800 0.499748 -0.096935
C15   C     C_R   0.490304 0.936523 0.625602 0.133750
C16   C     C_3   0.549985 0.930742 0.746468 -0.479655
C17   C     C_3   0.549351 0.071076 0.746779 -0.460868
C18   C     C_R   0.540816 0.591229 0.073721 0.256060
C19   C     C_R   0.453348 0.416888 0.074386 -0.078018
C20   C     C_R   0.453356 0.416857 0.925490 -0.079332
C21   C     C_R   0.540922 0.591113 0.926328 0.259393
C22   C     C_3   0.632834 0.620408 0.920868 -0.509298
C23   C     C_R   0.498645 0.737707 0.499965 0.796415
C24   C     C_3   0.632575 0.621084 0.079822 -0.504330
C25   C     C_R   0.660179 0.500199 0.500008 0.829638
C26   C     C_3   0.972262 0.384698 0.509960 0.138856
C27   C     C_3   0.028124 0.433949 0.389853 -0.178275
C28   C     C_1   0.250029 0.499998 0.500052 -0.183475
C29   C     C_1   0.749903 0.500475 0.499990 -0.195235
C30   C     C_3   0.028087 0.449432 0.620353 -0.178196
Cu1   Cu    Cu3+1 0.500000 0.499980 0.640670 0.939643
Cu2   Cu    Cu3+1 0.500000 0.500020 0.359330 0.938556
H1    H     H_    0.052271 0.379327 0.299934 0.124469
H2    H     H_    0.612140 0.891038 0.717069 0.191138
H3    H     H_    0.518948 0.111066 0.841448 0.194123
H4    H     H_    0.611184 0.112803 0.718221 0.198116
H5    H     H_    0.416883 0.348092 0.130182 0.134332
H6    H     H_    0.416910 0.348029 0.869632 0.137402
H7    H     H_    0.671029 0.543920 0.876156 0.221979
H8    H     H_    0.645480 0.712857 0.874845 0.189182
H9    H     H_    0.670874 0.545249 0.125498 0.222450
H10   H     H_    0.644486 0.714107 0.125378 0.192790
H11   H     H_    0.947868 0.592872 0.282115 0.134427
H12   H     H_    0.052924 0.712997 0.481918 0.129654
H13   H     H_    0.947801 0.620999 0.699775 0.134745
H14   H     H_    0.052200 0.407451 0.718541 0.124810
H15   H     H_    0.472982 0.112339 0.274349 0.160006
H16   H     H_    0.473353 0.887131 0.274378 0.163515
H17   H     H_    0.520276 0.889706 0.841223 0.196028
N1    N     N_R   0.500530 0.500930 0.147930 -0.183362
N2    N     N_R   0.500530 0.500890 0.852020 -0.183250
O1    O     O_R   0.500000 0.319640 0.618810 -0.583155
O2    O     O_R   0.500010 0.319680 0.381230 -0.588582
O3    O     O_R   0.379070 0.499970 0.618770 -0.576788
O4    O     O_R   0.379080 0.500010 0.381190 -0.576885
O5    O     O_R   0.499990 0.680320 0.618770 -0.577644
O6    O     O_R   0.500000 0.680360 0.381190 -0.585946
O7    O     O_R   0.620920 0.499990 0.618810 -0.578895
O8    O     O_R   0.620930 0.500030 0.381230 -0.576254
C31   C     C_3   0.937891 0.252983 0.521147 -0.422250
C32   C     C_3   0.009454 0.158354 0.529055 -0.341577
C33   C     C_3   0.974890 0.026906 0.539853 -0.852748
H18   H     H_    0.935793 0.016725 0.635779 0.252435
H19   H     H_    0.936003 0.004366 0.446425 0.253047
H20   H     H_    0.028031 0.960456 0.545505 0.236237
H21   H     H_    0.049531 0.165329 0.433788 0.216220
H22   H     H_    0.049417 0.177595 0.622266 0.216173
H23   H     H_    0.897967 0.246276 0.616581 0.197917
H24   H     H_    0.897911 0.233751 0.427991 0.198958

loop_
_geom_bond_atom_site_label_1
_geom_bond_atom_site_label_2
_ccdc_geom_bond_type
C14   C23   S    
C19   C20   A    
C3    C30   S    
C4    C26   S    
C33   H18   S    
C17   H4    S    
Cu1   O5    S    
C13   H16   S    
C18   C21   A    
C17   H3    S    
C9    C10   A    
C32   H22   S    
Cu2   O4    S    
C11   H15   S    
C2    C7    S    
Cu2   O8    S    
C18   N1    A    
C2    C30   S    
Cu1   O1    S    
C4    C8    S    
C22   H8    S    
C23   O6    A    
C9    C15   A    
C23   O5    A    
C21   C22   S    
C27   H1    S    
C24   H9    S    
C11   C13   A    
C19   N1    A    
Cu2   N1    S    
C26   C27   S    
C2    C27   S    
C32   H21   S    
C31   H24   S    
C12   C28   S    
C18   C24   S    
C8    C29   T    
Cu2   O6    S    
Cu1   O7    S    
C9    C17   S    
C5    H12   S    
C3    H13   S    
C26   C30   S    
C20   N2    A    
C6    H11   S    
Cu1   O3    S    
C25   C29   S    
C32   C33   S    
C1    O1    A    
C22   C24   S    
C12   O4    A    
C19   H5    S    
C25   O7    A    
C22   H7    S    
C15   C16   S    
C2    C5    S    
Cu2   O2    S    
C21   N2    A    
C20   H6    S    
C16   H17   S    
C31   H23   S    
C4    C6    S    
C10   C11   A    
Cu1   N2    S    
C5    C6    S    
C1    O2    A    
C14   C15   A    
C16   C17   S    
C33   H19   S    
C25   O8    A    
C33   H20   S    
C16   H2    S    
C13   C14   A    
C26   C31   S    
C24   H10   S    
C30   H14   S    
Cu1   Cu2   S    
C12   O3    A    
C7    C28   T    
C6    C27   S    
C1    C10   S    
C31   C32   S    
C3    C5    S    
C3    C4    S    
