data_mof_unit_56270.cif
_audit_creation_date              2013-03-05T15:52:05-0500
_audit_creation_method            fapswitch 2.2
_symmetry_space_group_name_H-M    P1
_symmetry_Int_Tables_number       1
_space_group_crystal_system       triclinic
_cell_length_a                    19.397115
_cell_length_b                    10.799126
_cell_length_c                    9.622645
_cell_angle_alpha                 90.105606
_cell_angle_beta                  89.057618
_cell_angle_gamma                 96.573592
_cell_volume                      2002.15100231

loop_
_atom_site_label
_atom_site_type_symbol
_atom_site_description
_atom_site_fract_x
_atom_site_fract_y
_atom_site_fract_z
_atom_type_partial_charge
O1    O     O_R   0.499990 0.319640 0.618810 -0.557658
O2    O     O_R   0.500000 0.319660 0.381240 -0.585098
C1    C     C_R   0.498526 0.262450 0.499900 0.797600
O3    O     O_R   0.400140 0.499970 0.618820 -0.601961
O4    O     O_R   0.400150 0.500000 0.381250 -0.579740
C2    C     C_R   0.367661 0.500459 0.501324 0.760239
Cu1   Cu    Cu3+1 0.500000 0.499990 0.640660 0.967412
Cu2   Cu    Cu3+1 0.500000 0.500010 0.359340 0.921268
O5    O     O_R   0.500000 0.680340 0.618760 -0.582856
O6    O     O_R   0.500010 0.680360 0.381190 -0.592092
O7    O     O_R   0.599850 0.500000 0.618750 -0.518669
O8    O     O_R   0.599860 0.500030 0.381180 -0.608459
C3    C     C_R   0.496418 0.736234 0.500195 0.768331
C4    C     C_R   0.632259 0.491195 0.498681 0.804461
C5    C     C_R   0.258112 0.518315 0.634441 -0.194342
H1    H     H_    0.287474 0.523850 0.729523 0.152425
C6    C     C_R   0.186386 0.524096 0.641971 0.174751
C7    C     C_R   0.147986 0.516900 0.517743 0.059798
C8    C     C_R   0.182679 0.507441 0.389525 -0.185497
H2    H     H_    0.154206 0.501971 0.293357 0.167379
C9    C     C_R   0.254009 0.501726 0.383647 -0.185403
H3    H     H_    0.279088 0.493116 0.283254 0.161735
C10   C     C_R   0.292211 0.506089 0.506083 -0.068725
N1    N     N_R   0.041386 0.576522 0.415859 -0.217223
N2    N     N_R   0.972598 0.571071 0.411281 -0.154364
C11   C     C_R   0.931927 0.504682 0.507490 0.488229
N3    N     N_R   0.962717 0.446051 0.610084 -0.212494
N4    N     N_R   0.031472 0.451731 0.614805 -0.218147
C12   C     C_R   0.072089 0.516955 0.517835 0.394131
C13   C     C_R   0.816874 0.483803 0.623700 -0.249120
H4    H     H_    0.843207 0.482135 0.722060 0.222591
C14   C     C_R   0.744603 0.474317 0.624120 0.314149
C15   C     C_R   0.708700 0.479476 0.496713 -0.226428
C16   C     C_R   0.747783 0.475717 0.369367 -0.020349
C17   C     C_R   0.821199 0.488104 0.372104 0.360959
C18   C     C_R   0.855570 0.493886 0.500068 -0.158282
C19   C     C_R   0.383850 0.107488 0.631669 -0.174247
H5    H     H_    0.380790 0.206808 0.629844 0.130287
C20   C     C_R   0.329574 0.032903 0.697549 -0.126419
H6    H     H_    0.287289 0.075249 0.746069 0.140518
C21   C     C_R   0.329221 0.904069 0.699709 -0.127638
H7    H     H_    0.286693 0.846334 0.749892 0.143501
C22   C     C_R   0.383073 0.849075 0.635738 -0.158463
H8    H     H_    0.379860 0.748601 0.637459 0.146098
C23   C     C_R   0.439009 0.922877 0.569492 0.097658
C24   C     C_R   0.439749 0.053956 0.567906 0.053785
C25   C     C_R   0.495427 0.127531 0.499566 -0.103594
C26   C     C_R   0.548677 0.071409 0.430837 0.167675
H9    H     H_    0.587316 0.898795 0.379905 0.147202
C27   C     C_R   0.546457 0.942672 0.431612 -0.205034
C28   C     C_R   0.493231 0.869168 0.501030 -0.128082
C29   C     C_R   0.592816 0.666874 0.152101 -0.153924
H10   H     H_    0.594111 0.667755 0.260759 0.218895
C30   C     C_R   0.642875 0.750789 0.093702 0.103222
C31   C     C_R   0.646570 0.760457 0.953189 -0.146420
H11   H     H_    0.686860 0.830930 0.913743 0.173638
C32   C     C_R   0.602506 0.684801 0.863661 0.222233
C33   C     C_R   0.548609 0.587916 0.923987 0.199936
C34   C     C_R   0.546590 0.584514 0.075379 0.089875
N5    N     N_R   0.500660 0.501210 0.147910 -0.188110
C35   C     C_R   0.455460 0.418943 0.072527 0.276268
H12   H     H_    0.420122 0.354944 0.869224 0.136277
C36   C     C_R   0.456026 0.420159 0.925586 -0.049244
N6    N     N_R   0.500680 0.501290 0.852040 -0.198118
C37   C     C_3   0.402783 0.322542 0.138316 -0.805903
H13   H     H_    0.413188 0.228306 0.103215 0.211265
H14   H     H_    0.401740 0.321451 0.251754 0.276470
H15   H     H_    0.350020 0.338494 0.104588 0.191100
C38   C     C_3   0.694624 0.829884 0.181071 -0.833673
H16   H     H_    0.687578 0.808982 0.293712 0.209876
H17   H     H_    0.748063 0.812036 0.150485 0.273838
H18   H     H_    0.689273 0.929934 0.164109 0.237219
C39   C     C_3   0.627632 0.733218 0.718928 -0.675708
H19   H     H_    0.611018 0.699385 0.618836 0.224019
H20   H     H_    0.619975 0.833699 0.711783 0.184364
H21   H     H_    0.684381 0.726396 0.708095 0.196358
C40   C     C_3   0.152967 0.541840 0.782151 -0.826677
H22   H     H_    0.121871 0.621918 0.778536 0.244146
H23   H     H_    0.119173 0.456012 0.812651 0.262343
H24   H     H_    0.192249 0.561529 0.864398 0.216380
N7    N     N_R   0.708960 0.451448 0.755168 0.140048
O9    O     O_R   0.666595 0.349908 0.772098 -0.342216
O10   O     O_R   0.730661 0.514547 0.864451 -0.366441
C41   C     C_3   0.713170 0.449627 0.230671 -0.616158
H25   H     H_    0.667744 0.378313 0.240630 0.220612
H26   H     H_    0.698325 0.537022 0.187121 0.255367
H27   H     H_    0.747420 0.409493 0.153518 0.270330
N8    N     N_R   0.860714 0.490958 0.244374 0.126470
O11   O     O_R   0.898541 0.402021 0.215210 -0.331612
O12   O     O_R   0.855982 0.578858 0.153883 -0.324923
C42   C     C_3   0.609027 0.147070 0.358900 -0.805357
H28   H     H_    0.649033 0.088217 0.322484 0.225011
H29   H     H_    0.590277 0.194004 0.266729 0.246968
H30   H     H_    0.634364 0.217319 0.431740 0.230156

loop_
_geom_bond_atom_site_label_1
_geom_bond_atom_site_label_2
_geom_bond_distance
_ccdc_geom_bond_type
C31   H11   1.090482 S    
C21   C22   1.393659 A    
C21   H7    1.082906 S    
C8    H2    1.083516 S    
C41   H27   1.108551 S    
C4    C15   1.502301 S    
N7    O9    1.301606 A    
Cu1   Cu2   2.707043 S    
C20   C21   1.390717 A    
C40   H22   1.110452 S    
Cu1   O7    1.944779 S    
C14   N7    1.436163 S    
C11   N3    1.356638 A    
C19   H5    1.081161 S    
N4    C12   1.355997 A    
C8    C9    1.392230 A    
C41   H26   1.103147 S    
C16   C17   1.415658 A    
O4    C2    1.307259 A    
O7    C4    1.314735 A    
C23   C28   1.411402 A    
C5    H1    1.083607 S    
Cu1   O5    1.959376 S    
C7    C8    1.404813 A    
C39   H19   1.070965 S    
C32   C39   1.540319 S    
C38   H17   1.110735 S    
O5    C3    1.298302 A    
N1    C12   1.356709 A    
C30   C31   1.356410 A    
C17   C18   1.407766 A    
C37   H14   1.091480 S    
C26   C42   1.507838 S    
C1    C25   1.451351 S    
C5    C10   1.404637 A    
C34   N5    1.374223 A    
C3    C28   1.443961 S    
C9    H3    1.083105 S    
C39   H20   1.114342 S    
C16   C41   1.515306 S    
O3    Cu1   1.951774 S    
N7    O10   1.301387 A    
C29   C30   1.364663 A    
C15   C16   1.433278 A    
C40   H23   1.109267 S    
C33   N6    1.427725 A    
N1    N2    1.330285 A    
O3    C2    1.303626 A    
C42   H28   1.109983 S    
C27   C28   1.390623 A    
N2    C11   1.357343 A    
C23   C24   1.414077 A    
N5    C35   1.387210 A    
O1    C1    1.298444 A    
C38   H18   1.109812 S    
C22   H8    1.079817 S    
H12   C36   1.083459 S    
C29   C34   1.405999 A    
C42   H29   1.109175 S    
C17   N8    1.436276 S    
C25   C26   1.411005 A    
Cu2   O8    1.951772 S    
C37   H15   1.110844 S    
C6    C40   1.508378 S    
C6    C7    1.416170 A    
C7    C12   1.472229 S    
C41   H25   1.104903 S    
C22   C23   1.414182 A    
C11   C18   1.475236 S    
N8    O12   1.301287 A    
C37   H13   1.110846 S    
C31   C32   1.414914 A    
C39   H21   1.114788 S    
C20   H6    1.082743 S    
C29   H10   1.046289 S    
C40   H24   1.110978 S    
C5    C6    1.400479 A    
C24   C25   1.418536 A    
O1    Cu1   1.958531 S    
C35   C36   1.413890 A    
O2    Cu2   1.959376 S    
O8    C4    1.311482 A    
O6    C3    1.297976 A    
O4    Cu2   1.944783 S    
C13   C18   1.393888 A    
C14   C15   1.424211 A    
C9    C10   1.399958 A    
O2    C1    1.297596 A    
C33   C34   1.457098 A    
C19   C20   1.394564 A    
Cu2   N5    2.034401 S    
C42   H30   1.110111 S    
C13   C14   1.393781 A    
C32   C33   1.502147 A    
C13   H4    1.084026 S    
C30   C38   1.507588 S    
C2    C10   1.471673 S    
C26   C27   1.386014 A    
C38   H16   1.110599 S    
Cu1   N6    2.034307 S    
C36   N6    1.351699 A    
C35   C37   1.505391 S    
N8    O11   1.301209 A    
Cu2   O6    1.958531 S    
H9    C27   1.082751 S    
N3    N4    1.329547 A    
C19   C24   1.416556 A    
