data_mof_unit_24637.cif
_audit_creation_date              2013-03-05T15:45:24-0500
_audit_creation_method            fapswitch 2.2
_symmetry_space_group_name_H-M    P1
_symmetry_Int_Tables_number       1
_space_group_crystal_system       triclinic
_cell_length_a                    29.326469
_cell_length_b                    16.979037
_cell_length_c                    19.00491
_cell_angle_alpha                 89.999605
_cell_angle_beta                  140.124002
_cell_angle_gamma                 89.999544
_cell_volume                      6067.13315871

loop_
_atom_site_label
_atom_site_type_symbol
_atom_site_description
_atom_site_fract_x
_atom_site_fract_y
_atom_site_fract_z
_atom_type_partial_charge
C1    C     C_R   0.170301 0.423641 0.814249 -0.099767
C2    C     C_R   0.809284 0.604284 0.204991 -0.127106
C3    C     C_R   0.829697 0.423646 0.185752 -0.099681
C4    C     C_R   0.190716 0.604280 0.795011 -0.127087
C5    C     C_R   0.670301 0.923643 0.814249 -0.099692
C6    C     C_R   0.309282 0.104281 0.204991 -0.127181
C7    C     C_R   0.329697 0.923642 0.185751 -0.099799
C8    C     C_R   0.690715 0.104288 0.795008 -0.127035
H1    H     H_    0.215016 0.461377 0.878282 0.116685
H2    H     H_    0.758794 0.576533 0.156174 0.109148
H3    H     H_    0.784981 0.461385 0.121725 0.116685
H4    H     H_    0.241207 0.576528 0.843831 0.109125
H5    H     H_    0.715016 0.961381 0.878279 0.116692
H6    H     H_    0.258793 0.076527 0.156173 0.109173
H7    H     H_    0.284981 0.961380 0.121719 0.116691
H8    H     H_    0.741208 0.076538 0.843837 0.109146
N1    N     N_R   0.127770 0.430660 0.707120 -0.052299
N2    N     N_R   0.872230 0.569340 0.292880 -0.048236
N3    N     N_R   0.872230 0.430660 0.292880 -0.052305
N4    N     N_R   0.127770 0.569340 0.707120 -0.048230
N5    N     N_R   0.627770 0.930660 0.707120 -0.052298
N6    N     N_R   0.372230 0.069340 0.292880 -0.048251
N7    N     N_R   0.372230 0.930660 0.292880 -0.052291
N8    N     N_R   0.627770 0.069340 0.707120 -0.048232
C9    C     C_R   0.860598 0.578692 0.482342 -0.104574
C10   C     C_R   0.167061 0.393091 0.584500 -0.130434
C11   C     C_R   0.139405 0.578693 0.517663 -0.104586
C12   C     C_R   0.832934 0.393104 0.415477 -0.130532
C13   C     C_R   0.360596 0.078693 0.482339 -0.104558
C14   C     C_R   0.667060 0.893097 0.584493 -0.130471
C15   C     C_R   0.639405 0.078725 0.517657 -0.104437
C16   C     C_R   0.332937 0.893093 0.415492 -0.130450
H9    H     H_    0.818140 0.541147 0.449955 0.103068
H10   H     H_    0.218487 0.421232 0.645176 0.099605
H11   H     H_    0.181864 0.541147 0.550053 0.103070
H12   H     H_    0.781511 0.421254 0.354767 0.099649
H13   H     H_    0.318138 0.041148 0.449950 0.103069
H14   H     H_    0.718484 0.921243 0.645164 0.099655
H15   H     H_    0.681879 0.041206 0.550048 0.103076
H16   H     H_    0.281510 0.921235 0.354807 0.099640
N9    N     N_R   0.889730 0.573880 0.452970 -0.050940
N10   N     N_R   0.110270 0.426120 0.547030 -0.047573
N11   N     N_R   0.110270 0.573880 0.547030 -0.050941
N12   N     N_R   0.889730 0.426120 0.452970 -0.047582
N13   N     N_R   0.389730 0.073880 0.452970 -0.050923
N14   N     N_R   0.610270 0.926120 0.547030 -0.047594
N15   N     N_R   0.610270 0.073880 0.547030 -0.050924
N16   N     N_R   0.389730 0.926120 0.452970 -0.047575
C17   C     C_R   0.917863 0.305102 0.508477 -0.024717
C18   C     C_R   0.055709 0.669387 0.428941 -0.037260
C19   C     C_R   0.082126 0.305102 0.491515 -0.024903
C20   C     C_R   0.944294 0.669384 0.571062 -0.037273
C21   C     C_R   0.417873 0.805102 0.508488 -0.024813
C22   C     C_R   0.555690 0.169396 0.428936 -0.037721
C23   C     C_R   0.582127 0.805103 0.491510 -0.024858
C24   C     C_R   0.444292 0.169385 0.571061 -0.037215
H17   H     H_    0.946619 0.250700 0.537780 0.156975
H18   H     H_    0.021092 0.719050 0.380675 0.154223
H19   H     H_    0.053365 0.250711 0.462233 0.157006
H20   H     H_    0.978913 0.719043 0.619330 0.154245
H21   H     H_    0.446637 0.750710 0.537785 0.156989
H22   H     H_    0.521045 0.219032 0.380670 0.154564
H23   H     H_    0.553366 0.750711 0.462221 0.157002
H24   H     H_    0.478910 0.219045 0.619328 0.154276
N17   N     N_R   0.941150 0.372910 0.507880 -0.059928
N18   N     N_R   0.058850 0.627090 0.492120 -0.060074
N19   N     N_R   0.058850 0.372910 0.492120 -0.059927
N20   N     N_R   0.941150 0.627090 0.507880 -0.060075
N21   N     N_R   0.441150 0.872910 0.507880 -0.059925
N22   N     N_R   0.558850 0.127090 0.492120 -0.060071
N23   N     N_R   0.558850 0.872910 0.492120 -0.059942
N24   N     N_R   0.441150 0.127090 0.507880 -0.060056
C25   C     C_R   0.108111 0.698114 0.708499 -0.043001
C26   C     C_R   0.910782 0.325833 0.275511 -0.048860
C27   C     C_R   0.891887 0.698115 0.291500 -0.042973
C28   C     C_R   0.089219 0.325829 0.724486 -0.049029
C29   C     C_R   0.608105 0.198117 0.708482 -0.043059
C30   C     C_R   0.410780 0.825828 0.275513 -0.048942
C31   C     C_R   0.391882 0.198116 0.291503 -0.043314
C32   C     C_R   0.589220 0.825830 0.724489 -0.048972
H25   H     H_    0.080357 0.753382 0.678527 0.157527
H26   H     H_    0.939865 0.273555 0.296411 0.150607
H27   H     H_    0.919640 0.753382 0.321470 0.157502
H28   H     H_    0.060136 0.273550 0.703579 0.150579
H29   H     H_    0.580341 0.253378 0.678484 0.157610
H30   H     H_    0.439861 0.773547 0.296418 0.150611
H31   H     H_    0.419628 0.253388 0.321474 0.157700
H32   H     H_    0.560139 0.773550 0.703587 0.150593
N25   N     N_R   0.076340 0.631640 0.652210 -0.061840
N26   N     N_R   0.923660 0.368360 0.347790 -0.062770
N27   N     N_R   0.923660 0.631640 0.347790 -0.061834
N28   N     N_R   0.076340 0.368360 0.652210 -0.062772
N29   N     N_R   0.576340 0.131640 0.652210 -0.061836
N30   N     N_R   0.423660 0.868360 0.347790 -0.062774
N31   N     N_R   0.423660 0.131640 0.347790 -0.061899
N32   N     N_R   0.576340 0.868360 0.652210 -0.062770
C33   C     C_R   0.145361 0.360919 0.826586 0.106217
C34   C     C_R   0.819658 0.684376 0.202642 0.113985
C35   C     C_R   0.854637 0.360928 0.173412 0.106203
C36   C     C_R   0.180341 0.684373 0.797361 0.113993
C37   C     C_R   0.645361 0.860923 0.826588 0.106200
C38   C     C_R   0.319653 0.184374 0.202643 0.114021
C39   C     C_R   0.354637 0.860920 0.173413 0.106178
C40   C     C_R   0.680335 0.184383 0.797348 0.113915
C41   C     C_R   0.895851 0.637487 0.561174 0.084695
C42   C     C_R   0.151866 0.315113 0.552037 0.095521
C43   C     C_R   0.104154 0.637490 0.438832 0.084720
C44   C     C_R   0.848118 0.315127 0.447934 0.095621
C45   C     C_R   0.395848 0.137488 0.561171 0.084674
C46   C     C_R   0.651867 0.815118 0.552032 0.095525
C47   C     C_R   0.604143 0.137539 0.438832 0.084406
C48   C     C_R   0.348130 0.815115 0.447955 0.095521
Ni1   Ni    Ni4+2 0.119340 0.500000 0.625930 0.229139
Ni2   Ni    Ni4+2 0.880660 0.500000 0.374070 0.229175
Ni3   Ni    Ni4+2 0.619340 1.000000 0.625930 0.229150
Ni4   Ni    Ni4+2 0.380660 1.000000 0.374070 0.229154
Ni5   Ni    Ni4+2 1.000000 0.373980 0.500000 0.268188
Ni6   Ni    Ni4+2 1.000000 0.626020 0.500000 0.271949
Ni7   Ni    Ni4+2 0.500000 0.873980 0.500000 0.268158
Ni8   Ni    Ni4+2 0.500000 0.126020 0.500000 0.271927
C49   C     C_R   0.805342 0.218946 0.973459 -0.267587
C50   C     C_R   0.260168 0.864786 0.970309 -0.250617
C51   C     C_R   0.194647 0.218914 0.026512 -0.267685
C52   C     C_R   0.739827 0.864791 0.029692 -0.250540
C53   C     C_R   0.305346 0.718914 0.973489 -0.267631
C54   C     C_R   0.760149 0.364790 0.970314 -0.250535
C55   C     C_R   0.694651 0.718922 0.026518 -0.267644
C56   C     C_R   0.239821 0.364788 0.029691 -0.250621
H33   H     H_    0.823788 0.162802 0.975727 0.181775
H34   H     H_    0.242613 0.921897 0.967638 0.182471
H35   H     H_    0.176209 0.162756 0.024228 0.181785
H36   H     H_    0.757382 0.921902 0.032360 0.182496
H37   H     H_    0.323787 0.662758 0.975773 0.181768
H38   H     H_    0.742580 0.421890 0.967644 0.182426
H39   H     H_    0.676212 0.662766 0.024236 0.181780
H40   H     H_    0.257374 0.421900 0.032359 0.182499
C57   C     C_R   0.851782 0.265624 0.067582 0.358412
C58   C     C_R   0.217936 0.823357 0.872703 0.352406
C59   C     C_R   0.148208 0.265596 0.932393 0.358457
C60   C     C_R   0.782059 0.823363 0.127300 0.352372
C61   C     C_R   0.351786 0.765597 0.067604 0.358427
C62   C     C_R   0.717907 0.323362 0.872711 0.352457
C63   C     C_R   0.648211 0.765605 0.932401 0.358424
C64   C     C_R   0.282050 0.323361 0.127300 0.352382
C65   C     C_R   0.823881 0.332136 0.070175 -0.061669
C66   C     C_R   0.235463 0.743904 0.878608 -0.063194
C67   C     C_R   0.176107 0.332121 0.929817 -0.061681
C68   C     C_R   0.764534 0.743909 0.121397 -0.063195
C69   C     C_R   0.323887 0.832122 0.070181 -0.061690
C70   C     C_R   0.735450 0.243922 0.878592 -0.063257
C71   C     C_R   0.676110 0.832128 0.929820 -0.061677
C72   C     C_R   0.264527 0.243905 0.121396 -0.063167
C73   C     C_R   0.202848 0.256343 0.584188 -0.036992
C74   C     C_R   0.879272 0.663236 0.614162 -0.026764
C75   C     C_R   0.797111 0.256385 0.415747 -0.036915
C76   C     C_R   0.120735 0.663238 0.385848 -0.026752
C77   C     C_R   0.702853 0.756349 0.584190 -0.036962
C78   C     C_R   0.379268 0.163234 0.614158 -0.026742
C79   C     C_R   0.297144 0.756347 0.415796 -0.036940
C80   C     C_R   0.620716 0.163355 0.385857 -0.026979
C81   C     C_R   0.875839 0.768786 0.695977 -0.271695
C82   C     C_R   0.225859 0.132469 0.551551 -0.250215
C83   C     C_R   0.124159 0.768783 0.304015 -0.271710
C84   C     C_R   0.773984 0.132458 0.448124 -0.250269
C85   C     C_R   0.375839 0.268775 0.695987 -0.271748
C86   C     C_R   0.725870 0.632470 0.551574 -0.250170
C87   C     C_R   0.624266 0.269032 0.304306 -0.271679
C88   C     C_R   0.274136 0.632471 0.448429 -0.250202
C89   C     C_R   0.911614 0.729891 0.684018 0.355271
C90   C     C_R   0.184359 0.176680 0.548970 0.355476
C91   C     C_R   0.088385 0.729885 0.315975 0.355252
C92   C     C_R   0.815512 0.176675 0.450756 0.355416
C93   C     C_R   0.411612 0.229884 0.684021 0.355247
C94   C     C_R   0.684373 0.676680 0.548998 0.355409
C95   C     C_R   0.588503 0.230169 0.316287 0.355535
C96   C     C_R   0.315626 0.676678 0.450988 0.355431
C97   C     C_R   0.822017 0.626747 0.581112 -0.218972
C98   C     C_R   0.269878 0.283628 0.641248 -0.219704
C99   C     C_R   0.177996 0.626752 0.418909 -0.218979
C100  C     C_R   0.730142 0.283749 0.358849 -0.219635
C101  C     C_R   0.322012 0.126744 0.581104 -0.218989
C102  C     C_R   0.769879 0.783640 0.641236 -0.219636
C103  C     C_R   0.677872 0.126780 0.418693 -0.218932
C104  C     C_R   0.230120 0.783640 0.358755 -0.219639
C105  C     C_R   0.787199 0.664960 0.594478 0.117128
C106  C     C_R   0.311634 0.238870 0.645749 0.122989
C107  C     C_R   0.212809 0.664962 0.405532 0.117149
C108  C     C_R   0.688372 0.239005 0.354314 0.123013
C109  C     C_R   0.287193 0.164955 0.594470 0.117151
C110  C     C_R   0.811636 0.738880 0.645745 0.122969
C111  C     C_R   0.712716 0.165006 0.405370 0.117139
C112  C     C_R   0.188366 0.738880 0.354254 0.122966
H41   H     H_    0.288371 0.342071 0.675865 0.137454
H42   H     H_    0.800236 0.571610 0.536917 0.139549
H43   H     H_    0.711716 0.342247 0.324417 0.137420
H44   H     H_    0.199783 0.571619 0.463115 0.139547
H45   H     H_    0.788366 0.842088 0.675834 0.137465
H46   H     H_    0.300230 0.071609 0.536906 0.139544
H47   H     H_    0.211629 0.842089 0.324153 0.137460
H48   H     H_    0.699559 0.071561 0.462698 0.139595
H49   H     H_    0.397639 0.322798 0.743241 0.180851
H50   H     H_    0.709726 0.573079 0.518870 0.178880
H51   H     H_    0.602549 0.323161 0.257272 0.180612
H52   H     H_    0.290281 0.573079 0.481136 0.178851
H53   H     H_    0.897636 0.822813 0.743223 0.180864
H54   H     H_    0.209709 0.073083 0.518831 0.178817
H55   H     H_    0.102356 0.822805 0.256756 0.180879
H56   H     H_    0.790061 0.073023 0.480675 0.178864
N33   N     N_R   0.926231 0.246569 0.156503 0.226055
O1    O     O_R   0.947097 0.173730 0.175811 -0.338437
O2    O     O_R   0.973268 0.302595 0.207617 -0.392133
N34   N     N_R   0.160416 0.863355 0.770068 0.232584
O3    O     O_R   0.125884 0.919252 0.761264 -0.307833
O4    O     O_R   0.149875 0.852569 0.690571 -0.361207
N35   N     N_R   0.073762 0.246533 0.843463 0.226032
O5    O     O_R   0.052904 0.173689 0.824131 -0.338640
O6    O     O_R   0.026718 0.302552 0.792356 -0.392144
N36   N     N_R   0.839577 0.863359 0.229934 0.232600
O7    O     O_R   0.874099 0.919266 0.238734 -0.307804
O8    O     O_R   0.850122 0.852564 0.309433 -0.361165
N37   N     N_R   0.426234 0.746537 0.156531 0.226040
O9    O     O_R   0.447096 0.673694 0.175853 -0.338447
O10   O     O_R   0.473274 0.802558 0.207637 -0.392224
N38   N     N_R   0.660336 0.363347 0.770095 0.232497
O11   O     O_R   0.625622 0.418992 0.761247 -0.307807
O12   O     O_R   0.649833 0.352754 0.690612 -0.360883
N39   N     N_R   0.573763 0.746547 0.843474 0.226041
O13   O     O_R   0.552902 0.673706 0.824154 -0.338512
O14   O     O_R   0.526722 0.802570 0.792362 -0.392161
N40   N     N_R   0.339557 0.363361 0.229936 0.232651
O15   O     O_R   0.374057 0.419300 0.238733 -0.307517
O16   O     O_R   0.350102 0.352544 0.309432 -0.361156
N41   N     N_R   0.126561 0.138521 0.515753 0.228955
O17   O     O_R   0.125873 0.136181 0.583391 -0.354496
O18   O     O_R   0.084121 0.092315 0.430545 -0.298456
N42   N     N_R   0.981132 0.756618 0.746515 0.222899
O19   O     O_R   0.033103 0.706217 0.803589 -0.395894
O20   O     O_R   0.995607 0.831565 0.762888 -0.345343
N43   N     N_R   0.873235 0.138483 0.483786 0.229050
O21   O     O_R   0.873944 0.136399 0.416169 -0.354629
O22   O     O_R   0.915565 0.092036 0.568736 -0.298509
N44   N     N_R   0.018855 0.756594 0.253449 0.222919
O23   O     O_R   0.966906 0.706171 0.196433 -0.395906
O24   O     O_R   0.004343 0.831531 0.236972 -0.345387
N45   N     N_R   0.626593 0.638513 0.515828 0.228995
O25   O     O_R   0.625900 0.636238 0.583460 -0.354515
O26   O     O_R   0.584185 0.592242 0.430694 -0.298223
N46   N     N_R   0.481132 0.256607 0.746527 0.222923
O27   O     O_R   0.533096 0.206198 0.803574 -0.395880
O28   O     O_R   0.495619 0.331550 0.762942 -0.345223
N47   N     N_R   0.373396 0.638506 0.484131 0.229005
O29   O     O_R   0.374089 0.636267 0.416499 -0.354501
O30   O     O_R   0.415791 0.592201 0.569231 -0.298422
N48   N     N_R   0.519154 0.257199 0.254202 0.222585
O31   O     O_R   0.466851 0.207153 0.196232 -0.395886
O32   O     O_R   0.505214 0.332271 0.239348 -0.344841

loop_
_geom_bond_atom_site_label_1
_geom_bond_atom_site_label_2
_geom_bond_distance
_ccdc_geom_bond_type
C25   C36   1.379406 A    
C8    N8    1.348006 A    
C48   C79   1.484018 S    
C2    N2    1.347976 A    
C86   C105  1.397519 A    
C16   N16   1.332289 A    
N6    N31   1.437712 A    
N32   Ni7   1.857161 S    
N43   O21   1.301555 A    
C3    H3    1.077826 S    
N9    Ni2   1.811246 S    
N35   O5    1.301518 A    
C21   N21   1.343037 A    
N38   O11   1.301757 A    
C60   C68   1.417104 A    
C96   N47   1.431480 S    
C31   H31   1.075128 S    
C61   C69   1.417455 A    
N47   O29   1.301558 A    
C9    N9    1.334215 A    
C75   C100  1.408068 A    
N15   Ni3   1.811228 S    
N1    N28   1.437713 A    
C59   C67   1.417456 A    
N48   O31   1.301851 A    
C17   N17   1.343102 A    
N14   Ni3   1.811247 S    
C14   C46   1.382118 A    
C108  C111  1.402340 A    
N2    N27   1.437712 A    
C13   C45   1.390204 A    
C89   N42   1.434016 S    
C55   H39   1.080472 S    
C53   C66   1.399834 A    
N35   O6    1.301790 A    
N4    Ni1   1.800728 S    
C76   C99   1.406760 A    
C81   H53   1.084150 S    
C99   C107  1.387913 A    
C101  H46   1.080016 S    
C85   C93   1.398032 A    
C6    N6    1.347973 A    
C51   C59   1.394079 A    
C97   C105  1.387911 A    
C49   C70   1.399845 A    
C52   H36   1.080666 S    
C12   N12   1.332164 A    
C88   C96   1.398379 A    
C86   H50   1.084297 S    
C40   C70   1.479199 S    
C82   C90   1.398369 A    
C85   H49   1.084150 S    
N48   O32   1.301702 A    
C20   H20   1.074117 S    
N20   Ni6   1.843384 S    
N7    Ni4   1.800728 S    
C73   C98   1.408153 A    
C101  C109  1.387906 A    
C75   C92   1.419323 A    
C10   H10   1.078550 S    
C36   C66   1.479182 S    
C24   N24   1.340216 A    
C23   H23   1.074036 S    
C73   C90   1.419321 A    
N44   O24   1.301364 A    
C104  C112  1.386914 A    
C31   C38   1.379403 A    
C3    N3    1.348080 A    
C83   C112  1.398392 A    
N29   Ni8   1.857165 S    
C87   H51   1.084200 S    
C79   C104  1.408171 A    
C4    H4    1.080148 S    
C84   C111  1.397581 A    
C83   C91   1.398053 A    
N41   O17   1.301597 A    
N16   N21   1.328093 A    
C80   C103  1.406818 A    
C5    H5    1.077832 S    
C43   C76   1.480907 S    
C20   N20   1.340196 A    
C27   N27   1.325358 A    
C77   C94   1.419325 A    
N16   Ni4   1.811229 S    
C81   C89   1.398035 A    
C30   H30   1.073826 S    
N6    Ni4   1.800710 S    
C41   C74   1.480905 S    
C35   C65   1.478456 S    
C29   H29   1.075098 S    
C6    C38   1.401672 A    
C8    H8    1.080148 S    
C88   C107  1.397523 A    
C15   N15   1.334343 A    
N45   O25   1.301566 A    
C82   H54   1.084295 S    
N13   N24   1.328119 A    
C33   C67   1.478488 S    
C10   C42   1.382103 A    
N12   N17   1.328093 A    
C102  H45   1.078876 S    
C21   H21   1.074042 S    
C26   H26   1.073829 S    
C45   C78   1.480909 S    
N19   Ni5   1.843381 S    
C54   H38   1.080667 S    
C100  C108  1.386762 A    
C90   N41   1.431456 S    
C54   C65   1.399319 A    
N46   O28   1.301373 A    
N33   O1    1.301512 A    
N9    N20   1.328119 A    
N22   Ni8   1.843382 S    
C99   H44   1.080015 S    
C54   C62   1.394008 A    
C98   H41   1.078880 S    
C5    C37   1.409700 A    
C28   H28   1.073824 S    
C86   C94   1.398370 A    
C97   H42   1.080014 S    
N1    Ni1   1.800713 S    
C18   H18   1.074127 S    
N26   Ni5   1.857167 S    
C105  C110  1.402300 A    
N5    Ni3   1.800713 S    
C1    H1    1.077833 S    
C50   C58   1.394084 A    
N42   O19   1.301683 A    
C9    C41   1.390201 A    
C53   C61   1.394081 A    
C55   C63   1.394082 A    
C22   H22   1.074009 S    
N3    Ni2   1.800728 S    
C11   H11   1.076717 S    
C28   C33   1.388311 A    
C49   C57   1.394106 A    
N21   Ni7   1.843385 S    
C27   C34   1.379406 A    
C88   H52   1.084300 S    
C74   C89   1.417849 A    
C13   N13   1.334222 A    
C58   N34   1.435671 S    
C5    N5    1.348109 A    
C59   N35   1.436761 S    
C47   C80   1.480884 S    
C50   C69   1.399343 A    
N15   N22   1.328092 A    
C31   N31   1.325376 A    
N37   O9    1.301513 A    
C98   C106  1.386928 A    
C3    C35   1.409685 A    
C83   H55   1.084150 S    
N41   O18   1.301313 A    
N30   Ni7   1.857167 S    
C78   C93   1.417841 A    
N36   O8    1.301846 A    
N39   O13   1.301515 A    
C22   N22   1.340036 A    
C11   C43   1.390192 A    
C17   C44   1.387170 A    
C104  H47   1.078887 S    
C53   H37   1.080473 S    
N24   Ni8   1.843384 S    
C9    H9    1.076721 S    
C24   H24   1.074125 S    
N44   O23   1.301666 A    
N14   N23   1.328118 A    
N27   Ni6   1.857163 S    
C42   C73   1.484008 S    
N43   O22   1.301265 A    
C19   N19   1.343003 A    
N25   Ni6   1.857165 S    
N40   O16   1.301838 A    
C8    C40   1.401726 A    
C12   H12   1.078544 S    
C107  C112  1.402305 A    
C100  H43   1.078886 S    
C38   C72   1.479176 S    
C28   N28   1.324627 A    
N28   Ni5   1.857161 S    
C93   N46   1.434012 S    
C60   N36   1.435673 S    
N39   O14   1.301790 A    
C52   C71   1.399347 A    
N34   O4    1.301857 A    
C20   C41   1.391817 A    
C79   C96   1.419322 A    
N45   O26   1.301278 A    
C91   N44   1.434027 S    
C84   H56   1.084296 S    
N10   N19   1.328118 A    
C13   H13   1.076719 S    
C80   C95   1.417877 A    
C84   C92   1.398511 A    
C32   N32   1.324636 A    
C77   C102  1.408166 A    
C1    C33   1.409709 A    
C2    H2    1.080147 S    
C24   C45   1.391827 A    
C27   H27   1.075129 S    
N10   Ni1   1.811247 S    
N2    Ni2   1.800710 S    
C10   N10   1.332293 A    
C95   N48   1.433821 S    
C87   C95   1.397764 A    
C30   N30   1.324630 A    
C57   C65   1.417459 A    
C62   N38   1.435600 S    
C51   C72   1.399829 A    
C49   H33   1.080476 S    
N17   Ni5   1.843385 S    
C63   C71   1.417453 A    
C16   C48   1.382094 A    
C51   H35   1.080472 S    
C30   C39   1.388307 A    
C14   N14   1.332281 A    
C52   C60   1.394088 A    
C85   C106  1.398393 A    
C63   N39   1.436765 S    
C81   C110  1.398387 A    
N38   O12   1.301881 A    
C17   H17   1.074076 S    
C37   C71   1.478478 S    
C18   N18   1.340214 A    
C56   C67   1.399349 A    
C26   C35   1.388311 A    
C103  C111  1.388038 A    
N5    N32   1.437713 A    
C21   C48   1.387157 A    
N31   Ni8   1.857163 S    
N4    N25   1.437685 A    
C55   C68   1.399833 A    
C76   C91   1.417849 A    
C1    N1    1.348118 A    
C103  H48   1.080073 S    
C56   C64   1.394098 A    
N7    N30   1.437684 A    
N23   Ni7   1.843381 S    
C32   C37   1.388315 A    
N37   O10   1.301791 A    
C64   N40   1.435681 S    
C62   C70   1.417106 A    
C106  C109  1.402300 A    
C4    C36   1.401687 A    
C25   N25   1.325359 A    
C6    H6    1.080148 S    
C23   C46   1.387158 A    
N3    N26   1.437684 A    
N46   O27   1.301672 A    
N11   Ni1   1.811228 S    
C29   N29   1.325310 A    
N13   Ni4   1.811246 S    
C26   N26   1.324645 A    
N36   O7    1.301605 A    
C18   C43   1.391824 A    
C44   C75   1.483966 S    
C34   C68   1.479176 S    
C58   C66   1.417105 A    
C19   C42   1.387137 A    
C7    N7    1.348111 A    
C87   C108  1.398272 A    
C7    H7    1.077831 S    
N33   O2    1.301793 A    
N42   O20   1.301400 A    
C22   C47   1.391708 A    
C94   N45   1.431471 S    
C16   H16   1.078556 S    
N40   O15   1.301587 A    
C12   C44   1.382047 A    
C78   C101  1.406748 A    
C25   H25   1.075127 S    
N47   O30   1.301268 A    
C46   C77   1.484020 S    
C39   C69   1.478477 S    
N12   Ni2   1.811229 S    
C4    N4    1.347977 A    
C92   N43   1.431484 S    
C11   N11   1.334213 A    
C19   H19   1.074031 S    
N34   O3    1.301636 A    
C2    C34   1.401684 A    
N8    Ni3   1.800728 S    
C32   H32   1.073825 S    
C56   H40   1.080664 S    
N18   Ni6   1.843382 S    
C74   C97   1.406753 A    
C57   N33   1.436763 S    
C15   H15   1.076759 S    
C15   C47   1.390329 A    
C29   C40   1.379383 A    
C7    C39   1.409700 A    
C102  C110  1.386902 A    
C14   H14   1.078554 S    
N8    N29   1.437685 A    
C50   H34   1.080665 S    
C82   C109  1.397501 A    
C23   N23   1.343028 A    
C64   C72   1.417106 A    
N11   N18   1.328092 A    
C61   N37   1.436766 S    
