data_mof_unit_40783.cif
_audit_creation_date              2012-12-10T17:55:03-0500
_audit_creation_method            fapswitch 2.2
_symmetry_space_group_name_H-M    P1
_symmetry_Int_Tables_number       1
_space_group_crystal_system       triclinic
_cell_length_a                    8.803436
_cell_length_b                    10.830001
_cell_length_c                    9.546896
_cell_angle_alpha                 90.384453
_cell_angle_beta                  98.030858
_cell_angle_gamma                 90.849819
_cell_volume                      901.151647307

loop_
_atom_site_label
_atom_site_type_symbol
_atom_type_description
_atom_site_fract_x
_atom_site_fract_y
_atom_site_fract_z
_atom_type_partial_charge
C1    C     C_R   0.499810 0.262160 0.499667 0.807281
C2    C     C_R   0.500190 0.737840 0.500332 0.807280
C3    C     C_R   0.204270 0.499142 0.464350 0.870959
C4    C     C_R   0.795730 0.500857 0.535650 0.870958
C5    C     C_2   0.040224 0.483875 0.447057 0.089552
C6    C     C_2   0.959776 0.516124 0.552943 0.089552
C7    C     C_R   0.507285 0.063128 0.373655 -0.110567
C8    C     C_R   0.492715 0.936872 0.626344 -0.110567
C9    C     C_R   0.507523 0.935392 0.374029 -0.162344
C10   C     C_R   0.492477 0.064608 0.625970 -0.162344
C11   C     C_R   0.500229 0.871738 0.500386 -0.027954
C12   C     C_R   0.499771 0.128262 0.499614 -0.027954
C13   C     C_R   0.404882 0.421607 0.059782 0.484926
C14   C     C_R   0.595118 0.578393 0.940218 0.484926
C15   C     C_R   0.405286 0.422156 0.911687 -0.081534
C16   C     C_R   0.594714 0.577844 0.088313 -0.081534
Cu1   Cu    Cu3+1 0.500000 0.500020 0.640660 1.060520
Cu2   Cu    Cu3+1 0.500000 0.499980 0.359340 1.060520
H1    H     H_    0.513363 0.110556 0.275016 0.189794
H2    H     H_    0.486637 0.889444 0.724984 0.189794
H3    H     H_    0.513679 0.886787 0.275488 0.169130
H4    H     H_    0.486321 0.113213 0.724511 0.169130
H5    H     H_    0.329675 0.359889 0.844469 0.181345
H6    H     H_    0.670325 0.640111 0.155530 0.181345
N1    N     N_R   0.500040 0.500030 0.852080 -0.224753
N2    N     N_R   0.499960 0.499970 0.147920 -0.224753
O1    O     O_R   0.499990 0.319660 0.618740 -0.609035
O2    O     O_R   0.500010 0.680340 0.381260 -0.609035
O3    O     O_R   0.499990 0.319630 0.381170 -0.541400
O4    O     O_R   0.500010 0.680370 0.618830 -0.541400
O5    O     O_R   0.274840 0.500010 0.591370 -0.565654
O6    O     O_R   0.725160 0.499990 0.408630 -0.565654
O7    O     O_R   0.274830 0.499980 0.353800 -0.506736
O8    O     O_R   0.725170 0.500020 0.646200 -0.506736
Cl1   Cl    Cl    0.960027 0.404125 0.290010 -0.505524
Cl2   Cl    Cl    0.039973 0.595874 0.709990 -0.505524
Cl3   Cl    Cl    0.279330 0.316546 0.125456 -0.518006
Cl4   Cl    Cl    0.720670 0.683454 0.874544 -0.518006

loop_
_geom_bond_atom_site_label_1
_geom_bond_atom_site_label_2
_ccdc_geom_bond_type
C14   Cl4   S    
C4    O8    A    
C13   Cl3   S    
Cu2   N2    S    
C2    O4    A    
Cu1   N1    S    
C1    O3    A    
Cu1   Cu2   S    
C16   H6    S    
Cu2   O3    S    
C4    O6    A    
C10   H4    S    
C3    O5    A    
Cu1   O4    S    
C9    C11   A    
C9    H3    S    
C8    H2    S    
C1    C12   S    
C10   C12   A    
C8    C11   A    
C2    C11   S    
C5    Cl1   S    
C15   H5    S    
C6    Cl2   S    
C7    H1    S    
C13   C15   A    
C14   N1    A    
C16   N2    A    
C5    C6    D    
Cu1   O5    S    
Cu2   O7    S    
C14   C16   A    
C13   N2    A    
C15   N1    A    
C4    C6    S    
Cu2   O6    S    
Cu1   O8    S    
C3    O7    A    
Cu1   O1    S    
C7    C9    A    
Cu2   O2    S    
C8    C10   A    
C1    O1    A    
C2    O2    A    
C7    C12   A    
C3    C5    S    
