data_mof_unit_62348.cif
_audit_creation_date              2012-12-10T17:40:57-0500
_audit_creation_method            fapswitch 2.2
_symmetry_space_group_name_H-M    P1
_symmetry_Int_Tables_number       1
_space_group_crystal_system       triclinic
_cell_length_a                    14.780743
_cell_length_b                    15.828917
_cell_length_c                    10.152514
_cell_angle_alpha                 90.112659
_cell_angle_beta                  88.176742
_cell_angle_gamma                 89.698149
_cell_volume                      2374.07328431

loop_
_atom_site_label
_atom_site_type_symbol
_atom_type_description
_atom_site_fract_x
_atom_site_fract_y
_atom_site_fract_z
_atom_type_partial_charge
C1    C     C_R   0.388173 0.874256 0.501265 0.985501
C2    C     C_R   0.390056 0.126718 0.501903 0.954990
C3    C     C_R   0.888172 0.374257 0.501265 0.985501
C4    C     C_R   0.890056 0.626717 0.501900 0.955032
C5    C     C_R   0.327642 0.253972 0.397557 0.044741
C6    C     C_R   0.333773 0.741879 0.396692 0.022641
C7    C     C_R   0.827643 0.753971 0.397547 0.044881
C8    C     C_R   0.833769 0.241884 0.396690 0.022616
C9    C     C_R   0.751713 0.806264 0.391656 0.492847
C10   C     C_R   0.756800 0.187949 0.387252 0.485242
C11   C     C_R   0.251713 0.306264 0.391659 0.492878
C12   C     C_R   0.256806 0.687941 0.387262 0.485238
C13   C     C_R   0.690083 0.812818 0.501628 -0.180739
C14   C     C_R   0.693745 0.183952 0.497514 -0.161248
C15   C     C_R   0.190079 0.312816 0.501626 -0.180675
C16   C     C_R   0.193756 0.683942 0.497529 -0.161237
C17   C     C_R   0.332022 0.975136 0.143260 0.539420
C18   C     C_R   0.832021 0.475141 0.143259 0.539405
C19   C     C_R   0.262861 0.935419 0.077505 -0.230785
C20   C     C_R   0.762859 0.435423 0.077506 -0.230803
C21   C     C_R   0.260865 0.939997 0.944282 -0.345320
C22   C     C_R   0.760864 0.440000 0.944283 -0.345321
C23   C     C_R   0.331496 0.978162 0.871882 0.534518
C24   C     C_R   0.831496 0.478162 0.871882 0.534491
C25   C     C_R   0.418069 0.989485 0.931651 -0.035677
C26   C     C_R   0.918069 0.489484 0.931651 -0.035768
C27   C     C_R   0.418350 0.988121 0.075816 -0.060535
C28   C     C_R   0.918350 0.488123 0.075816 -0.060542
C29   C     C_R   0.576237 0.010015 0.066891 0.012821
C30   C     C_R   0.076236 0.510023 0.066891 0.012805
C31   C     C_R   0.620161 0.120734 0.498732 0.872897
C32   C     C_R   0.618580 0.877993 0.499644 0.892847
C33   C     C_R   0.120163 0.620732 0.498735 0.873030
C34   C     C_R   0.118579 0.377992 0.499644 0.892778
C35   C     C_R   0.576347 0.009851 0.925809 -0.067056
C36   C     C_R   0.076346 0.509858 0.925809 -0.067070
C37   C     C_R   0.346102 0.237579 0.744470 0.508417
C38   C     C_R   0.344212 0.763705 0.740122 0.447747
C39   C     C_R   0.846149 0.737628 0.744416 0.508337
C40   C     C_R   0.844181 0.263711 0.740124 0.447732
C41   C     C_R   0.298853 0.251638 0.863431 0.423819
C42   C     C_R   0.293831 0.756074 0.861043 0.408062
C43   C     C_R   0.798924 0.751697 0.863400 0.423563
C44   C     C_R   0.793786 0.256077 0.861034 0.408054
C45   C     C_R   0.706417 0.768184 0.862897 0.027922
C46   C     C_R   0.701328 0.240190 0.854582 0.093238
C47   C     C_R   0.206354 0.268150 0.862892 0.027763
C48   C     C_R   0.201374 0.740175 0.854612 0.093238
C49   C     C_R   0.663860 0.779802 0.743587 -0.260293
C50   C     C_R   0.663164 0.222153 0.735075 -0.291975
C51   C     C_R   0.163823 0.279779 0.743566 -0.260315
C52   C     C_R   0.163200 0.722122 0.735116 -0.291927
C53   C     C_R   0.714024 0.773650 0.622721 -0.078339
C54   C     C_R   0.715282 0.225246 0.616965 -0.095569
C55   C     C_R   0.214010 0.273641 0.622718 -0.078227
C56   C     C_R   0.215304 0.725224 0.616989 -0.095605
C57   C     C_R   0.298495 0.233972 0.626729 -0.151392
C58   C     C_R   0.297266 0.766713 0.622238 -0.096231
C59   C     C_R   0.798506 0.733977 0.626716 -0.151322
C60   C     C_R   0.797247 0.266726 0.622231 -0.096211
C61   C     C_R   0.339637 0.206310 0.508923 -0.222182
C62   C     C_R   0.337991 0.794426 0.505583 -0.152899
C63   C     C_R   0.839635 0.706308 0.508910 -0.221923
C64   C     C_R   0.837987 0.294430 0.505582 -0.152877
H1    H     H_    0.200223 0.918204 0.898541 0.185032
H2    H     H_    0.700221 0.418209 0.898542 0.185018
H3    H     H_    0.639922 0.017815 0.871604 0.141786
H4    H     H_    0.139920 0.517826 0.871604 0.141799
H5    H     H_    0.593368 0.796167 0.748950 0.266540
H6    H     H_    0.593143 0.206181 0.738406 0.278222
H7    H     H_    0.093332 0.296150 0.748907 0.266570
H8    H     H_    0.093179 0.706147 0.738476 0.278224
H9    H     H_    0.639463 0.017578 0.115410 0.160732
H10   H     H_    0.139461 0.517590 0.115410 0.160743
H11   H     H_    0.203783 0.911077 0.130071 0.209938
H12   H     H_    0.703782 0.411083 0.130074 0.209948
N1    N     N_R   0.498810 1.000000 0.142780 -0.095261
N2    N     N_R   0.998810 0.500000 0.142780 -0.095254
N3    N     N_R   0.498740 1.000000 0.857170 -0.094289
N4    N     N_R   0.998740 0.500000 0.857170 -0.094293
O1    O     O_R   0.408390 0.908380 0.614690 -0.553452
O2    O     O_R   0.408390 0.091620 0.614690 -0.533185
O3    O     O_R   0.908390 0.408380 0.614690 -0.553454
O4    O     O_R   0.908390 0.591620 0.614690 -0.533192
O5    O     O_R   0.408370 0.908380 0.385360 -0.556050
O6    O     O_R   0.408370 0.091620 0.385360 -0.553044
O7    O     O_R   0.908370 0.408380 0.385360 -0.556052
O8    O     O_R   0.908370 0.591620 0.385360 -0.553091
O9    O     O_R   0.591620 0.091610 0.614640 -0.639246
O10   O     O_R   0.591620 0.908390 0.614640 -0.638042
O11   O     O_R   0.091620 0.591610 0.614640 -0.639261
O12   O     O_R   0.091620 0.408390 0.614640 -0.638042
O13   O     O_R   0.591610 0.091610 0.385310 -0.563516
O14   O     O_R   0.591610 0.908390 0.385310 -0.564119
O15   O     O_R   0.091610 0.591610 0.385310 -0.563514
O16   O     O_R   0.091610 0.408390 0.385310 -0.564115
Zn1   Zn    Zn3+2 0.500010 1.000000 0.653130 1.022666
Zn2   Zn    Zn3+2 0.000010 0.500000 0.653130 1.022657
Zn3   Zn    Zn3+2 0.499980 0.000000 0.346870 1.056290
Zn4   Zn    Zn3+2 0.999980 0.500000 0.346870 1.056288
I1    I     I_    0.446533 0.280455 0.283200 -0.302574
I2    I     I_    0.469575 0.713058 0.326204 -0.459191
I3    I     I_    0.946547 0.780472 0.283228 -0.302473
I4    I     I_    0.969571 0.213059 0.326205 -0.459205
O17   O     O_3   0.316351 0.003442 0.744657 -0.542347
C65   C     C_3   0.226776 0.031763 0.723017 -0.345065
H13   H     H_    0.199725 0.072670 0.804629 0.152389
H14   H     H_    0.181532 0.977448 0.704983 0.156653
H15   H     H_    0.226763 0.069905 0.631811 0.184008
O18   O     O_3   0.816350 0.503440 0.744657 -0.542349
C66   C     C_3   0.726780 0.531781 0.723030 -0.345009
H16   H     H_    0.699746 0.572697 0.804642 0.152420
H17   H     H_    0.681519 0.477476 0.705008 0.156650
H18   H     H_    0.726769 0.569920 0.631820 0.183995
O19   O     O_3   0.438997 0.245116 0.740382 -0.587023
C67   C     C_3   0.459583 0.331223 0.716459 -0.308497
H19   H     H_    0.427659 0.373445 0.792777 0.179757
H20   H     H_    0.438917 0.350918 0.616598 0.161647
H21   H     H_    0.533475 0.341005 0.720527 0.186512
O20   O     O_3   0.437033 0.752664 0.731832 -0.629552
C68   C     C_3   0.455541 0.665529 0.713932 -0.381209
H22   H     H_    0.429755 0.642085 0.618944 0.195003
H23   H     H_    0.426591 0.627223 0.796749 0.157611
H24   H     H_    0.529804 0.655336 0.711109 0.201565
O21   O     O_3   0.939045 0.745166 0.740213 -0.587131
C69   C     C_3   0.959590 0.831325 0.716680 -0.308316
H25   H     H_    0.928332 0.873284 0.794012 0.180683
H26   H     H_    0.938098 0.851481 0.617348 0.161034
H27   H     H_    0.033605 0.840942 0.719474 0.186365
O22   O     O_3   0.937000 0.252656 0.731852 -0.629551
C70   C     C_3   0.955494 0.165518 0.713959 -0.381220
H28   H     H_    0.929719 0.142079 0.618961 0.194997
H29   H     H_    0.926525 0.127217 0.796768 0.157598
H30   H     H_    0.029756 0.155314 0.711160 0.201555
O23   O     O_3   0.344996 0.255820 0.978790 -0.554064
C71   C     C_3   0.338580 0.177151 0.043079 -0.078152
H31   H     H_    0.299462 0.127828 0.991492 0.064259
H32   H     H_    0.304798 0.186321 0.140889 0.209269
H33   H     H_    0.408079 0.153557 0.057816 0.201330
O24   O     O_3   0.325498 0.769546 0.986471 -0.626501
C72   C     C_3   0.418722 0.782409 0.993059 -0.213122
H34   H     H_    0.444318 0.831033 0.923985 0.205743
H35   H     H_    0.455273 0.721403 0.980327 0.203855
H36   H     H_    0.431927 0.807567 0.092038 0.222868
O25   O     O_3   0.845084 0.755864 0.978745 -0.554324
C73   C     C_3   0.838706 0.677175 0.042985 -0.078180
H37   H     H_    0.799581 0.627861 0.991390 0.064336
H38   H     H_    0.804945 0.686311 0.140820 0.209262
H39   H     H_    0.908217 0.653588 0.057664 0.201316
O26   O     O_3   0.825444 0.269523 0.986473 -0.626484
C74   C     C_3   0.918664 0.282404 0.993077 -0.213105
H40   H     H_    0.944256 0.331032 0.924007 0.205746
H41   H     H_    0.955226 0.221405 0.980347 0.203857
H42   H     H_    0.931855 0.307563 0.092060 0.222859
I5    I     I_    0.636004 0.789734 0.041508 -0.371115
I6    I     I_    0.617624 0.235369 0.024806 -0.255515
I7    I     I_    0.135936 0.289765 0.041481 -0.371057
I8    I     I_    0.117677 0.735377 0.024848 -0.255799
O27   O     O_3   0.740902 0.853481 0.279932 -0.539816
C75   C     C_3   0.784886 0.931368 0.293174 -0.247381
H43   H     H_    0.834074 0.935183 0.374300 0.118857
H44   H     H_    0.733291 0.981372 0.309875 0.204045
H45   H     H_    0.822763 0.943321 0.199169 0.206841
O28   O     O_3   0.732488 0.148304 0.270904 -0.571677
C76   C     C_3   0.806107 0.117434 0.194453 -0.271277
H46   H     H_    0.780790 0.077041 0.114660 0.166354
H47   H     H_    0.853303 0.080079 0.254101 0.142649
H48   H     H_    0.841899 0.168914 0.145633 0.262970
O29   O     O_3   0.240893 0.353467 0.279922 -0.539820
C77   C     C_3   0.284877 0.431357 0.293133 -0.247289
H49   H     H_    0.334086 0.435176 0.374230 0.118856
H50   H     H_    0.233285 0.481362 0.309856 0.204034
H51   H     H_    0.322729 0.443311 0.199107 0.206865
O30   O     O_3   0.232495 0.648287 0.270920 -0.571721
C78   C     C_3   0.306112 0.617438 0.194445 -0.271299
H52   H     H_    0.280794 0.577055 0.114640 0.166368
H53   H     H_    0.353316 0.580075 0.254070 0.142684
H54   H     H_    0.341892 0.668933 0.145639 0.263004
O31   O     O_3   0.313663 0.003143 0.269947 -0.551299
C79   C     C_3   0.225358 0.037598 0.290191 -0.322774
H55   H     H_    0.176617 0.986944 0.317491 0.177498
H56   H     H_    0.201867 0.073752 0.203641 0.164221
H57   H     H_    0.225704 0.082153 0.374425 0.183732
O32   O     O_3   0.813659 0.503145 0.269946 -0.551302
C80   C     C_3   0.725369 0.537642 0.290153 -0.322703
H58   H     H_    0.676592 0.487011 0.317420 0.177475
H59   H     H_    0.701919 0.573815 0.203597 0.164250
H60   H     H_    0.725719 0.582188 0.374398 0.183710

loop_
_geom_bond_atom_site_label_1
_geom_bond_atom_site_label_2
_ccdc_geom_bond_type
C58   C62   A    
C32   O14   A    
C69   H25   S    
C39   O21   S    
O29   C77   S    
C13   C32   S    
C66   H16   S    
C14   C31   S    
C70   H30   S    
C1    C62   S    
O25   C73   S    
C53   C59   A    
O12   Zn2   S    
O23   C71   S    
C78   H53   S    
C54   C60   A    
C3    C64   S    
O32   C80   S    
C4    C63   S    
C76   H46   S    
O1    Zn1   S    
C3    O7    A    
O5    Zn3   S    
O28   C76   S    
C19   C21   A    
C34   O16   A    
N2    Zn4   S    
C5    C11   A    
C72   H35   S    
C6    C12   A    
C30   H10   S    
C80   H59   S    
C29   H9    S    
C77   H49   S    
C9    O27   S    
C1    O1    A    
O19   C67   S    
C23   O17   S    
C67   H19   S    
C20   H12   S    
C18   C20   A    
C74   H42   S    
C35   N3    A    
C9    C13   A    
O30   C78   S    
C22   H2    S    
C68   H24   S    
O18   C66   S    
C11   C15   A    
C32   O10   A    
C12   C16   A    
C79   H56   S    
C31   O9    A    
O3    Zn2   S    
C69   H26   S    
C74   H40   S    
C2    O6    A    
C45   I5    S    
C45   C49   A    
C28   N2    A    
O13   Zn3   S    
C15   C34   S    
C13   C53   A    
C79   H57   S    
C38   O20   S    
C17   O31   S    
C6    I2    S    
C65   H15   S    
C76   H47   S    
C7    I3    S    
C51   H7    S    
C71   H33   S    
C33   O15   A    
C21   H1    S    
C44   C46   A    
C46   C50   A    
C78   H54   S    
C73   H38   S    
C56   C58   A    
C1    O5    A    
C5    I1    S    
C73   H37   S    
C42   O24   S    
C17   C27   A    
C75   H45   S    
C24   O18   S    
O24   C72   S    
C71   H32   S    
C36   N4    A    
C72   H36   S    
O15   Zn4   S    
C80   H60   S    
C39   C43   A    
C69   H27   S    
C70   H29   S    
C31   O13   A    
C48   I8    S    
C44   O26   S    
O9    Zn1   S    
C15   C55   A    
C42   C48   A    
C16   C56   A    
C43   O25   S    
C16   C33   S    
C73   H39   S    
C8    I4    S    
O27   C75   S    
C4    O4    A    
C18   O32   S    
C39   C59   A    
C52   H8    S    
C36   H4    S    
C41   C47   A    
C18   C28   A    
C66   H17   S    
C50   C54   A    
O6    Zn3   S    
C43   C45   A    
C7    C63   A    
C68   H22   S    
O8    Zn4   S    
C8    C64   A    
C37   O19   S    
C14   C54   A    
C20   C22   A    
C11   O29   S    
C76   H48   S    
C55   C57   A    
C10   C14   A    
O21   C69   S    
O2    Zn1   S    
C22   C24   A    
C2    O2    A    
C40   C44   A    
C70   H28   S    
C41   O23   S    
O20   C68   S    
C12   O30   S    
O7    Zn4   S    
C47   I7    S    
C7    C9    A    
C40   O22   S    
C10   O28   S    
O10   Zn1   S    
N4    Zn2   S    
C25   N3    A    
C59   C63   A    
N3    Zn1   S    
C24   C26   A    
C71   H31   S    
C27   N1    A    
C26   N4    A    
C47   C51   A    
C2    C61   S    
C57   C61   A    
C4    O8    A    
C25   C27   A    
C46   I6    S    
O17   C65   S    
C29   C35   A    
C26   C28   A    
C67   H21   S    
C30   C36   A    
C60   C64   A    
O4    Zn2   S    
C75   H43   S    
C6    C62   A    
C21   C23   A    
O22   C70   S    
C50   H6    S    
C78   H52   S    
C72   H34   S    
C3    O3    A    
C80   H58   S    
C65   H14   S    
O14   Zn3   S    
C49   C53   A    
O16   Zn4   S    
C19   H11   S    
C17   C19   A    
C67   H20   S    
N1    Zn3   S    
C66   H18   S    
C51   C55   A    
C74   H41   S    
O11   Zn2   S    
C37   C41   A    
C34   O12   A    
C68   H23   S    
C35   H3    S    
O31   C79   S    
C30   N2    A    
C38   C42   A    
C52   C56   A    
C48   C52   A    
C23   C25   A    
C29   N1    A    
C8    C10   A    
C65   H13   S    
C40   C60   A    
O26   C74   S    
C49   H5    S    
C77   H50   S    
C38   C58   A    
C77   H51   S    
C37   C57   A    
C79   H55   S    
C5    C61   A    
C75   H44   S    
C33   O11   A    
