data_mof_unit_35352.cif
_audit_creation_date              2012-12-11T16:20:24-0500
_audit_creation_method            fapswitch 2.2
_symmetry_space_group_name_H-M    P1
_symmetry_Int_Tables_number       1
_space_group_crystal_system       triclinic
_cell_length_a                    6.918659
_cell_length_b                    34.327158
_cell_length_c                    38.323151
_cell_angle_alpha                 99.536268
_cell_angle_beta                  89.402753
_cell_angle_gamma                 90.545552
_cell_volume                      8975.1232853

loop_
_atom_site_label
_atom_site_type_symbol
_atom_type_description
_atom_site_fract_x
_atom_site_fract_y
_atom_site_fract_z
_atom_type_partial_charge
O1    O     O_R   0.494320 0.461440 0.460990 -0.548112
O2    O     O_R   0.821450 0.462560 0.532500 -0.541826
O3    O     O_R   0.994330 0.538560 0.539010 -0.508033
C1    C     C_R   0.651286 0.453043 0.543159 0.692348
O4    O     O_R   0.823870 0.456770 0.460860 -0.546678
O5    O     O_R   0.996760 0.532730 0.466860 -0.502058
C2    C     C_R   0.655236 0.446077 0.447812 0.726199
O6    O     O_R   0.491880 0.467270 0.533140 -0.542276
O7    O     O_3   0.661650 0.524930 0.502050 -0.326987
V1    V     V_3+5 0.935500 0.495380 0.499620 1.544943
O8    O     O_R   0.326630 0.537440 0.467500 -0.525186
C3    C     C_R   0.158862 0.546501 0.456364 0.797041
O9    O     O_R   0.324210 0.543230 0.539140 -0.543593
C4    C     C_R   0.154896 0.554212 0.551927 0.770897
V2    V     V_3+5 0.435810 0.504620 0.500380 1.544509
O10   O     O_3   0.159790 0.475070 0.497950 -0.388636
C5    C     C_R   0.013866 0.833254 0.791682 0.668644
N1    N     N_R   0.045477 0.824065 0.824659 -0.527105
C6    C     C_R   0.088047 0.786115 0.828719 0.630561
C7    C     C_R   0.100854 0.755845 0.799039 -0.099071
C8    C     C_R   0.073621 0.765004 0.765048 -0.014249
C9    C     C_R   0.030309 0.804130 0.761269 -0.041820
C10   C     C_R   0.142012 0.716837 0.802686 -0.148512
C11   C     C_R   0.155775 0.686844 0.773205 0.312843
C12   C     C_R   0.129311 0.695581 0.738529 -0.128007
C13   C     C_R   0.089868 0.735109 0.734789 -0.051971
C14   C     C_R   0.066492 0.745013 0.700807 -0.014677
C15   C     C_R   0.024166 0.784180 0.697406 -0.126469
C16   C     C_R   0.005065 0.813299 0.727254 -0.129199
C17   C     C_R   0.139885 0.666728 0.707382 0.654556
N2    N     N_R   0.122159 0.677269 0.674530 -0.568053
C18   C     C_R   0.086321 0.715545 0.670879 0.578899
O11   O     O_2   0.965977 0.870450 0.788296 -0.498733
O12   O     O_2   0.119960 0.777709 0.861330 -0.497989
H1    H     H_    0.163942 0.709350 0.828723 0.206477
O13   O     O_2   0.165940 0.628391 0.709558 -0.445269
O14   O     O_2   0.070515 0.725122 0.638271 -0.508927
H2    H     H_    0.004894 0.792489 0.671614 0.177643
H3    H     H_    0.971899 0.843102 0.723534 0.177569
C19   C     C_R   0.971148 0.638331 0.622066 -0.177924
H4    H     H_    0.839902 0.654774 0.629293 0.171306
C20   C     C_R   0.974608 0.608647 0.591864 0.349083
C21   C     C_R   0.145137 0.586639 0.583069 -0.159499
C22   C     C_R   0.309615 0.595868 0.604236 -0.258319
H5    H     H_    0.441644 0.579384 0.597934 0.182754
C23   C     C_R   0.308155 0.626195 0.633616 0.421292
C24   C     C_R   0.135114 0.647271 0.643193 0.232009
C25   C     C_R   0.894060 0.852888 0.881466 -0.146399
H6    H     H_    0.793846 0.828135 0.878405 0.191658
C26   C     C_R   0.884768 0.881284 0.912123 0.318559
C27   C     C_R   0.010831 0.914695 0.915957 -0.280383
C28   C     C_R   0.150253 0.917535 0.888769 0.206882
C29   C     C_R   0.168016 0.886495 0.859526 0.416420
C30   C     C_R   0.035464 0.854819 0.855433 0.194990
C31   C     C_R   0.937659 0.860567 0.179320 0.642724
O15   O     O_2   0.837472 0.894587 0.185018 -0.464129
N3    N     N_R   0.034852 0.850319 0.147920 -0.579634
C32   C     C_R   0.136532 0.815905 0.140696 0.672933
C33   C     C_R   0.852757 0.878250 0.103018 -0.160637
C34   C     C_R   0.839750 0.903037 0.077185 0.333159
C35   C     C_R   0.174581 0.922957 0.088734 -0.255661
C36   C     C_R   0.185657 0.898010 0.114021 -0.086855
C37   C     C_R   0.024628 0.875708 0.121471 0.330104
C38   C     C_R   0.051567 0.800799 0.198878 -0.181081
C39   C     C_R   0.942651 0.836016 0.205582 -0.040870
C40   C     C_R   0.841054 0.845555 0.238054 0.420167
C41   C     C_R   0.144245 0.789861 0.165713 -0.100040
C42   C     C_R   0.002365 0.926071 0.070074 -0.085227
H7    H     H_    0.301199 0.940214 0.084058 0.174593
H8    H     H_    0.319428 0.896279 0.128092 0.145731
C43   C     C_R   0.151391 0.573967 0.429893 -0.159013
C44   C     C_R   0.952118 0.757221 0.280866 0.105498
C45   C     C_R   0.223484 0.722242 0.248040 0.014886
C46   C     C_R   0.093212 0.727127 0.277212 0.032867
C47   C     C_R   0.812794 0.758513 0.308302 -0.153064
C48   C     C_R   0.818040 0.732032 0.332200 -0.128734
C49   C     C_R   0.965492 0.704067 0.330281 -0.024646
C50   C     C_R   0.105117 0.701979 0.303062 -0.051330
C51   C     C_R   0.257345 0.674933 0.301838 -0.098049
C52   C     C_R   0.265494 0.649939 0.327501 0.626031
N4    N     N_R   0.125369 0.651602 0.353295 -0.542566
C53   C     C_R   0.977132 0.678133 0.355078 0.615170
C54   C     C_R   0.286255 0.628432 0.403186 -0.107305
C55   C     C_R   0.295876 0.603416 0.428503 0.174975
C56   C     C_R   0.997452 0.570841 0.405349 0.324722
C57   C     C_R   0.990668 0.596645 0.380310 -0.156318
C58   C     C_R   0.134512 0.625304 0.379043 0.273678
O16   O     O_2   0.842548 0.679780 0.381011 -0.506824
C59   C     C_R   0.953595 0.784505 0.256639 0.057812
C60   C     C_R   0.064428 0.776068 0.225042 0.016240
C61   C     C_R   0.184850 0.742431 0.219187 0.012749
C62   C     C_R   0.846263 0.819662 0.262838 -0.262177
H9    H     H_    0.396491 0.650933 0.402551 0.188971
H10   H     H_    0.706645 0.733877 0.352471 0.168421
H11   H     H_    0.693080 0.778744 0.311008 0.127078
H12   H     H_    0.770167 0.828360 0.287569 0.114524
O17   O     O_2   0.229713 0.807048 0.109324 -0.464426
C63   C     C_R   0.228699 0.752058 0.157437 0.314292
H13   H     H_    0.729221 0.860653 0.108752 0.135768
C64   C     C_R   0.389615 0.698521 0.249891 0.323179
C65   C     C_R   0.402054 0.674589 0.275959 -0.148995
O18   O     O_2   0.411129 0.623883 0.326391 -0.514533
C66   C     C_R   0.248075 0.728219 0.184167 0.330329
H14   H     H_    0.529254 0.656537 0.276498 0.199968
H15   H     H_    0.873857 0.594273 0.361448 0.155976
C67   C     C_R   0.468753 0.320351 0.644133 0.664942
O19   O     O_2   0.359090 0.314314 0.614881 -0.468635
N5    N     N_R   0.592481 0.352029 0.649043 -0.566099
C68   C     C_R   0.704740 0.360328 0.678508 0.658784
C69   C     C_R   0.458848 0.402855 0.617642 -0.049624
C70   C     C_R   0.473877 0.426854 0.591591 -0.192203
C71   C     C_R   0.784983 0.397497 0.572847 0.324979
C72   C     C_R   0.770474 0.374631 0.599898 -0.060307
C73   C     C_R   0.607691 0.376875 0.622162 0.273515
C74   C     C_R   0.572890 0.302401 0.699931 -0.116298
C75   C     C_R   0.457375 0.294246 0.669141 -0.089919
C76   C     C_R   0.339326 0.259795 0.664274 0.295686
C77   C     C_R   0.695511 0.336259 0.705145 -0.088235
C78   C     C_R   0.637240 0.425132 0.569092 -0.162620
H16   H     H_    0.884117 0.353977 0.602923 0.174775
C79   C     C_R   0.514231 0.073770 0.930549 -0.104806
C80   C     C_R   0.411858 0.221804 0.749891 0.045529
C81   C     C_R   0.706398 0.254011 0.777360 -0.015876
C82   C     C_R   0.555991 0.225351 0.776489 -0.004731
C83   C     C_R   0.249147 0.196641 0.752960 0.337684
C84   C     C_R   0.245851 0.172327 0.779113 -0.203318
C85   C     C_R   0.395195 0.173459 0.803516 -0.054174
C86   C     C_R   0.549082 0.200331 0.802598 -0.059876
C87   C     C_R   0.695550 0.202294 0.828051 -0.124054
C88   C     C_R   0.685361 0.177453 0.853838 0.669439
N6    N     N_R   0.535219 0.151270 0.854169 -0.551678
C89   C     C_R   0.391418 0.148833 0.829568 0.651004
C90   C     C_R   0.660766 0.094388 0.878465 -0.109555
C91   C     C_R   0.654724 0.068921 0.903482 -0.169289
C92   C     C_R   0.384408 0.105323 0.932874 -0.226030
C93   C     C_R   0.394208 0.131621 0.908581 0.338618
C94   C     C_R   0.529586 0.125675 0.880552 0.295588
O20   O     O_2   0.245480 0.122591 0.830221 -0.511893
C95   C     C_R   0.433715 0.244512 0.721958 -0.002087
C96   C     C_R   0.566370 0.276556 0.725571 0.084718
C97   C     C_R   0.693167 0.282861 0.754685 0.011182
C98   C     C_R   0.332026 0.235499 0.690011 -0.148252
H17   H     H_    0.756863 0.044891 0.901217 0.138579
H18   H     H_    0.767230 0.089726 0.857305 0.160542
H19   H     H_    0.122234 0.153106 0.780869 0.159390
H20   H     H_    0.252402 0.208171 0.683440 0.211435
O21   O     O_2   0.825088 0.391749 0.681580 -0.470189
C99   C     C_R   0.801646 0.344838 0.736998 0.318730
H21   H     H_    0.358045 0.447306 0.589430 0.161101
H22   H     H_    0.332015 0.404763 0.634622 0.164016
C100  C     C_R   0.863127 0.252633 0.801186 0.347419
C101  C     C_R   0.851691 0.228155 0.826760 -0.097211
O22   O     O_2   0.823718 0.179694 0.878581 -0.470713
C102  C     C_R   0.796120 0.318763 0.761218 -0.204759
H23   H     H_    0.278290 0.110107 0.954106 0.160058
H24   H     H_    0.971330 0.228379 0.844835 0.207708
H25   H     H_    0.870517 0.327655 0.785940 0.206705
C103  C     C_R   0.578869 0.165901 0.207171 0.683466
N7    N     N_R   0.547631 0.176397 0.174665 -0.550796
C104  C     C_R   0.532521 0.215361 0.171066 0.611534
C105  C     C_R   0.546970 0.245484 0.200842 -0.035036
C106  C     C_R   0.576525 0.235104 0.234428 -0.012180
C107  C     C_R   0.592607 0.195002 0.237716 -0.045308
C108  C     C_R   0.532031 0.285631 0.197874 -0.121817
C109  C     C_R   0.546140 0.315001 0.227791 -0.122733
C110  C     C_R   0.574924 0.304996 0.261487 -0.035683
C111  C     C_R   0.589975 0.264893 0.264794 -0.011406
C112  C     C_R   0.618031 0.254507 0.298409 -0.050972
C113  C     C_R   0.633652 0.214357 0.301360 -0.120006
C114  C     C_R   0.621629 0.184999 0.271397 -0.106428
C115  C     C_R   0.589383 0.334122 0.292012 0.595509
N8    N     N_R   0.615988 0.323643 0.324693 -0.545229
C116  C     C_R   0.629076 0.284592 0.328279 0.654734
O23   O     O_2   0.596743 0.127439 0.209950 -0.477986
O24   O     O_2   0.502653 0.224956 0.138822 -0.503605
H26   H     H_    0.509398 0.294520 0.172408 0.181035
H27   H     H_    0.533983 0.345583 0.224411 0.180239
O25   O     O_2   0.578226 0.372625 0.288962 -0.508462
O26   O     O_2   0.650998 0.274809 0.360671 -0.495348
H28   H     H_    0.655496 0.205457 0.326845 0.180706
H29   H     H_    0.634510 0.154423 0.274753 0.182909
C117  C     C_R   0.800253 0.360592 0.375220 0.423243
C118  C     C_R   0.808250 0.390711 0.405237 -0.284378
H30   H     H_    0.941440 0.395710 0.419979 0.127389
C119  C     C_R   0.645759 0.414130 0.416292 -0.077324
C120  C     C_R   0.474632 0.407060 0.396661 -0.196179
H31   H     H_    0.347015 0.424600 0.404223 0.141737
C121  C     C_R   0.466583 0.377660 0.366654 -0.170461
H32   H     H_    0.333960 0.373129 0.351749 0.163843
C122  C     C_R   0.627955 0.354116 0.355726 0.354330
C123  C     C_R   0.688645 0.138777 0.120073 -0.086895
H33   H     H_    0.819400 0.156332 0.124716 0.173015
C124  C     C_R   0.678301 0.108794 0.090518 -0.179756
H34   H     H_    0.802575 0.103704 0.072985 0.146013
C125  C     C_R   0.508724 0.086034 0.083419 -0.101714
C126  C     C_R   0.350080 0.093908 0.106758 -0.213811
H35   H     H_    0.218032 0.076729 0.101988 0.156073
C127  C     C_R   0.361867 0.123315 0.136902 0.309674
C128  C     C_R   0.532119 0.146024 0.143744 0.323015
O27   O     O_R   0.662230 0.032770 0.966890 -0.541366
O28   O     O_R   0.330090 0.043230 0.039150 -0.546593
O29   O     O_R   0.157350 0.967260 0.033130 -0.545111
C129  C     C_R   0.498741 0.053962 0.052130 0.715660
O30   O     O_R   0.332650 0.037450 0.967510 -0.545374
O31   O     O_R   0.159930 0.961430 0.960980 -0.522299
C130  C     C_R   0.502520 0.046133 0.956312 0.730123
O32   O     O_R   0.659640 0.038600 0.039040 -0.542196
O33   O     O_3   0.492510 0.975090 0.997960 -0.345379
V3    V     V_3+5 0.218600 0.004620 0.000380 1.465045
O34   O     O_R   0.830050 0.956730 0.960830 -0.530658
C131  C     C_R   0.999263 0.946190 0.947808 0.716494
O35   O     O_R   0.827490 0.962520 0.032470 -0.509258
C132  C     C_R   0.995178 0.953557 0.043679 0.739428
V4    V     V_3+5 0.718310 0.995320 0.999580 1.517850
O36   O     O_3   0.994270 0.024900 0.002040 -0.380804
O37   O     O_3   0.752746 0.874658 0.937783 -0.602388
H36   H     H_    0.802315 0.886759 0.961251 0.309978
O38   O     O_3   0.268111 0.950384 0.889510 -0.635505
H37   H     H_    0.196231 0.974043 0.900767 0.294580
O39   O     O_3   0.310492 0.886504 0.833936 -0.610393
H38   H     H_    0.400729 0.908918 0.840893 0.345865
O40   O     O_3   0.735644 0.880046 0.245183 -0.591710
H39   H     H_    0.672202 0.882021 0.268723 0.300977
Br1   Br    Br    0.505830 0.613182 0.461394 -0.450769
Br2   Br    Br    0.216412 0.635457 0.783790 -0.312738
O41   O     O_3   0.671186 0.904597 0.058474 -0.633033
H40   H     H_    0.574349 0.886267 0.066247 0.300168
O42   O     O_3   0.281602 0.738083 0.122820 -0.586667
H41   H     H_    0.240784 0.710044 0.116966 0.320674
Br3   Br    Br    0.625931 0.704142 0.224051 -0.530268
O43   O     O_3   0.857265 0.541941 0.405713 -0.623956
H42   H     H_    0.760179 0.544071 0.387278 0.305430
O44   O     O_3   0.307463 0.689450 0.175832 -0.602163
H43   H     H_    0.401622 0.687165 0.155974 0.337559
O45   O     O_3   0.942605 0.391112 0.550399 -0.623645
H44   H     H_    0.901711 0.394758 0.526484 0.294933
Br4   Br    Br    0.183281 0.241909 0.623247 -0.391838
O46   O     O_3   0.086430 0.198729 0.732721 -0.656891
H45   H     H_    0.985112 0.180402 0.739015 0.294247
Br5   Br    Br    0.956990 0.391597 0.751077 -0.346432
O47   O     O_3   0.037168 0.271910 0.798682 -0.630672
H46   H     H_    0.063532 0.272594 0.773333 0.314273
Br6   Br    Br    0.228847 0.176648 0.915627 -0.397489
O48   O     O_3   0.958683 0.337473 0.364232 -0.625754
H47   H     H_    0.064216 0.344469 0.381499 0.290599
Br7   Br    Br    0.143494 0.131817 0.168317 -0.507443
O49   O     O_3   0.814358 0.601287 0.570497 -0.616875
H48   H     H_    0.711577 0.620374 0.579517 0.307905
O50   O     O_3   0.478471 0.634200 0.651969 -0.626512
H49   H     H_    0.467006 0.659576 0.668366 0.303187

loop_
_geom_bond_atom_site_label_1
_geom_bond_atom_site_label_2
_ccdc_geom_bond_type
C19   C24   A    
C54   C58   A    
C8    C13   A    
C47   C48   A    
C90   C94   A    
C109  C110  A    
C9    C16   A    
C45   C64   A    
C33   H13   S    
C45   C46   A    
C98   H20   S    
C6    C7    A    
C56   O43   S    
C38   C60   A    
C40   O40   S    
C86   C87   A    
N4    C53   A    
C119  C120  A    
C47   H11   S    
C92   C93   A    
C64   Br3   S    
C49   C50   A    
O48   H47   S    
C25   C30   A    
O35   C132  A    
O50   H49   S    
V3    O36   S    
C99   C102  A    
C77   C99   A    
C70   C78   A    
C15   C16   A    
C123  C128  A    
C80   C95   A    
N1    C6    A    
C118  C119  A    
O5    C3    A    
C17   N2    A    
C95   C98   A    
C97   C102  A    
C126  H35   S    
C125  C129  S    
C67   O19   S    
O31   C131  A    
C63   C66   A    
C89   O20   S    
C74   C75   A    
C54   H9    S    
O8    C3    A    
C62   H12   S    
C92   H23   S    
N5    C68   A    
C36   H8    S    
C121  C122  A    
O47   H46   S    
C113  C114  A    
N5    C73   S    
C107  C114  A    
C85   C89   A    
O39   H38   S    
C72   C73   A    
C41   C63   A    
C48   H10   S    
C91   H17   S    
C43   C56   A    
O8    V2    S    
C103  O23   S    
C26   O37   S    
N7    C104  A    
O33   V3    S    
C124  C125  A    
O30   V3    S    
O33   V4    S    
O45   H44   S    
C115  O25   S    
C108  H26   S    
C127  C128  A    
O1    V2    S    
O31   V3    S    
C79   C91   A    
O7    V1    S    
C69   C73   A    
C113  H28   S    
C34   O41   S    
C35   C36   A    
C124  H34   S    
C1    O6    A    
C82   C86   A    
C74   C77   A    
C29   O39   S    
C19   C20   A    
C120  H31   S    
C76   Br4   S    
C33   C34   A    
C66   O44   S    
N2    C24   S    
O9    C4    A    
C127  Br7   S    
O28   C129  A    
C81   C97   A    
C110  C111  A    
C68   O21   S    
C32   O17   S    
C5    O11   S    
C79   C130  S    
C44   C47   A    
C70   H21   S    
O28   V3    S    
O42   H41   S    
C31   C39   A    
C84   H19   S    
C22   C23   A    
C68   C77   A    
N3    C37   S    
C63   O42   S    
C48   C49   A    
C112  C116  A    
C81   C100  A    
C20   O49   S    
C27   C28   A    
C38   C41   A    
C101  H24   S    
C81   C82   A    
C11   C12   A    
C45   C61   A    
C87   C101  A    
C44   C46   A    
C55   Br1   S    
C61   C66   A    
C111  C112  A    
O4    C2    A    
V4    O36   S    
C52   N4    A    
C40   C62   A    
O6    V2    S    
N8    C122  S    
C12   C13   A    
O34   V4    S    
C129  O32   A    
O32   V4    S    
C79   C92   A    
C123  H33   S    
C67   C75   A    
C121  H32   S    
C103  N7    A    
C43   C55   A    
O46   H45   S    
O2    C1    A    
C21   C22   A    
C123  C124  A    
C23   O50   S    
C36   C37   A    
N6    C94   S    
C108  C109  A    
C100  O47   S    
C72   H16   S    
O27   V4    S    
C54   C55   A    
C7    C10   A    
C15   H2    S    
C109  H27   S    
C100  C101  A    
O37   H36   S    
O38   H37   S    
C16   H3    S    
C31   O15   S    
C26   C27   A    
C13   C14   A    
N3    C32   A    
C118  H30   S    
C69   C70   A    
C18   O14   S    
C96   C97   A    
C59   C62   A    
C25   C26   A    
C115  N8    A    
C56   C57   A    
N4    C58   S    
O3    C4    A    
C103  C107  A    
C102  H25   S    
C42   C132  S    
C126  C127  A    
C25   H6    S    
C3    C43   S    
O35   V4    S    
O41   H40   S    
C65   H14   S    
C10   H1    S    
O9    V2    S    
C114  H29   S    
C117  C118  A    
C83   C84   A    
C104  O24   S    
C51   C52   A    
C57   H15   S    
C20   C21   A    
O29   V3    S    
C120  C121  A    
C11   Br2   S    
O2    V1    S    
O43   H42   S    
C105  C108  A    
N8    C116  A    
C57   C58   A    
C87   C88   A    
O44   H43   S    
C35   H7    S    
C12   C17   A    
C106  C111  A    
C23   C24   A    
C112  C113  A    
C90   H18   S    
O27   C130  A    
C93   Br6   S    
C14   C18   A    
C99   Br5   S    
C33   C37   A    
C2    C119  S    
N2    C18   A    
C22   H5    S    
O30   C130  A    
C93   C94   A    
C69   H22   S    
C6    O12   S    
C117  O48   S    
O5    V1    S    
C71   C78   A    
C95   C96   A    
C29   C30   A    
C85   C86   A    
C106  C107  A    
C71   O45   S    
C28   O38   S    
C5    C9    A    
C5    N1    A    
C17   O13   S    
C104  C105  A    
C1    C78   S    
C31   N3    A    
C88   N6    A    
O7    V2    S    
O4    V1    S    
O3    V1    S    
C105  C106  A    
C38   C39   A    
C44   C59   A    
C50   C51   A    
C35   C42   A    
C60   C61   A    
C90   C91   A    
V1    O10   S    
C67   N5    A    
C49   C53   A    
C80   C83   A    
C84   C85   A    
C53   O16   S    
N7    C128  S    
C64   C65   A    
C75   C76   A    
C76   C98   A    
C88   O22   S    
C71   C72   A    
C39   C40   A    
O29   C132  A    
N6    C89   A    
N1    C30   S    
C10   C11   A    
C125  C126  A    
C27   C131  S    
C32   C41   A    
C110  C115  A    
C7    C8    A    
C34   C42   A    
O34   C131  A    
C46   C50   A    
C52   O18   S    
C14   C15   A    
C116  O26   S    
C51   C65   A    
O1    C2    A    
C19   H4    S    
C117  C122  A    
C59   C60   A    
C8    C9    A    
C74   C96   A    
C80   C82   A    
O40   H39   S    
C83   O46   S    
V2    O10   S    
O49   H48   S    
C28   C29   A    
C4    C21   S    
