data_mof_unit_59631.cif
_audit_creation_date              2012-12-10T17:24:16-0500
_audit_creation_method            fapswitch 2.2
_symmetry_space_group_name_H-M    P1
_symmetry_Int_Tables_number       1
_space_group_crystal_system       triclinic
_cell_length_a                    19.342875
_cell_length_b                    10.937729
_cell_length_c                    9.675526
_cell_angle_alpha                 87.998095
_cell_angle_beta                  89.359941
_cell_angle_gamma                 93.884956
_cell_volume                      2040.88473773

loop_
_atom_site_label
_atom_site_type_symbol
_atom_type_description
_atom_site_fract_x
_atom_site_fract_y
_atom_site_fract_z
_atom_type_partial_charge
C1    C     C_R   0.499165 0.262153 0.503149 0.788164
C2    C     C_R   0.853285 0.477918 0.497462 -0.113949
C3    C     C_R   0.440066 0.096966 0.742187 -0.216324
C4    C     C_R   0.367669 0.494713 0.501240 0.863882
C5    C     C_R   0.397633 0.022502 0.831891 -0.323615
C6    C     C_R   0.373992 0.906000 0.793628 0.409179
C7    C     C_R   0.398741 0.860156 0.670974 0.456920
C8    C     C_R   0.453246 0.925612 0.595846 -0.141640
C9    C     C_R   0.465342 0.052048 0.617223 0.024912
C10   C     C_R   0.497669 0.127153 0.508663 -0.121571
C11   C     C_R   0.519883 0.072750 0.388714 -0.332353
C12   C     C_R   0.291531 0.485081 0.505103 -0.094008
C13   C     C_R   0.515315 0.945331 0.374948 0.449101
C14   C     C_R   0.487890 0.870982 0.487734 -0.171248
C15   C     C_R   0.612370 0.635432 0.128495 0.531313
C16   C     C_R   0.496547 0.737286 0.496564 0.874832
C17   C     C_R   0.670884 0.670151 0.043952 -0.304530
C18   C     C_R   0.664107 0.686500 0.903915 0.364717
C19   C     C_R   0.602415 0.641968 0.844708 -0.275831
C20   C     C_R   0.551580 0.568295 0.920508 0.017995
C21   C     C_R   0.553632 0.566984 0.069486 0.095364
C22   C     C_R   0.450486 0.436291 0.078109 -0.190530
C23   C     C_R   0.929440 0.484936 0.491822 0.424802
C24   C     C_R   0.449364 0.436831 0.929750 0.527705
C25   C     C_R   0.632090 0.493552 0.499559 0.824676
C26   C     C_R   0.255725 0.537175 0.612375 -0.267060
C27   C     C_R   0.183533 0.537661 0.612136 0.495476
C28   C     C_R   0.145903 0.483401 0.502834 -0.041521
C29   C     C_R   0.181970 0.424297 0.400209 -0.235572
C30   C     C_R   0.254126 0.425173 0.401429 -0.228579
C31   C     C_3   0.343856 0.779577 0.977475 0.067770
C32   C     C_3   0.282527 0.739286 0.072062 -0.346767
C33   C     C_3   0.305267 0.666909 0.198196 -0.905833
C34   C     C_R   0.069645 0.486408 0.495704 0.413424
C35   C     C_3   0.310979 0.820001 0.524968 -0.311604
C36   C     C_3   0.577438 0.955041 0.161805 0.095055
C37   C     C_3   0.546739 0.039993 0.051812 -0.378804
C38   C     C_3   0.576598 0.020945 0.907523 -0.901867
C39   C     C_3   0.666158 0.746733 0.311442 -0.314886
C40   C     C_3   0.700187 0.818892 0.717212 0.047528
C41   C     C_3   0.755463 0.923764 0.689887 -0.288573
C42   C     C_3   0.734735 0.010572 0.572694 -0.964953
C43   C     C_3   0.143726 0.526164 0.833935 -0.312364
C44   C     C_3   0.331426 0.381389 0.906920 0.029011
C45   C     C_R   0.816979 0.492627 0.622608 0.471716
C46   C     C_3   0.299133 0.265052 0.981258 -0.368220
C47   C     C_3   0.226184 0.282882 0.034982 -0.929496
C48   C     C_3   0.871935 0.402701 0.802644 0.052998
C49   C     C_3   0.917452 0.429978 0.927605 -0.298439
C50   C     C_3   0.946277 0.313878 0.989118 -0.933291
C51   C     C_3   0.699572 0.316854 0.221280 0.082857
C52   C     C_3   0.758541 0.280914 0.127081 -0.370764
C53   C     C_3   0.737577 0.169400 0.043402 -0.948348
C54   C     C_R   0.744952 0.495790 0.621605 -0.308099
C55   C     C_R   0.707814 0.480606 0.498752 -0.232694
C56   C     C_R   0.743909 0.454460 0.376460 0.440784
C57   C     C_R   0.816300 0.457312 0.376220 -0.310520
Cu1   Cu    Cu3+1 0.500000 0.499990 0.640660 0.972024
Cu2   Cu    Cu3+1 0.500000 0.500010 0.359340 0.993029
H1    H     H_    0.283778 0.582727 0.694289 0.211198
H2    H     H_    0.843946 0.448274 0.279607 0.175348
H3    H     H_    0.539733 0.131798 0.304155 0.158539
H4    H     H_    0.381959 0.836673 0.037980 0.145468
H5    H     H_    0.368779 0.697276 0.941384 0.147726
H6    H     H_    0.257381 0.821652 0.106591 0.228925
H7    H     H_    0.243936 0.681688 0.014578 0.231891
H8    H     H_    0.325916 0.579742 0.167211 0.262188
H9    H     H_    0.259581 0.646063 0.267069 0.261404
H10   H     H_    0.345847 0.720814 0.254774 0.275721
H11   H     H_    0.274869 0.872433 0.586456 0.203451
H12   H     H_    0.453942 0.186537 0.777275 0.245388
H13   H     H_    0.279085 0.747452 0.474578 0.191155
H14   H     H_    0.336166 0.880029 0.440951 0.152943
H15   H     H_    0.603569 0.884190 0.106523 0.198559
H16   H     H_    0.618831 0.004696 0.221222 0.083170
H17   H     H_    0.559064 0.137219 0.077070 0.186408
H18   H     H_    0.489529 0.023752 0.050377 0.239567
H19   H     H_    0.633125 0.009905 0.911504 0.250664
H20   H     H_    0.568929 0.101837 0.838626 0.263242
H21   H     H_    0.550711 0.937613 0.863371 0.259352
H22   H     H_    0.707368 0.682253 0.324412 0.180200
H23   H     H_    0.379906 0.057685 0.928028 0.163936
H24   H     H_    0.652268 0.778998 0.414348 0.151242
H25   H     H_    0.686634 0.828811 0.249905 0.120307
H26   H     H_    0.649990 0.860144 0.735858 0.128429
H27   H     H_    0.696339 0.761551 0.625118 0.136587
H28   H     H_    0.762811 0.976528 0.785376 0.218336
H29   H     H_    0.805452 0.885595 0.662585 0.237993
H30   H     H_    0.729636 0.961302 0.474583 0.251140
H31   H     H_    0.775173 0.087100 0.557930 0.261253
H32   H     H_    0.684752 0.049713 0.597826 0.258752
H33   H     H_    0.114607 0.437103 0.814796 0.157364
H34   H     H_    0.411244 0.382659 0.138078 0.147121
H35   H     H_    0.113650 0.573896 0.911317 0.201512
H36   H     H_    0.195073 0.510915 0.879202 0.145108
H37   H     H_    0.300241 0.396570 0.813814 0.178531
H38   H     H_    0.326788 0.463335 0.970607 0.110276
H39   H     H_    0.295473 0.189829 0.907168 0.240260
H40   H     H_    0.331788 0.237315 0.068910 0.204319
H41   H     H_    0.225625 0.366954 0.095816 0.249909
H42   H     H_    0.207690 0.202703 0.102231 0.265627
H43   H     H_    0.190168 0.290253 0.947071 0.255537
H44   H     H_    0.902454 0.352508 0.727493 0.141046
H45   H     H_    0.719539 0.705277 0.085789 0.180017
H46   H     H_    0.825572 0.342802 0.835986 0.138164
H47   H     H_    0.961543 0.495651 0.895276 0.245372
H48   H     H_    0.886713 0.473202 0.007961 0.218037
H49   H     H_    0.903528 0.245422 0.020432 0.262055
H50   H     H_    0.977273 0.336830 0.081762 0.276282
H51   H     H_    0.980344 0.273305 0.912382 0.259342
H52   H     H_    0.649792 0.305814 0.165344 0.169631
H53   H     H_    0.693921 0.253709 0.314627 0.108153
H54   H     H_    0.773695 0.359060 0.054384 0.243356
H55   H     H_    0.803988 0.260027 0.190619 0.213331
H56   H     H_    0.596337 0.665217 0.739117 0.207262
H57   H     H_    0.721774 0.089586 0.113203 0.255594
H58   H     H_    0.782112 0.145428 0.978768 0.252368
H59   H     H_    0.694436 0.190842 0.973970 0.269761
H60   H     H_    0.154555 0.379720 0.316826 0.177339
H61   H     H_    0.280918 0.381164 0.319991 0.162717
H62   H     H_    0.718392 0.512122 0.717498 0.215504
N1    N     N_R   0.032483 0.414076 0.408021 -0.259546
N2    N     N_R   0.963644 0.413356 0.406063 -0.257550
N3    N     N_R   0.966562 0.559414 0.576683 -0.182260
N4    N     N_R   0.035213 0.560157 0.578348 -0.170124
N5    N     N_R   0.500660 0.501210 0.147910 -0.198591
N6    N     N_R   0.500680 0.501290 0.852040 -0.204361
O1    O     O_R   0.499990 0.319640 0.618810 -0.577549
O2    O     O_3   0.360509 0.766054 0.610137 -0.590271
O3    O     O_3   0.525702 0.892033 0.247835 -0.571815
O4    O     O_3   0.605303 0.689946 0.254649 -0.508336
O5    O     O_3   0.720170 0.745326 0.830921 -0.579314
O6    O     O_3   0.150905 0.600956 0.712435 -0.551760
O7    O     O_3   0.399940 0.364190 0.861566 -0.608767
O8    O     O_3   0.851370 0.514724 0.744726 -0.574831
O9    O     O_3   0.709522 0.442088 0.252756 -0.609235
O10   O     O_R   0.500000 0.319660 0.381240 -0.598323
O11   O     O_R   0.400140 0.499970 0.618820 -0.531079
O12   O     O_R   0.400150 0.500000 0.381250 -0.601535
O13   O     O_R   0.500000 0.680340 0.618760 -0.615238
O14   O     O_R   0.500010 0.680360 0.381190 -0.474128
O15   O     O_R   0.599850 0.500000 0.618750 -0.613253
O16   O     O_R   0.599860 0.500030 0.381180 -0.496314
O17   O     O_3   0.318698 0.845599 0.863393 -0.588580

loop_
_geom_bond_atom_site_label_1
_geom_bond_atom_site_label_2
_ccdc_geom_bond_type
C55   C56   A    
Cu1   O1    S    
C51   H53   S    
C47   H42   S    
C41   C42   S    
C48   O8    S    
C18   O5    S    
C25   O15   A    
C1    O1    A    
C46   H40   S    
C11   H3    S    
C2    C57   A    
C7    C8    A    
C49   H48   S    
C25   O16   A    
C52   H54   S    
Cu2   N5    S    
C29   H60   S    
C26   C27   A    
C29   C30   A    
C39   O4    S    
C3    C9    A    
C28   C29   A    
C17   H45   S    
C39   H25   S    
C42   H32   S    
C5    C6    A    
C53   H58   S    
C22   N5    A    
C38   H20   S    
Cu2   O10   S    
Cu1   O13   S    
C50   H51   S    
C43   H35   S    
C56   C57   A    
C18   C19   A    
C51   O9    S    
C40   H27   S    
C31   O17   S    
C43   O6    S    
C46   C47   S    
C35   H14   S    
C48   H46   S    
C35   H11   S    
C8    C9    A    
C24   N6    A    
C43   H36   S    
C13   O3    S    
Cu2   O12   S    
C4    C12   S    
C9    C10   A    
C35   O2    S    
C53   H57   S    
C33   H10   S    
Cu1   O11   S    
C40   O5    S    
Cu2   O16   S    
Cu1   N6    S    
C34   N1    A    
C47   H43   S    
C13   C14   A    
C50   H49   S    
C30   H61   S    
C16   O13   A    
C8    C14   A    
C56   O9    S    
C44   C46   S    
C2    C45   A    
C44   O7    S    
C41   H28   S    
C45   O8    S    
C51   C52   S    
C27   O6    S    
C31   H4    S    
C39   H22   S    
C20   N6    A    
C53   H59   S    
C23   N2    A    
C38   H19   S    
C4    O11   A    
Cu1   Cu2   S    
C48   H44   S    
C37   H18   S    
C50   H50   S    
C47   H41   S    
C12   C26   A    
C42   H31   S    
C40   H26   S    
C3    H12   S    
C37   C38   S    
C44   H37   S    
C36   H16   S    
C36   O3    S    
C44   H38   S    
Cu1   O15   S    
C31   C32   S    
C19   H56   S    
C17   C18   A    
C49   H47   S    
C36   H15   S    
C48   C49   S    
C37   H17   S    
C45   C54   A    
C22   H34   S    
C14   C16   S    
C6    O17   S    
C27   C28   A    
C1    O10   A    
C52   C53   S    
C33   H8    S    
C32   H7    S    
C24   O7    S    
C15   C17   A    
C41   H29   S    
C54   C55   A    
C36   C37   S    
C51   H52   S    
C12   C30   A    
C31   H5    S    
C54   H62   S    
C1    C10   S    
C25   C55   S    
C3    C5    A    
C35   H13   S    
C57   H2    S    
C6    C7    A    
C52   H55   S    
C43   H33   S    
C42   H30   S    
C32   C33   S    
C19   C20   A    
C16   O14   A    
N1    N2    A    
C39   H24   S    
C4    O12   A    
C5    H23   S    
C11   C13   A    
C38   H21   S    
C34   N4    A    
C22   C24   A    
C46   H39   S    
C7    O2    S    
C10   C11   A    
C28   C34   S    
C15   C21   A    
C15   O4    S    
C20   C21   A    
Cu2   O14   S    
C49   C50   S    
C2    C23   S    
C32   H6    S    
C40   C41   S    
C21   N5    A    
C23   N3    A    
C26   H1    S    
C33   H9    S    
N3    N4    A    
