data_mof_unit_43738.cif
_audit_creation_date              2012-12-10T17:18:59-0500
_audit_creation_method            fapswitch 2.2
_symmetry_space_group_name_H-M    P1
_symmetry_Int_Tables_number       1
_space_group_crystal_system       triclinic
_cell_length_a                    10.20792
_cell_length_b                    10.833478
_cell_length_c                    13.647797
_cell_angle_alpha                 92.241451
_cell_angle_beta                  100.213354
_cell_angle_gamma                 96.035796
_cell_volume                      1474.5487526

loop_
_atom_site_label
_atom_site_type_symbol
_atom_type_description
_atom_site_fract_x
_atom_site_fract_y
_atom_site_fract_z
_atom_type_partial_charge
C1    C     C_R   0.054363 0.732530 0.496058 0.952533
C2    C     C_R   0.947877 0.267933 0.508913 0.944651
C3    C     C_R   0.462906 0.557591 0.119893 -0.325882
C4    C     C_R   0.502323 0.362565 0.899218 -0.323918
C5    C     C_R   0.339248 0.600960 0.089452 -0.016730
C6    C     C_R   0.629210 0.324889 0.927737 -0.007588
C7    C     C_2   0.088934 0.865444 0.501802 -0.369005
C8    C     C_2   0.921844 0.136810 0.522095 -0.353429
C9    C     C_2   0.001222 0.936622 0.529417 -0.141348
C10   C     C_2   0.024061 0.068659 0.526607 -0.140752
C11   C     C_2   0.430816 0.511520 0.508206 -0.143342
C12   C     C_2   0.569171 0.488621 0.491653 -0.133261
C13   C     C_R   0.093729 0.513984 0.685682 0.890006
C14   C     C_R   0.905786 0.483213 0.314824 0.894221
C15   C     C_R   0.143316 0.522456 0.792920 -0.046773
C16   C     C_R   0.850103 0.450358 0.210786 0.016559
C17   C     C_R   0.127194 0.585866 0.962150 0.014278
C18   C     C_R   0.817626 0.302718 0.068358 0.000628
C19   C     C_R   0.071023 0.569470 0.860626 -0.255869
C20   C     C_R   0.891759 0.351638 0.160263 -0.243374
C21   C     C_R   0.266243 0.481466 0.826914 -0.245938
C22   C     C_R   0.736244 0.501742 0.170358 -0.239626
C23   C     C_R   0.324431 0.492193 0.927662 0.059674
C24   C     C_R   0.652315 0.448267 0.084034 0.041916
C25   C     C_R   0.262156 0.559863 0.994847 0.116432
C26   C     C_R   0.700727 0.357364 0.025408 0.113645
C27   C     C_R   0.448685 0.445543 0.960185 0.085841
C28   C     C_R   0.522033 0.484426 0.055352 0.093097
H1    H     H_    0.714153 0.582849 0.209957 0.153055
H2    H     H_    0.319568 0.447992 0.771904 0.162810
H3    H     H_    0.976551 0.307028 0.195973 0.143764
H4    H     H_    0.970702 0.593249 0.834379 0.159573
H5    H     H_    0.511713 0.584298 0.195543 0.139213
H6    H     H_    0.447262 0.324684 0.827702 0.139135
H7    H     H_    0.124855 0.109108 0.522074 0.188391
H8    H     H_    0.907071 0.897553 0.548650 0.190035
H9    H     H_    0.821291 0.095906 0.526560 0.152622
H10   H     H_    0.182802 0.904961 0.482547 0.154048
H11   H     H_    0.578374 0.414830 0.438047 0.167482
H12   H     H_    0.421602 0.585403 0.561726 0.167829
H13   H     H_    0.664996 0.623048 0.589403 0.164066
H14   H     H_    0.335007 0.376897 0.410644 0.166544
N1    N     N_2   0.322180 0.446120 0.460900 -0.192466
N2    N     N_2   0.677820 0.553880 0.539100 -0.189565
O1    O     O_R   0.935190 0.693030 0.507870 -0.613383
O2    O     O_R   0.064810 0.306970 0.492130 -0.617610
O3    O     O_R   0.142080 0.658430 0.482770 -0.605697
O4    O     O_R   0.857920 0.341570 0.517230 -0.602099
O5    O     O_R   0.969700 0.527180 0.651960 -0.599202
O6    O     O_R   0.030300 0.472820 0.348040 -0.588471
O7    O     O_R   0.176600 0.492580 0.626860 -0.624317
O8    O     O_R   0.823400 0.507420 0.373140 -0.624063
Zn1   Zn    Zn3+2 0.861850 0.523100 0.516760 0.951943
Zn2   Zn    Zn3+2 0.138150 0.476900 0.483240 0.948197
C29   C     C_2   0.309010 0.704701 0.153013 0.508568
H15   H     H_    0.338839 0.705971 0.233510 0.052689
O9    O     O_2   0.258684 0.793379 0.116040 -0.569145
C30   C     C_2   0.687997 0.267634 0.847457 0.477869
H16   H     H_    0.623817 0.209475 0.787493 0.058474
O10   O     O_2   0.806622 0.291423 0.843853 -0.583703
C31   C     C_2   0.035561 0.618163 0.029744 0.480001
H17   H     H_    0.948361 0.664430 0.001574 0.066061
O11   O     O_2   0.051716 0.587606 0.115671 -0.594039
C32   C     C_2   0.854358 0.183001 0.031238 0.472355
H18   H     H_    0.958788 0.166035 0.043068 0.073308
O12   O     O_2   0.768501 0.099416 0.993393 -0.570918

loop_
_geom_bond_atom_site_label_1
_geom_bond_atom_site_label_2
_ccdc_geom_bond_type
C5    C25   A    
C9    H8    S    
C11   C12   S    
C14   O8    A    
C11   N1    D    
C10   H7    S    
C22   H1    S    
C23   C27   A    
C9    C10   S    
C6    C30   S    
N1    Zn2   S    
C31   H17   S    
C18   C26   A    
C13   C15   S    
C16   C20   A    
O7    Zn2   S    
C17   C25   A    
C32   H18   S    
O2    Zn2   S    
C12   H11   S    
C23   C25   A    
C30   H16   S    
O1    Zn1   S    
C12   N2    D    
C6    C26   A    
C2    O2    A    
C15   C19   A    
C1    O1    A    
O6    Zn2   S    
O3    Zn2   S    
O5    Zn1   S    
C19   H4    S    
N2    Zn1   S    
C22   C24   A    
C8    C10   D    
C3    C28   A    
C17   C19   A    
C7    H10   S    
C24   C26   A    
C18   C20   A    
C29   O9    D    
C4    H6    S    
O4    Zn1   S    
H13   N2    S    
C13   O5    A    
C29   H15   S    
H14   N1    S    
C14   O6    A    
C17   C31   S    
C30   O10   D    
C11   H12   S    
C18   C32   S    
C7    C9    D    
C21   H2    S    
C15   C21   A    
C4    C27   A    
O8    Zn1   S    
C4    C6    A    
C8    H9    S    
C27   C28   A    
C31   O11   D    
C3    H5    S    
C1    O3    A    
C1    C7    S    
C16   C22   A    
C2    O4    A    
C14   C16   S    
C13   O7    A    
C21   C23   A    
C5    C29   S    
C2    C8    S    
C24   C28   A    
C3    C5    A    
C20   H3    S    
C32   O12   D    
