data_mof_unit_40229.cif
_audit_creation_date              2012-12-10T17:12:30-0500
_audit_creation_method            fapswitch 2.2
_symmetry_space_group_name_H-M    P1
_symmetry_Int_Tables_number       1
_space_group_crystal_system       triclinic
_cell_length_a                    11.668281
_cell_length_b                    13.115529
_cell_length_c                    11.824639
_cell_angle_alpha                 98.926573
_cell_angle_beta                  94.230393
_cell_angle_gamma                 92.983713
_cell_volume                      1779.09648826

loop_
_atom_site_label
_atom_site_type_symbol
_atom_type_description
_atom_site_fract_x
_atom_site_fract_y
_atom_site_fract_z
_atom_type_partial_charge
C1    C     C_R   0.508716 0.300233 0.480119 0.824839
C2    C     C_R   0.494053 0.700081 0.520257 0.818186
C3    C     C_R   0.364388 0.433793 0.026294 -0.396572
C4    C     C_R   0.631058 0.570604 0.974467 -0.357253
C5    C     C_R   0.380600 0.433910 0.145327 0.174089
C6    C     C_R   0.619199 0.565473 0.855173 0.145234
C7    C     C_R   0.561619 0.527229 0.152766 0.283823
C8    C     C_R   0.434919 0.476927 0.845766 0.351950
C9    C     C_R   0.546618 0.526381 0.032088 0.037348
C10   C     C_R   0.447306 0.479383 0.967643 -0.027152
C11   C     C_R   0.284243 0.499936 0.499773 0.830840
C12   C     C_R   0.715752 0.500070 0.500164 0.815590
C13   C     C_1   0.162514 0.500271 0.499651 -0.162480
C14   C     C_1   0.837442 0.499644 0.499896 -0.169848
C15   C     C_1   0.059903 0.500165 0.499661 -0.023543
C16   C     C_1   0.940017 0.499658 0.499416 -0.022277
C17   C     C_R   0.492602 0.813911 0.530921 -0.165997
C18   C     C_R   0.529452 0.188264 0.471314 -0.161903
C19   C     C_R   0.527955 0.021624 0.347399 0.118965
C20   C     C_R   0.557795 0.975342 0.649870 0.122575
C21   C     C_R   0.541366 0.129715 0.362820 0.140182
C22   C     C_R   0.513959 0.873915 0.640236 0.149217
C23   C     C_R   0.541214 0.138156 0.569837 -0.116292
C24   C     C_R   0.481517 0.863285 0.432552 -0.098207
C25   C     C_R   0.541831 0.028629 0.554894 -0.008108
C26   C     C_R   0.514750 0.970477 0.443542 0.002981
Cu1   Cu    Cu3+1 0.508350 0.507730 0.615930 0.973097
Cu2   Cu    Cu3+1 0.491650 0.492270 0.384070 0.945833
H1    H     H_    0.285762 0.396639 0.980282 0.148170
H2    H     H_    0.709623 0.607306 0.021396 0.182033
N1    N     N_R   0.520920 0.519350 0.790130 -0.184457
N2    N     N_R   0.479080 0.480650 0.209870 -0.202176
O1    O     O_R   0.505930 0.354460 0.582000 -0.568449
O2    O     O_R   0.494070 0.645540 0.418000 -0.597226
O3    O     O_R   0.491820 0.341410 0.386200 -0.556296
O4    O     O_R   0.508180 0.658590 0.613800 -0.558068
O5    O     O_R   0.344250 0.506540 0.597900 -0.554383
O6    O     O_R   0.655750 0.493460 0.402100 -0.600180
O7    O     O_R   0.330140 0.493480 0.402100 -0.568890
O8    O     O_R   0.669860 0.506520 0.597900 -0.572065
C27   C     C_R   0.395219 0.815671 0.337452 0.142319
C28   C     C_R   0.426374 0.753866 0.237789 -0.099217
C29   C     C_R   0.342313 0.712173 0.150032 -0.144070
C30   C     C_R   0.226454 0.729355 0.162143 -0.135779
C31   C     C_R   0.194407 0.789140 0.261691 -0.138221
C32   C     C_R   0.278329 0.832465 0.348773 -0.166399
H3    H     H_    0.515607 0.740381 0.226836 0.126480
H4    H     H_    0.366885 0.667251 0.072130 0.139882
H5    H     H_    0.161582 0.696553 0.094258 0.122976
H6    H     H_    0.104586 0.802405 0.271147 0.129273
H7    H     H_    0.252340 0.879230 0.425256 0.119884
C33   C     C_R   0.543694 0.196296 0.688702 0.192382
C34   C     C_R   0.644682 0.253375 0.739977 -0.116245
C35   C     C_R   0.656146 0.288638 0.858368 -0.153639
C36   C     C_R   0.567038 0.268021 0.925866 -0.099087
C37   C     C_R   0.464201 0.215973 0.874636 -0.192606
C38   C     C_R   0.451838 0.181097 0.756176 -0.165655
H8    H     H_    0.716451 0.265391 0.689409 0.110124
H9    H     H_    0.735301 0.329326 0.898556 0.119469
H10   H     H_    0.577148 0.293442 0.017815 0.140211
H11   H     H_    0.394766 0.201235 0.926968 0.134797
H12   H     H_    0.373629 0.137036 0.718138 0.121426
N3    N     N_3   0.485254 0.832932 0.741484 -0.581176
H13   H     H_    0.499552 0.888921 0.815075 0.221491
H14   H     H_    0.396574 0.813756 0.732580 0.206491
N4    N     N_3   0.573643 0.179916 0.269083 -0.570030
H15   H     H_    0.518467 0.151632 0.196071 0.220562
H16   H     H_    0.656490 0.159531 0.250766 0.226172
N5    N     N_3   0.541195 0.966739 0.234990 -0.624011
H17   H     H_    0.596802 0.907528 0.240690 0.222614
H18   H     H_    0.460515 0.939375 0.194644 0.232423
N6    N     N_3   0.640051 0.012223 0.746018 -0.610800
H19   H     H_    0.600198 0.051820 0.814110 0.239927
H20   H     H_    0.707150 0.057713 0.721491 0.223843
N7    N     N_3   0.333306 0.428457 0.779952 -0.532629
H21   H     H_    0.323287 0.351399 0.791472 0.204234
H22   H     H_    0.262167 0.466962 0.808931 0.182046
N8    N     N_3   0.664875 0.578722 0.212613 -0.632226
H23   H     H_    0.647061 0.627510 0.286537 0.257040
H24   H     H_    0.722897 0.523817 0.229102 0.235734
C39   C     C_R   0.722098 0.606123 0.806887 0.165228
C40   C     C_R   0.729423 0.707427 0.783096 -0.120220
C41   C     C_R   0.831553 0.749592 0.749402 -0.162540
C42   C     C_R   0.929074 0.692154 0.744020 -0.119324
C43   C     C_R   0.924539 0.592800 0.772952 -0.138612
C44   C     C_R   0.821692 0.549893 0.804362 -0.149787
H25   H     H_    0.657978 0.754889 0.795226 0.179475
H26   H     H_    0.835810 0.827688 0.730191 0.147308
H27   H     H_    0.008509 0.725088 0.719019 0.126000
H28   H     H_    0.000591 0.548886 0.770675 0.129432
H29   H     H_    0.819847 0.473280 0.827496 0.110697
C45   C     C_R   0.283149 0.384937 0.194407 0.173751
C46   C     C_R   0.177150 0.431528 0.196062 -0.152840
C47   C     C_R   0.080558 0.381288 0.231265 -0.140809
C48   C     C_R   0.088701 0.284081 0.264533 -0.113401
C49   C     C_R   0.192712 0.236004 0.259907 -0.171614
C50   C     C_R   0.288784 0.285459 0.222837 -0.127835
H30   H     H_    0.169501 0.506527 0.169780 0.128812
H31   H     H_    0.999529 0.417876 0.233108 0.132956
H32   H     H_    0.014081 0.245501 0.292436 0.127120
H33   H     H_    0.198386 0.159629 0.283022 0.132028
H34   H     H_    0.366311 0.245334 0.213569 0.141034

loop_
_geom_bond_atom_site_label_1
_geom_bond_atom_site_label_2
_ccdc_geom_bond_type
C30   H5    S    
N4    H16   S    
C36   C37   A    
N3    H14   S    
C46   C47   A    
C21   N4    S    
C18   C21   A    
C27   C28   A    
C48   C49   A    
C29   C30   A    
C39   C40   A    
C1    O1    A    
C38   H12   S    
C34   C35   A    
Cu1   O1    S    
C1    C18   S    
C47   H31   S    
C19   C21   A    
C24   C26   A    
C44   H29   S    
C43   C44   A    
N8    H24   S    
C20   C25   A    
C40   H25   S    
C37   C38   A    
N5    H18   S    
C3    H1    S    
C19   C26   A    
C22   N3    S    
Cu2   O3    S    
C27   C32   A    
C9    C10   A    
C39   C44   A    
C5    N2    A    
C2    O2    A    
C41   H26   S    
Cu2   O2    S    
C6    C39   S    
C36   H10   S    
C2    C17   S    
C24   C27   S    
C47   C48   A    
C45   C50   A    
C35   H9    S    
C17   C24   A    
Cu1   N1    S    
C18   C23   A    
Cu2   N2    S    
N4    H15   S    
C42   C43   A    
N6    H20   S    
C48   H32   S    
Cu2   O7    S    
C25   C26   A    
C31   C32   A    
C32   H7    S    
C8    N7    S    
C12   O8    A    
N7    H21   S    
C41   C42   A    
Cu2   O6    S    
Cu1   O8    S    
C34   H8    S    
C49   C50   A    
C33   C34   A    
C11   O7    A    
N7    H22   S    
C7    N8    S    
C4    C6    A    
C20   C22   A    
C13   C15   T    
C14   C16   T    
C19   N5    S    
C42   H27   S    
C30   C31   A    
C1    O3    A    
C11   O5    A    
C29   H4    S    
C2    O4    A    
C7    C9    A    
C35   C36   A    
C7    N2    A    
N8    H23   S    
C8    N1    A    
C50   H34   S    
C12   C14   S    
N6    H19   S    
C3    C5    A    
C43   H28   S    
Cu1   O4    S    
C17   C22   A    
C3    C10   A    
C11   C13   S    
C23   C33   S    
C31   H6    S    
Cu1   O5    S    
C45   C46   A    
C6    N1    A    
C28   H3    S    
C23   C25   A    
C12   O6    A    
N5    H17   S    
C5    C45   S    
C33   C38   A    
N3    H13   S    
C8    C10   A    
C40   C41   A    
C28   C29   A    
Cu1   Cu2   S    
C37   H11   S    
C20   N6    S    
C4    C9    A    
C49   H33   S    
C46   H30   S    
C4    H2    S    
C15   C16   S    
