data_mof_unit_33948.cif
_audit_creation_date              2012-12-11T14:56:22-0500
_audit_creation_method            fapswitch 2.2
_symmetry_space_group_name_H-M    P1
_symmetry_Int_Tables_number       1
_space_group_crystal_system       triclinic
_cell_length_a                    10.527482
_cell_length_b                    10.694568
_cell_length_c                    17.08621
_cell_angle_alpha                 80.281836
_cell_angle_beta                  89.937475
_cell_angle_gamma                 119.39796
_cell_volume                      1644.00948517

loop_
_atom_site_label
_atom_site_type_symbol
_atom_type_description
_atom_site_fract_x
_atom_site_fract_y
_atom_site_fract_z
_atom_type_partial_charge
C1    C     C_R   0.278053 0.888229 0.132792 0.547577
C2    C     C_1   0.684098 0.400776 0.709763 -0.039346
C3    C     C_R   0.606819 0.707000 0.803246 0.063305
C4    C     C_R   0.633909 0.272543 0.089803 0.563525
C5    C     C_R   0.596017 0.697924 0.724370 -0.122716
C6    C     C_R   0.668834 0.823383 0.664953 0.009011
C7    C     C_R   0.759105 0.959804 0.684766 -0.150379
C8    C     C_R   0.768616 0.971246 0.764388 -0.166989
C9    C     C_R   0.687222 0.846114 0.823957 0.026800
C10   C     C_R   0.085119 0.885263 0.789656 -0.128953
C11   C     C_R   0.069531 0.882376 0.710145 -0.124049
C12   C     C_R   0.717340 0.264710 0.299737 -0.134862
C13   C     C_R   0.115258 0.802651 0.671907 0.030136
C14   C     C_R   0.164819 0.715273 0.715437 -0.136991
C15   C     C_R   0.182698 0.719844 0.795406 -0.121543
C16   C     C_R   0.643554 0.855922 0.124306 0.550478
C17   C     C_R   0.150278 0.811618 0.831217 0.027793
C18   C     C_R   0.711242 0.772573 0.353516 0.562347
C19   C     C_R   0.681637 0.385041 0.399318 0.553952
C20   C     C_R   0.107926 0.812474 0.359857 0.550768
C21   C     C_R   0.677337 0.800849 0.585138 0.545043
C22   C     C_R   0.717227 0.445746 0.626026 0.559851
C23   C     C_R   0.719432 0.256192 0.220596 -0.149214
C24   C     C_R   0.090015 0.798706 0.589413 0.543342
C25   C     C_R   0.216436 0.858154 0.902386 0.552979
C26   C     C_R   0.639816 0.289086 0.861489 0.577087
C27   C     C_R   0.647570 0.865442 0.900036 0.562315
C28   C     C_R   0.545581 0.344585 0.200823 0.064898
C29   C     C_R   0.546806 0.355898 0.280480 -0.115421
C30   C     C_R   0.638417 0.323154 0.328698 0.003553
C31   C     C_R   0.638310 0.300872 0.169699 0.030989
C32   C     C_1   0.685122 0.832021 0.201792 -0.027527
C33   C     C_1   0.703313 0.807499 0.270492 -0.034900
C34   C     C_1   0.226742 0.853593 0.215466 -0.024331
C35   C     C_1   0.178275 0.834433 0.283005 -0.024913
C36   C     C_1   0.661403 0.356148 0.780150 -0.019873
Cr1   Cr    Cr6+3 0.402240 0.783890 0.019450 1.081647
Cr2   Cr    Cr6+3 0.382360 0.097900 0.991800 1.085226
Cr3   Cr    Cr6+3 0.715380 0.118170 0.988700 1.040120
Cr4   Cr    Cr6+3 0.936650 0.882420 0.465510 1.025507
Cr5   Cr    Cr6+3 0.605770 0.565620 0.493360 1.025768
Cr6   Cr    Cr6+3 0.921340 0.550490 0.496380 1.024438
H1    H     H_    0.022983 0.944363 0.678396 0.148819
H2    H     H_    0.056502 0.953781 0.816854 0.140109
H3    H     H_    0.194258 0.648457 0.687150 0.134019
H4    H     H_    0.232069 0.660601 0.827158 0.160770
H5    H     H_    0.483971 0.399992 0.302911 0.156958
H6    H     H_    0.786128 0.235745 0.336737 0.152170
H7    H     H_    0.784449 0.213074 0.199619 0.157218
H8    H     H_    0.532590 0.590368 0.709783 0.155337
H9    H     H_    0.821549 0.056486 0.638874 0.140253
H10   H     H_    0.830872 0.078951 0.778913 0.149062
I1    I     I_    0.406440 0.402198 0.133012 -0.275244
I2    I     I_    0.478839 0.503483 0.883941 -0.320568
O1    O     O_R   0.521780 0.757110 0.108900 -0.481868
O2    O     O_R   0.805020 0.410040 0.421340 -0.510572
O3    O     O_R   0.049240 0.685450 0.403290 -0.491448
O4    O     O_R   0.275160 0.783810 0.101120 -0.482451
O5    O     O_R   0.077520 0.903010 0.551800 -0.518808
O6    O     O_R   0.802980 0.872780 0.546830 -0.505707
O7    O     O_R   0.578090 0.681300 0.569920 -0.523686
O8    O     O_R   0.608530 0.436370 0.586530 -0.491878
O9    O     O_R   0.798770 0.401880 0.597100 -0.506754
O10   O     O_R   0.043450 0.677890 0.566230 -0.516380
O11   O     O_3   0.821250 0.666180 0.485090 -0.297083
O12   O     O_R   0.513330 0.228330 0.898660 -0.465457
O13   O     O_R   0.237900 0.972600 0.090980 -0.488302
O14   O     O_R   0.511190 0.220540 0.061620 -0.477250
O15   O     O_R   0.736920 0.257720 0.063840 -0.520153
O16   O     O_R   0.710450 0.984050 0.081720 -0.505831
O17   O     O_R   0.524090 0.765520 0.933110 -0.472663
O18   O     O_R   0.277300 0.791600 0.938160 -0.497627
O19   O     O_R   0.240210 0.981010 0.915190 -0.506870
O20   O     O_R   0.739230 0.266130 0.888050 -0.511172
O21   O     O_R   0.712580 0.991850 0.918770 -0.510895
O22   O     O_3   0.499990 0.999980 0.999980 -0.291446
O23   O     O_R   0.083770 0.911170 0.376030 -0.502635
O24   O     O_R   0.808770 0.880340 0.383890 -0.490091
O25   O     O_R   0.584340 0.689460 0.394160 -0.501812
O26   O     O_R   0.614320 0.443940 0.423590 -0.516517

loop_
_geom_bond_atom_site_label_1
_geom_bond_atom_site_label_2
_ccdc_geom_bond_type
C19   O2    A    
Cr4   O6    S    
Cr5   O7    S    
C12   H6    S    
Cr5   O26   S    
C7    C8    A    
Cr2   O22   S    
C12   C23   A    
C20   O23   A    
C29   H5    S    
C28   C29   A    
C5    C6    A    
C3    I2    S    
C23   H7    S    
C10   C17   A    
C34   C35   T    
Cr3   O20   S    
C26   O20   A    
C22   O9    A    
C20   C35   S    
Cr2   O12   S    
C18   O25   A    
C2    C22   S    
Cr6   O11   S    
C11   H1    S    
Cr3   O21   S    
C8    H10   S    
C21   O7    A    
Cr1   O4    S    
Cr6   O2    S    
C24   O10   A    
Cr4   O5    S    
C13   C14   A    
Cr5   O8    S    
C27   O21   A    
Cr6   O3    S    
C4    O15   A    
C1    C34   S    
C14   H3    S    
C10   H2    S    
C26   O12   A    
C16   O16   A    
C21   O6    A    
C4    O14   A    
C8    C9    A    
Cr5   O11   S    
C6    C21   S    
C13   C24   S    
C23   C31   A    
C29   C30   A    
C3    C9    A    
C22   O8    A    
C18   O24   A    
Cr3   O15   S    
C25   O18   A    
Cr3   O22   S    
C26   C36   S    
Cr1   O22   S    
Cr2   O14   S    
Cr4   O11   S    
Cr1   O17   S    
Cr4   O24   S    
C5    H8    S    
Cr6   O10   S    
C27   O17   A    
C9    C27   S    
C2    C36   T    
C15   C17   A    
C12   C30   A    
C14   C15   A    
C28   C31   A    
C3    C5    A    
Cr5   O25   S    
C28   I1    S    
C6    C7    A    
C16   C32   S    
C17   C25   S    
C32   C33   T    
C16   O1    A    
C7    H9    S    
C1    O4    A    
C11   C13   A    
C24   O5    A    
C1    O13   A    
Cr3   O16   S    
C25   O19   A    
C19   O26   A    
C18   C33   S    
C4    C31   S    
C10   C11   A    
Cr1   O1    S    
Cr2   O13   S    
Cr1   O18   S    
Cr4   O23   S    
C15   H4    S    
C20   O3    A    
C19   C30   S    
Cr6   O9    S    
Cr2   O19   S    
