data_mof_unit_59200.cif
_audit_creation_date              2012-12-10T18:23:21-0500
_audit_creation_method            fapswitch 2.2
_symmetry_space_group_name_H-M    P1
_symmetry_Int_Tables_number       1
_space_group_crystal_system       triclinic
_cell_length_a                    27.804926
_cell_length_b                    10.616165
_cell_length_c                    9.431429
_cell_angle_alpha                 89.289533
_cell_angle_beta                  89.461703
_cell_angle_gamma                 89.754269
_cell_volume                      2783.62395662

loop_
_atom_site_label
_atom_site_type_symbol
_atom_type_description
_atom_site_fract_x
_atom_site_fract_y
_atom_site_fract_z
_atom_type_partial_charge
C1    C     C_R   0.500597 0.259600 0.500775 0.816019
C2    C     C_R   0.871984 0.391460 0.531579 -0.090805
C3    C     C_R   0.354910 0.499819 0.500863 -0.128736
C4    C     C_R   0.645090 0.500181 0.499137 -0.128735
C5    C     C_R   0.974164 0.385570 0.530403 -0.056732
C6    C     C_R   0.025836 0.614430 0.469597 -0.056733
C7    C     C_R   0.974622 0.611599 0.460954 0.082417
C8    C     C_R   0.025377 0.388401 0.539045 0.082416
C9    C     C_R   0.949157 0.499624 0.498235 0.000967
C10   C     C_R   0.050843 0.500376 0.501765 0.000967
C11   C     C_R   0.946915 0.271977 0.546673 0.464116
C12   C     C_R   0.499403 0.740400 0.499225 0.816018
C13   C     C_R   0.053084 0.728023 0.453327 0.464116
C14   C     C_R   0.896469 0.278124 0.551578 -0.230722
C15   C     C_R   0.103530 0.721876 0.448422 -0.230722
C16   C     C_R   0.407675 0.500306 0.500438 0.816290
C17   C     C_R   0.592325 0.499694 0.499562 0.816291
C18   C     C_R   0.052302 0.285151 0.592712 -0.152025
C19   C     C_R   0.947698 0.714849 0.407288 -0.152025
C20   C     C_3   0.515095 0.036376 0.624945 0.609978
C21   C     C_3   0.484905 0.963624 0.375055 0.609977
C22   C     C_3   0.545141 0.955441 0.522511 -0.333802
C23   C     C_R   0.102031 0.498919 0.501780 -0.050044
C24   C     C_3   0.454859 0.044559 0.477489 -0.333802
C25   C     C_3   0.499469 0.877104 0.498114 -0.098475
C26   C     C_3   0.500531 0.122896 0.501885 -0.098475
C27   C     C_3   0.469707 0.957046 0.602886 -0.290674
C28   C     C_3   0.530293 0.042954 0.397113 -0.290674
C29   C     C_3   0.510718 0.611005 0.048820 -0.200806
C30   C     C_3   0.489282 0.388995 0.951180 -0.200806
C31   C     C_3   0.469259 0.578110 0.950849 0.664102
C32   C     C_3   0.530740 0.421890 0.049151 0.664102
C33   C     C_3   0.542075 0.531515 0.947519 -0.213912
C34   C     C_R   0.897968 0.501081 0.498220 -0.050044
C35   C     C_3   0.457925 0.468485 0.052481 -0.213912
C36   C     C_R   0.177985 0.388252 0.535389 0.544246
C37   C     C_R   0.822014 0.611748 0.464611 0.544246
C38   C     C_R   0.178528 0.604392 0.464856 0.567376
C39   C     C_R   0.821472 0.395608 0.535144 0.567376
C40   C     C_R   0.278189 0.568014 0.598551 -0.197777
C41   C     C_R   0.721811 0.431986 0.401449 -0.197778
C42   C     C_R   0.328438 0.573349 0.597768 0.456359
C43   C     C_R   0.671562 0.426651 0.402232 0.456359
C44   C     C_R   0.330510 0.426908 0.401506 -0.312650
C45   C     C_R   0.127466 0.388493 0.539121 -0.001658
C46   C     C_R   0.669490 0.573092 0.598494 -0.312650
C47   C     C_R   0.280350 0.424474 0.400891 -0.100602
C48   C     C_R   0.719650 0.575526 0.599109 -0.100602
C49   C     C_R   0.254034 0.494922 0.499559 0.287091
C50   C     C_R   0.745966 0.505078 0.500441 0.287091
C51   C     C_3   0.542910 0.981850 0.846358 -0.357803
C52   C     C_3   0.457090 0.018150 0.153642 -0.357802
C53   C     C_3   0.404904 0.708980 0.994705 -0.285629
C54   C     C_3   0.595096 0.291020 0.005295 -0.285628
C55   C     C_3   0.646370 0.226929 0.370858 -0.261931
C56   C     C_R   0.872534 0.611507 0.460879 -0.001658
C57   C     C_3   0.353630 0.773070 0.629141 -0.261930
C58   C     C_3   0.953752 0.067952 0.636100 -0.336757
C59   C     C_3   0.046248 0.932048 0.363899 -0.336757
C60   C     C_R   0.102135 0.283271 0.587382 -0.189401
C61   C     C_R   0.897865 0.716729 0.412618 -0.189401
C62   C     C_R   0.128016 0.608540 0.468421 -0.090805
Cu1   Cu    Cu3+1 0.500010 0.499990 0.643150 0.996744
Cu2   Cu    Cu3+1 0.499990 0.500010 0.356850 0.996744
H1    H     H_    0.350315 0.371023 0.325161 0.164875
H2    H     H_    0.879233 0.799991 0.373961 0.188907
H3    H     H_    0.742143 0.376844 0.325636 0.160720
H4    H     H_    0.257856 0.623156 0.674364 0.160720
H5    H     H_    0.036110 0.206143 0.646604 0.195486
H6    H     H_    0.963890 0.793857 0.353396 0.195486
H7    H     H_    0.581625 0.916214 0.541471 0.149534
H8    H     H_    0.418375 0.083786 0.458529 0.149534
H9    H     H_    0.574256 0.928565 0.803765 0.168505
H10   H     H_    0.511942 0.917643 0.865367 0.187743
H11   H     H_    0.553446 0.019850 0.950507 0.187724
H12   H     H_    0.649685 0.628977 0.674839 0.164875
H13   H     H_    0.488058 0.082356 0.134632 0.187743
H14   H     H_    0.425744 0.071435 0.196235 0.168505
H15   H     H_    0.446554 0.980150 0.049492 0.187724
H16   H     H_    0.423608 0.738385 0.092617 0.185008
H17   H     H_    0.377775 0.635416 0.020546 0.179396
H18   H     H_    0.385474 0.792716 0.953039 0.186450
H19   H     H_    0.622224 0.364584 0.979454 0.179396
H20   H     H_    0.576392 0.261615 0.907383 0.185008
H21   H     H_    0.614526 0.207284 0.046961 0.186450
H22   H     H_    0.261901 0.368310 0.323461 0.157124
H23   H     H_    0.446133 0.919695 0.688823 0.166232
H24   H     H_    0.738099 0.631690 0.676539 0.157124
H25   H     H_    0.621476 0.225823 0.463979 0.151057
H26   H     H_    0.682522 0.190997 0.401896 0.165668
H27   H     H_    0.632228 0.160838 0.291729 0.179697
H28   H     H_    0.317478 0.809003 0.598103 0.165667
H29   H     H_    0.378524 0.774177 0.536021 0.151057
H30   H     H_    0.367771 0.839162 0.708271 0.179697
H31   H     H_    0.876048 0.191979 0.562228 0.195041
H32   H     H_    0.123952 0.808021 0.437772 0.195041
H33   H     H_    0.921749 0.015598 0.599731 0.189751
H34   H     H_    0.553867 0.080305 0.311177 0.166232
H35   H     H_    0.946450 0.112725 0.740470 0.148989
H36   H     H_    0.982893 0.997900 0.652944 0.234606
H37   H     H_    0.053550 0.887275 0.259530 0.148990
H38   H     H_    0.078251 0.984402 0.400269 0.189751
H39   H     H_    0.017107 0.002100 0.347056 0.234606
H40   H     H_    0.519063 0.704351 0.094071 0.173331
H41   H     H_    0.480936 0.295649 0.905929 0.173331
H42   H     H_    0.577186 0.557946 0.899008 0.141731
H43   H     H_    0.422813 0.442054 0.100992 0.141731
H44   H     H_    0.120767 0.200009 0.626039 0.188907
N1    N     N_R   0.202423 0.495139 0.497616 -0.453504
N2    N     N_R   0.797577 0.504861 0.502384 -0.453504
N3    N     N_3   0.500040 0.499970 0.858290 -0.196424
N4    N     N_3   0.499960 0.500030 0.141710 -0.196424
O1    O     O_R   0.500020 0.316850 0.620870 -0.566409
O2    O     O_2   0.797520 0.717261 0.428693 -0.541959
O3    O     O_2   0.796389 0.291241 0.571263 -0.549880
O4    O     O_2   0.203611 0.708759 0.428737 -0.549880
O5    O     O_3   0.530576 0.083425 0.755994 -0.596237
O6    O     O_3   0.469424 0.916575 0.244006 -0.596237
O7    O     O_3   0.437175 0.665945 0.889634 -0.544876
O8    O     O_3   0.562825 0.334055 0.110366 -0.544876
O9    O     O_3   0.648677 0.348383 0.308761 -0.548991
O10   O     O_3   0.351323 0.651617 0.691239 -0.548991
O11   O     O_3   0.969032 0.155228 0.530522 -0.598387
O12   O     O_R   0.499980 0.683150 0.379130 -0.566409
O13   O     O_3   0.030968 0.844772 0.469478 -0.598387
O14   O     O_R   0.500000 0.316860 0.379090 -0.557940
O15   O     O_R   0.500000 0.683140 0.620910 -0.557940
O16   O     O_R   0.430270 0.500020 0.620880 -0.512087
O17   O     O_R   0.569730 0.499980 0.379120 -0.512087
O18   O     O_R   0.430250 0.500030 0.379090 -0.605646
O19   O     O_R   0.569750 0.499970 0.620910 -0.605647
O20   O     O_2   0.202480 0.282739 0.571306 -0.541959

loop_
_geom_bond_atom_site_label_1
_geom_bond_atom_site_label_2
_ccdc_geom_bond_type
C55   O9    S    
C45   C60   A    
C34   C56   A    
C23   C45   A    
C57   H28   S    
C54   O8    S    
C17   O19   A    
C14   H31   S    
C29   N4    S    
C51   H10   S    
C46   H12   S    
C41   H3    S    
C12   O15   A    
C4    C46   A    
C42   O10   S    
C58   O11   S    
C30   C35   S    
C24   C26   S    
C5    C11   A    
C55   H26   S    
C36   O20   S    
C11   C14   A    
Cu2   N4    S    
C40   C49   A    
C29   C33   S    
C50   N2    S    
C3    C42   A    
C53   H17   S    
C54   H19   S    
C7    C19   A    
C55   H27   S    
C57   O10   S    
C37   C56   A    
C2    C39   A    
C39   N2    A    
C22   C25   S    
C48   H24   S    
C33   N3    S    
Cu1   O19   S    
C52   H15   S    
C16   O18   A    
C43   O9    S    
Cu1   O16   S    
C60   H44   S    
C44   C47   A    
C13   O13   S    
C2    C34   A    
C18   H5    S    
C48   C50   A    
C57   H29   S    
C41   C43   A    
C44   H1    S    
C58   H33   S    
C1    O1    A    
C32   O8    S    
C52   H14   S    
C61   H2    S    
C54   H20   S    
C20   O5    S    
C23   C62   A    
C46   C48   A    
C3    C44   A    
C33   H42   S    
C17   O17   A    
C59   H37   S    
C47   H22   S    
C53   H16   S    
C58   H36   S    
C1    O14   A    
C47   C49   A    
C15   H32   S    
C37   O2    S    
Cu2   O12   S    
C8    C18   A    
C29   H40   S    
C53   H18   S    
C41   C50   A    
Cu2   O18   S    
C5    C9    A    
C21   O6    S    
C54   H21   S    
C38   O4    S    
C12   O12   A    
C24   C27   S    
C36   C45   A    
C38   N1    A    
C27   H23   S    
C16   O16   A    
C31   O7    S    
C37   N2    A    
C4    C17   S    
C18   C60   A    
C4    C43   A    
C21   C28   S    
C20   C22   S    
Cu2   O14   S    
C57   H30   S    
C13   C15   A    
C30   H41   S    
C9    C34   A    
C31   C35   S    
C59   O13   S    
C52   H13   S    
C22   H7    S    
C24   H8    S    
C49   N1    S    
C28   H34   S    
C7    C9    A    
C21   C25   S    
C32   N4    S    
C59   H38   S    
C26   C28   S    
C8    C10   A    
C11   O11   S    
C58   H35   S    
C51   H9    S    
C51   H11   S    
C6    C10   A    
C5    C8    A    
C53   O7    S    
C6    C7    A    
C20   C27   S    
C10   C23   A    
C25   C27   S    
C30   N3    S    
C39   O3    S    
C12   C25   S    
C59   H39   S    
C32   C33   S    
C29   C31   S    
C6    C13   A    
C30   C32   S    
C1    C26   S    
C20   C26   S    
C19   C61   A    
C40   C42   A    
C51   O5    S    
C15   C62   A    
Cu1   N3    S    
C2    C14   A    
C35   H43   S    
C35   N4    S    
Cu1   Cu2   S    
Cu1   O1    S    
Cu2   O17   S    
C55   H25   S    
C40   H4    S    
C21   C24   S    
C36   N1    A    
C31   N3    S    
C56   C61   A    
C19   H6    S    
C22   C28   S    
Cu1   O15   S    
C3    C16   S    
C38   C62   A    
C52   O6    S    
