data_mof_unit_45835.cif
_audit_creation_date              2013-03-05T16:11:51-0500
_audit_creation_method            fapswitch 2.2
_symmetry_space_group_name_H-M    P1
_symmetry_Int_Tables_number       1
_space_group_crystal_system       triclinic
_cell_length_a                    10.925459
_cell_length_b                    9.600204
_cell_length_c                    23.463055
_cell_angle_alpha                 89.624542
_cell_angle_beta                  91.004223
_cell_angle_gamma                 89.749526
_cell_volume                      2460.50529972

loop_
_atom_site_label
_atom_site_type_symbol
_atom_site_description
_atom_site_fract_x
_atom_site_fract_y
_atom_site_fract_z
_atom_type_partial_charge
O1    O     O_R   0.317570 0.620260 0.500030 -0.546971
O2    O     O_R   0.317570 0.379740 0.500030 -0.549236
C1    C     C_R   0.259543 0.500261 0.497295 0.860161
O3    O     O_R   0.499840 0.620290 0.417900 -0.596357
O4    O     O_R   0.499840 0.379710 0.417900 -0.596299
C2    C     C_R   0.498647 0.500474 0.391221 0.830981
Cu1   Cu    Cu3+1 0.499860 0.642410 0.500030 1.044021
Cu2   Cu    Cu3+1 0.499860 0.357590 0.500030 1.056683
O5    O     O_R   0.682190 0.620260 0.500010 -0.577377
O6    O     O_R   0.682190 0.379740 0.500010 -0.573129
O7    O     O_R   0.499920 0.620230 0.582140 -0.506289
O8    O     O_R   0.499920 0.379770 0.582140 -0.507037
C3    C     C_R   0.738876 0.500386 0.498088 0.879532
C4    C     C_R   0.499727 0.499604 0.608606 0.917028
C5    C     C_R   0.539679 0.598182 0.879306 0.560439
N1    N     N_R   0.462522 0.509525 0.850693 -0.461821
C6    C     C_R   0.382519 0.425747 0.879207 0.563422
C7    C     C_R   0.379897 0.426957 0.939035 -0.025508
C8    C     C_R   0.461418 0.514342 0.969038 -0.013864
C9    C     C_R   0.541596 0.601392 0.939019 -0.025094
C10   C     C_R   0.299654 0.341387 0.969494 -0.142223
C11   C     C_R   0.301234 0.341579 0.029009 -0.146600
C12   C     C_R   0.383559 0.426773 0.059329 -0.021838
C13   C     C_R   0.463658 0.513746 0.029211 -0.012774
C14   C     C_R   0.546821 0.599244 0.059113 -0.015759
C15   C     C_R   0.625676 0.686523 0.028705 -0.147590
C16   C     C_R   0.622783 0.687955 0.969274 -0.143091
C17   C     C_R   0.388299 0.427077 0.119171 0.550877
N2    N     N_R   0.471148 0.509268 0.147666 -0.469295
C18   C     C_R   0.549783 0.594258 0.118856 0.542292
O9    O     O_2   0.614621 0.682775 0.849959 -0.491172
O10   O     O_2   0.307477 0.339831 0.849844 -0.494175
H1    H     H_    0.235864 0.273476 0.947481 0.198216
H2    H     H_    0.238485 0.273929 0.051137 0.196150
O11   O     O_2   0.310281 0.346602 0.148647 -0.505835
O12   O     O_2   0.631735 0.672424 0.147951 -0.522011
H3    H     H_    0.690168 0.753646 0.050689 0.196205
H4    H     H_    0.685262 0.755982 0.947168 0.198958
C19   C     C_R   0.453690 0.627731 0.239810 -0.075220
H5    H     H_    0.429625 0.723724 0.217762 0.159991
C20   C     C_R   0.462366 0.626119 0.299114 -0.141396
H6    H     H_    0.444295 0.721579 0.321896 0.172850
C21   C     C_R   0.492370 0.502240 0.328515 -0.019300
C22   C     C_R   0.513864 0.380147 0.297478 -0.180493
H7    H     H_    0.537358 0.283320 0.319010 0.155545
C23   C     C_R   0.506551 0.382384 0.238058 -0.076443
H8    H     H_    0.525132 0.288084 0.214595 0.156750
C24   C     C_R   0.476342 0.506159 0.208916 0.328969
C25   C     C_R   0.371763 0.542040 0.754707 -0.042003
H9    H     H_    0.287018 0.577072 0.773222 0.177270
C26   C     C_R   0.382999 0.540274 0.695643 -0.164201
H10   H     H_    0.305242 0.570704 0.669119 0.191452
C27   C     C_R   0.493266 0.499101 0.670908 -0.105787
C28   C     C_R   0.592951 0.455668 0.706138 0.339944
C29   C     C_R   0.579212 0.454904 0.765360 -0.135482
H11   H     H_    0.655074 0.423601 0.792973 0.186818
C30   C     C_R   0.470258 0.500432 0.789790 0.262230
C31   C     C_3   0.066632 0.637978 0.522811 0.090138
C32   C     C_3   0.065647 0.378432 0.531294 0.083602
H12   H     H_    0.106217 0.637836 0.566825 0.158665
H13   H     H_    0.081924 0.409835 0.576507 0.136329
C33   C     C_3   0.927061 0.627407 0.529633 -0.346344
C34   C     C_3   0.927253 0.368997 0.522591 -0.308521
H14   H     H_    0.906497 0.614375 0.575576 0.237980
H15   H     H_    0.885504 0.349689 0.564732 0.260366
H16   H     H_    0.882220 0.725928 0.515099 0.249347
H17   H     H_    0.904246 0.281132 0.493704 0.257601
H18   H     H_    0.893335 0.619102 0.417102 0.219060
H19   H     H_    0.866471 0.441727 0.405784 0.195046
C35   C     C_3   0.063878 0.491582 0.428663 0.579548
C36   C     C_3   0.119869 0.501426 0.492693 -0.286847
C37   C     C_3   0.875809 0.502683 0.495729 -0.153677
C38   C     C_3   0.919949 0.513818 0.433199 -0.460807
C39   C     C_3   0.626673 0.077042 0.511427 0.237272
C40   C     C_3   0.621327 0.913689 0.521338 0.205690
H20   H     H_    0.677448 0.090324 0.470755 0.071600
H21   H     H_    0.692827 0.870972 0.493039 0.101044
C41   C     C_3   0.406704 0.082467 0.540734 0.200844
C42   C     C_3   0.399822 0.917533 0.537045 0.213676
C43   C     C_3   0.464190 0.084099 0.444114 -0.382034
C44   C     C_3   0.477255 0.917953 0.442951 -0.404581
N3    N     N_3   0.500250 0.143650 0.501250 -0.257003
N4    N     N_3   0.500250 0.856350 0.501250 -0.269253
H22   H     H_    0.369028 0.115225 0.431867 0.246084
H23   H     H_    0.393015 0.872461 0.423494 0.242116
H24   H     H_    0.522039 0.127960 0.409974 0.194843
H25   H     H_    0.553076 0.888891 0.414210 0.183986
H26   H     H_    0.317565 0.117039 0.523269 0.169667
H27   H     H_    0.314105 0.897504 0.512437 0.164197
N5    N     N_R   0.709483 0.418162 0.683183 0.161951
O13   O     O_R   0.751930 0.484855 0.639479 -0.357800
O14   O     O_R   0.780729 0.330155 0.710289 -0.266064
N6    N     N_R   0.094263 0.775751 0.498074 0.163476
O15   O     O_R   0.056287 0.808318 0.446946 -0.289887
O16   O     O_R   0.102267 0.878506 0.533727 -0.244203
N7    N     N_R   0.115724 0.236538 0.528037 0.158974
O17   O     O_R   0.123882 0.172821 0.479657 -0.274687
O18   O     O_R   0.103131 0.158255 0.573030 -0.215616
N8    N     N_R   0.112784 0.597600 0.389399 0.160668
O19   O     O_R   0.052359 0.626000 0.342368 -0.295163
O20   O     O_R   0.227733 0.631873 0.391770 -0.354832
N9    N     N_R   0.093298 0.356515 0.402558 0.161649
O21   O     O_R   0.008364 0.272750 0.383858 -0.310088
O22   O     O_R   0.206247 0.329255 0.389513 -0.313343
N10   N     N_R   0.712206 0.142181 0.552007 0.151148
O23   O     O_R   0.824169 0.094912 0.554151 -0.308501
O24   O     O_R   0.678452 0.225759 0.591741 -0.222442
N11   N     N_R   0.657867 0.867364 0.580225 0.193522
O25   O     O_R   0.708750 0.746884 0.588500 -0.308697
O26   O     O_R   0.668846 0.952732 0.622641 -0.171724
N12   N     N_R   0.407663 0.139286 0.599127 0.186875
O27   O     O_R   0.495349 0.116266 0.635794 -0.204708
O28   O     O_R   0.315792 0.214062 0.615954 -0.310532
N13   N     N_R   0.379331 0.847458 0.592404 0.176836
O29   O     O_R   0.453035 0.858466 0.636033 -0.232097
O30   O     O_R   0.277496 0.781751 0.600444 -0.359466

loop_
_geom_bond_atom_site_label_1
_geom_bond_atom_site_label_2
_geom_bond_distance
_ccdc_geom_bond_type
C31   C33   1.539756 S    
Cu1   N4    2.054277 S    
C29   H11   1.083265 S    
C34   H15   1.110939 S    
N6    O15   1.298270 A    
C7    C10   1.405258 A    
C20   H6    1.083105 S    
C8    C9    1.407881 A    
C43   H22   1.112883 S    
N13   O29   1.296452 A    
Cu1   Cu2   2.734329 S    
C19   C20   1.393007 A    
C27   C28   1.415353 A    
C22   H7    1.082777 S    
Cu1   O7    1.936881 S    
N10   O24   1.291580 A    
C15   C16   1.394192 A    
C39   H20   1.119046 S    
Cu2   N3    2.053864 S    
C17   N2    1.371450 A    
C31   N6    1.475457 S    
C28   N5    1.436405 S    
O4    C2    1.313853 A    
O7    C4    1.310462 A    
C31   C36   1.605026 S    
C10   H1    1.083186 S    
C16   H4    1.083225 S    
C31   H12   1.112564 S    
C5    N1    1.371011 A    
C25   C30   1.398568 A    
N11   O25   1.293132 A    
C7    C8    1.408863 A    
O5    C3    1.305906 A    
C33   H14   1.111348 S    
C28   C29   1.400205 A    
N12   O27   1.293656 A    
C17   O11   1.349505 S    
N1    C6    1.370422 A    
C25   C26   1.393615 A    
N7    O18   1.301452 A    
C43   H24   1.110872 S    
C12   C13   1.408086 A    
H19   C38   1.109205 S    
C35   C36   1.615641 S    
C40   N11   1.495737 S    
N6    O16   1.299810 A    
C10   C11   1.396224 A    
C20   C21   1.405556 A    
C39   N3    1.533764 S    
O3    Cu1   1.940067 S    
C44   N4    1.503321 S    
C22   C23   1.395080 A    
C23   C24   1.402306 A    
C5    C9    1.401379 A    
C11   H2    1.083183 S    
C34   H17   1.112412 S    
C32   H13   1.116211 S    
C39   C40   1.585339 S    
C33   H16   1.112095 S    
N2    C24   1.437335 S    
C26   H10   1.082238 S    
C13   C14   1.408265 A    
C43   N3    1.507563 S    
C19   H5    1.082986 S    
C41   C42   1.588366 S    
C43   C44   1.601239 S    
C14   C15   1.404761 A    
O1    C1    1.318754 A    
C1    C36   1.527914 S    
C21   C22   1.405016 A    
N2    C18   1.371138 A    
C41   N12   1.477861 S    
C41   N3    1.509670 S    
N5    O14   1.301558 A    
N8    O19   1.302616 A    
Cu2   O8    1.939656 S    
N7    O17   1.297235 A    
C35   C38   1.591491 S    
C6    C7    1.404658 A    
C33   C37   1.543628 S    
N12   O28   1.300005 A    
C12   C17   1.404141 A    
N9    O22   1.302470 A    
C40   H21   1.112749 S    
C44   H25   1.113033 S    
O3    C2    1.313157 A    
N8    O20   1.299983 A    
C3    C37   1.498299 S    
O8    C4    1.310915 A    
C2    C21   1.471651 S    
C29   C30   1.399728 A    
C32   N7    1.468716 S    
C35   N8    1.476426 S    
C41   H26   1.099056 S    
C14   C18   1.402063 A    
Cu1   O5    2.002441 S    
C23   H8    1.082917 S    
O1    Cu1   2.003845 S    
O2    Cu2   2.001996 S    
C37   C38   1.555522 S    
O6    C3    1.316686 A    
O4    Cu2   1.937301 S    
N13   O30   1.297412 A    
C35   N9    1.474275 S    
C15   H3    1.083220 S    
C5    O9    1.349912 S    
C9    C16   1.404791 A    
N10   O23   1.302873 A    
C32   C34   1.525358 S    
C18   O12   1.349799 S    
C8    C13   1.411597 A    
H18   C38   1.112382 S    
C39   N10   1.467172 S    
C42   N4    1.512419 S    
C40   N4    1.504303 S    
N5    O13   1.298919 A    
N11   O26   1.297650 A    
O2    C1    1.317550 A    
N1    C30   1.436147 S    
N9    O21   1.302752 A    
C42   H27   1.109709 S    
C4    C27   1.464711 S    
C34   C37   1.526753 S    
Cu2   O6    2.004289 S    
C25   H9    1.082761 S    
C42   N13   1.479812 S    
C6    O10   1.349331 S    
C11   C12   1.405584 A    
C26   C27   1.402760 A    
C44   H23   1.112478 S    
C32   C36   1.605109 S    
C19   C24   1.401314 A    
