data_mof_unit_47288.cif
_audit_creation_date              2012-12-11T14:19:32-0500
_audit_creation_method            fapswitch 2.2
_symmetry_space_group_name_H-M    P1
_symmetry_Int_Tables_number       1
_space_group_crystal_system       triclinic
_cell_length_a                    19.33367
_cell_length_b                    7.241505
_cell_length_c                    17.786045
_cell_angle_alpha                 89.999823
_cell_angle_beta                  107.693427
_cell_angle_gamma                 89.999733
_cell_volume                      2372.34051712

loop_
_atom_site_label
_atom_site_type_symbol
_atom_type_description
_atom_site_fract_x
_atom_site_fract_y
_atom_site_fract_z
_atom_type_partial_charge
O1    O     O_R   0.414820 0.494320 0.416790 -0.540149
O2    O     O_R   0.585180 0.994320 0.583210 -0.540172
O3    O     O_R   0.560270 0.819500 0.430140 -0.543361
O4    O     O_R   0.439730 0.319500 0.569860 -0.543359
C1    C     C_R   0.581623 0.655540 0.415191 0.710213
C2    C     C_R   0.418378 0.155540 0.584809 0.710246
O5    O     O_R   0.413840 0.823740 0.407440 -0.537919
O6    O     O_R   0.586160 0.323740 0.592560 -0.537934
O7    O     O_R   0.437710 0.998590 0.560350 -0.540750
O8    O     O_R   0.562290 0.498590 0.439650 -0.540751
C3    C     C_R   0.386981 0.654835 0.386043 0.763454
C4    C     C_R   0.613020 0.154835 0.613954 0.763448
O9    O     O_3   0.508000 0.662290 0.550200 -0.380734
O10   O     O_3   0.492000 0.162290 0.449800 -0.380720
V1    V     V_3+5 0.498520 0.935380 0.490690 1.395301
V2    V     V_3+5 0.501480 0.435380 0.509310 1.395291
C5    C     C_2   0.796521 0.270668 0.773010 0.441800
C6    C     C_2   0.203427 0.770567 0.227057 0.441656
C7    C     C_2   0.819453 0.117286 0.817852 -0.380352
C8    C     C_2   0.180542 0.617267 0.182145 -0.380621
H1    H     H_    0.787115 0.992430 0.806841 0.106454
H2    H     H_    0.212922 0.492480 0.193095 0.106549
C9    C     C_2   0.723757 0.283510 0.711344 -0.230792
C10   C     C_2   0.276184 0.783460 0.288725 -0.230525
C11   C     C_2   0.682247 0.137861 0.678697 -0.367576
C12   C     C_2   0.317766 0.637852 0.321283 -0.367682
H3    H     H_    0.705400 0.421115 0.690145 0.158265
H4    H     H_    0.294463 0.921051 0.310023 0.158377
H5    H     H_    0.700871 0.998710 0.696189 0.139998
H6    H     H_    0.299206 0.498699 0.303710 0.140070
C13   C     C_R   0.322746 0.299716 0.634596 -0.220538
C14   C     C_R   0.677256 0.799717 0.365406 -0.220561
C15   C     C_R   0.368097 0.148185 0.633308 -0.078409
C16   C     C_R   0.631905 0.648185 0.366694 -0.078397
C17   C     C_R   0.364669 0.990001 0.677989 -0.220014
C18   C     C_R   0.635334 0.490002 0.322014 -0.220003
C19   C     C_R   0.317537 0.983628 0.724443 0.089596
C20   C     C_R   0.682467 0.483628 0.275560 0.089592
C21   C     C_R   0.271985 0.135757 0.724994 0.055935
C22   C     C_R   0.728018 0.635758 0.275009 0.055934
C23   C     C_R   0.274262 0.293784 0.679437 0.089818
C24   C     C_R   0.725740 0.793784 0.320565 0.089827
C25   C     C_R   0.315342 0.828044 0.770680 -0.189153
C26   C     C_R   0.684662 0.328045 0.229324 -0.189157
C27   C     C_R   0.268114 0.822445 0.816640 -0.186070
C28   C     C_R   0.731891 0.322446 0.183364 -0.186071
C29   C     C_R   0.222143 0.972181 0.817081 0.086361
C30   C     C_R   0.777861 0.472181 0.182923 0.086351
C31   C     C_R   0.224187 0.129973 0.771315 0.055483
C32   C     C_R   0.775817 0.629973 0.228689 0.055523
C33   C     C_R   0.178697 0.282159 0.771999 0.092635
C34   C     C_R   0.821306 0.782159 0.228005 0.092627
C35   C     C_R   0.180557 0.437286 0.725359 -0.193864
C36   C     C_R   0.819444 0.937289 0.274642 -0.193974
C37   C     C_R   0.227911 0.443023 0.679484 -0.189752
C38   C     C_R   0.772090 0.943024 0.320517 -0.189684
C39   C     C_R   0.174516 0.967143 0.862846 -0.214352
C40   C     C_R   0.825487 0.467144 0.137158 -0.214301
C41   C     C_R   0.129673 0.119212 0.864867 -0.076527
C42   C     C_R   0.870330 0.619212 0.135136 -0.076502
C43   C     C_R   0.132252 0.276542 0.819291 -0.224344
C44   C     C_R   0.867753 0.776541 0.180712 -0.224555
H7    H     H_    0.324428 0.421570 0.599766 0.124451
H8    H     H_    0.675573 0.921571 0.400235 0.124439
H9    H     H_    0.399497 0.872891 0.677579 0.130309
H10   H     H_    0.600507 0.372892 0.322423 0.130307
H11   H     H_    0.350084 0.710316 0.771191 0.135633
H12   H     H_    0.649920 0.210317 0.228812 0.135635
H13   H     H_    0.267443 0.700576 0.851768 0.136443
H14   H     H_    0.732562 0.200577 0.148236 0.136454
H15   H     H_    0.173316 0.845592 0.898027 0.128502
H16   H     H_    0.826686 0.345593 0.101976 0.128499
H17   H     H_    0.097581 0.393798 0.819922 0.128152
H18   H     H_    0.902425 0.893795 0.180083 0.128321
H19   H     H_    0.145696 0.554847 0.724744 0.136754
H20   H     H_    0.854300 0.054855 0.275253 0.136797
H21   H     H_    0.228568 0.564864 0.644340 0.134043
H22   H     H_    0.771432 0.064867 0.355660 0.134040
O11   O     O_R   0.937810 0.773680 0.060480 -0.540922
O12   O     O_R   0.062190 0.273680 0.939520 -0.540955
O13   O     O_R   0.086190 0.439740 0.092580 -0.546544
O14   O     O_R   0.913810 0.939740 0.907420 -0.546701
C45   C     C_R   0.112113 0.608894 0.115346 0.755470
C46   C     C_R   0.887884 0.108897 0.884656 0.755465
O15   O     O_R   0.939760 0.444210 0.069890 -0.546772
O16   O     O_R   0.060240 0.944210 0.930110 -0.546765
O17   O     O_R   0.914790 0.269640 0.916760 -0.502080
O18   O     O_R   0.085210 0.769640 0.083240 -0.502142
C47   C     C_R   0.919388 0.612429 0.085223 0.698051
C48   C     C_R   0.080613 0.112428 0.914778 0.698025
O19   O     O_3   0.992050 0.601530 0.949880 -0.381860
O20   O     O_3   0.007950 0.101530 0.050120 -0.381880
V3    V     V_3+5 0.001480 0.328340 0.009300 1.430494
V4    V     V_3+5 0.998520 0.828340 0.990700 1.430370
O21   O     O_3   0.839642 0.427706 0.787825 -0.554472
C49   C     C_3   0.867608 0.457424 0.724059 0.067347
H23   H     H_    0.824144 0.510983 0.672067 0.114274
H24   H     H_    0.890483 0.327584 0.707354 0.104558
C50   C     C_3   0.928625 0.600124 0.748492 -0.245922
H25   H     H_    0.907264 0.730871 0.765599 0.198067
H26   H     H_    0.972245 0.547199 0.800188 0.206281
C51   C     C_3   0.961064 0.639301 0.681901 -0.890528
H27   H     H_    0.984333 0.511026 0.665214 0.236403
H28   H     H_    0.005142 0.743125 0.701905 0.234992
H29   H     H_    0.918829 0.694742 0.629506 0.238481
O22   O     O_3   0.160248 0.927497 0.212367 -0.554492
C52   C     C_3   0.131913 0.955946 0.275940 0.067769
H30   H     H_    0.175265 0.007954 0.328398 0.114200
H31   H     H_    0.108595 0.825869 0.291816 0.104473
C53   C     C_3   0.071254 0.099658 0.251805 -0.246334
H32   H     H_    0.093068 0.230657 0.235516 0.197593
H33   H     H_    0.027739 0.048306 0.199654 0.206652
C54   C     C_3   0.038429 0.137407 0.318213 -0.890450
H34   H     H_    0.014662 0.008920 0.334026 0.236345
H35   H     H_    0.994664 0.242132 0.298461 0.234963
H36   H     H_    0.080564 0.191112 0.371099 0.238585

loop_
_geom_bond_atom_site_label_1
_geom_bond_atom_site_label_2
_ccdc_geom_bond_type
O4    V2    S    
O14   V4    S    
O21   C49   S    
O1    C3    A    
C46   O17   A    
O2    C4    A    
C2    O7    A    
C29   C31   A    
C42   C47   S    
O5    C3    A    
C5    C9    S    
C6    C10   S    
C7    H1    S    
C10   C12   D    
C37   H21   S    
C18   H10   S    
C39   C41   A    
O22   C52   S    
C17   H9    S    
C40   C42   A    
C49   C50   S    
C38   H22   S    
C51   H29   S    
C42   C44   A    
C27   C29   A    
C53   H32   S    
C23   C37   A    
O16   V4    S    
C24   C38   A    
O15   V3    S    
C26   C28   A    
C31   C33   A    
C49   H24   S    
C32   C34   A    
C52   H30   S    
C13   C15   A    
C5    O21   S    
C9    H3    S    
C16   C18   A    
C54   H36   S    
C30   C32   A    
C45   O18   A    
O6    V2    S    
C1    C16   S    
C52   H31   S    
C35   H19   S    
O13   C45   A    
C34   C36   A    
C28   C30   A    
C35   C37   A    
C11   H5    S    
C36   C38   A    
C41   C43   A    
O11   C47   A    
C27   H13   S    
C13   H7    S    
C14   H8    S    
O11   V4    S    
C21   C23   A    
O16   C48   A    
O15   C47   A    
C5    C7    D    
O5    V1    S    
C3    C12   S    
C43   H17   S    
C33   C35   A    
C41   C48   S    
C14   C16   A    
C19   C25   A    
C6    O22   S    
C20   C26   A    
C29   C39   A    
O13   V3    S    
C50   H25   S    
O6    C4    A    
C49   H23   S    
O1    V2    S    
C39   H15   S    
C51   H28   S    
O2    V1    S    
C25   C27   A    
C53   C54   S    
C36   H20   S    
O4    C2    A    
C21   C31   A    
C8    H2    S    
C12   H6    S    
O14   C46   A    
C52   C53   S    
C26   H12   S    
C7    C46   S    
O3    V1    S    
C54   H34   S    
C13   C23   A    
C17   C19   A    
C10   H4    S    
O3    C1    A    
O9    V2    S    
C30   C40   A    
C2    C15   S    
C4    C11   S    
C18   C20   A    
O7    V1    S    
C1    O8    A    
C19   C21   A    
O8    V2    S    
O19   V4    S    
C20   C22   A    
C33   C43   A    
C40   H16   S    
C22   C32   A    
O17   V3    S    
C22   C24   A    
O20   V3    S    
C15   C17   A    
C6    C8    D    
C9    C11   D    
O12   C48   A    
C51   H27   S    
C53   H33   S    
C28   H14   S    
C50   C51   S    
C25   H11   S    
C8    C45   S    
O18   V4    S    
C14   C24   A    
O10   V1    S    
C44   H18   S    
C34   C44   A    
O12   V3    S    
C50   H26   S    
C54   H35   S    
