data_mof_unit_36853.cif
_audit_creation_date              2012-12-10T17:28:36-0500
_audit_creation_method            fapswitch 2.2
_symmetry_space_group_name_H-M    P1
_symmetry_Int_Tables_number       1
_space_group_crystal_system       triclinic
_cell_length_a                    10.548808
_cell_length_b                    12.012712
_cell_length_c                    12.797813
_cell_angle_alpha                 95.216388
_cell_angle_beta                  89.307248
_cell_angle_gamma                 83.510689
_cell_volume                      1604.26219537

loop_
_atom_site_label
_atom_site_type_symbol
_atom_type_description
_atom_site_fract_x
_atom_site_fract_y
_atom_site_fract_z
_atom_type_partial_charge
C1    C     C_R   0.496433 0.524020 0.700799 1.051058
C2    C     C_R   0.429203 0.536632 0.132954 0.385191
C3    C     C_R   0.546565 0.459101 0.973530 -0.159110
C4    C     C_R   0.459708 0.544891 0.028177 -0.140110
C5    C     C_R   0.412674 0.949399 0.383078 -0.237328
C6    C     C_R   0.611307 0.046388 0.601469 -0.265315
C7    C     C_R   0.415527 0.835329 0.398049 -0.019174
C8    C     C_R   0.599858 0.161999 0.592325 -0.028818
C9    C     C_R   0.539647 0.859626 0.550355 0.583141
C10   C     C_R   0.459799 0.141138 0.449183 0.599952
C11   C     C_R   0.539510 0.976249 0.537524 -0.059499
C12   C     C_R   0.499672 0.475798 0.299357 0.990759
C13   C     C_R   0.468708 0.022790 0.456228 -0.078987
C14   C     C_R   0.740701 0.494375 0.485308 0.927765
C15   C     C_R   0.258617 0.505313 0.512395 0.924096
C16   C     C_R   0.919174 0.286067 0.513836 -0.215511
C17   C     C_R   0.079946 0.713062 0.477924 -0.189659
C18   C     C_R   0.983295 0.210718 0.576849 -0.278100
C19   C     C_R   0.011944 0.790068 0.418685 -0.249214
C20   C     C_R   0.080842 0.244239 0.640242 0.418892
C21   C     C_R   0.911206 0.758104 0.358349 0.447489
C22   C     C_R   0.122250 0.350425 0.632841 0.336371
C23   C     C_R   0.501413 0.457406 0.187004 -0.278134
C24   C     C_R   0.871889 0.651047 0.364166 0.351875
C25   C     C_R   0.066487 0.421826 0.558712 -0.076010
C26   C     C_R   0.931148 0.577836 0.435208 -0.064782
C27   C     C_R   0.953764 0.396181 0.511076 0.056849
C28   C     C_R   0.045452 0.602692 0.480964 0.052804
C29   C     C_R   0.120639 0.516411 0.528599 -0.161736
C30   C     C_R   0.878006 0.482444 0.464498 -0.163142
C31   C     C_3   0.758971 0.287250 0.210652 0.136374
C32   C     C_3   0.818654 0.175826 0.245804 -0.667992
C33   C     C_3   0.190373 0.690569 0.844929 0.182086
C34   C     C_R   0.492423 0.541454 0.813394 -0.288233
C35   C     C_3   0.100366 0.731531 0.761433 -0.770660
C36   C     C_3   0.265396 0.198978 0.380590 0.093113
C37   C     C_3   0.203248 0.277975 0.304535 -0.681295
C38   C     C_3   0.550367 0.840364 0.726061 0.073330
C39   C     C_3   0.636394 0.795222 0.810891 -0.669078
C40   C     C_R   0.403355 0.635012 0.975490 0.348877
C41   C     C_R   0.598140 0.365692 0.025537 0.397869
C42   C     C_R   0.401337 0.622144 0.866182 0.327661
C43   C     C_R   0.581999 0.368714 0.134074 0.348898
C44   C     C_R   0.574650 0.468936 0.868074 0.367531
Cl1   Cl    Cl    0.834575 0.854710 0.277461 -0.529561
Cl2   Cl    Cl    0.152577 0.149791 0.725380 -0.527687
Cl3   Cl    Cl    0.230937 0.397566 0.725702 -0.583968
Cl4   Cl    Cl    0.763707 0.603762 0.270803 -0.601959
Cl5   Cl    Cl    0.285384 0.606835 0.193057 -0.567517
Cl6   Cl    Cl    0.719991 0.405472 0.805863 -0.539780
Cl7   Cl    Cl    0.361930 0.770933 0.040979 -0.517863
Cl8   Cl    Cl    0.666373 0.237004 0.958516 -0.461775
H1    H     H_    0.368824 0.978172 0.313065 0.213978
H2    H     H_    0.815825 0.306709 0.141953 0.182932
H3    H     H_    0.819329 0.108505 0.180213 0.304222
H4    H     H_    0.918317 0.182873 0.269987 0.180964
H5    H     H_    0.762958 0.152551 0.313121 0.251866
H6    H     H_    0.168932 0.749152 0.916496 0.220171
H7    H     H_    0.169047 0.604930 0.861296 0.188598
H8    H     H_    0.112749 0.670953 0.691012 0.250906
H9    H     H_    0.999956 0.737331 0.790444 0.230423
H10   H     H_    0.121008 0.815616 0.740810 0.269729
H11   H     H_    0.235764 0.231875 0.461739 0.142084
H12   H     H_    0.676224 0.012912 0.658711 0.203486
H13   H     H_    0.226944 0.117220 0.364991 0.124781
H14   H     H_    0.223270 0.241014 0.222482 0.269213
H15   H     H_    0.098455 0.291157 0.318827 0.187390
H16   H     H_    0.240959 0.360730 0.314748 0.261139
H17   H     H_    0.458361 0.804813 0.728261 0.224038
H18   H     H_    0.528565 0.932567 0.745399 0.161886
H19   H     H_    0.724315 0.838186 0.814505 0.249881
H20   H     H_    0.585828 0.810900 0.888308 0.254664
H21   H     H_    0.664036 0.703465 0.793390 0.252170
H22   H     H_    0.844390 0.256199 0.465822 0.183017
H23   H     H_    0.155791 0.743334 0.524546 0.187318
H24   H     H_    0.954156 0.127304 0.578714 0.190508
H25   H     H_    0.040262 0.873857 0.417495 0.178087
H26   H     H_    0.653512 0.215382 0.643116 0.216827
H27   H     H_    0.370521 0.780570 0.341996 0.224639
H28   H     H_    0.764211 0.354096 0.275954 0.136505
N1    N     N_R   0.523130 0.207800 0.519340 -0.144586
N2    N     N_R   0.476870 0.792200 0.480660 -0.146771
O1    O     O_R   0.506170 0.421700 0.658830 -0.560847
O2    O     O_3   0.318305 0.691023 0.809756 -0.620697
O3    O     O_3   0.399535 0.188818 0.365609 -0.567369
O4    O     O_3   0.612217 0.811001 0.627053 -0.608561
O5    O     O_R   0.493830 0.578300 0.341170 -0.565395
O6    O     O_R   0.491330 0.609310 0.646410 -0.596776
O7    O     O_R   0.508670 0.390690 0.353590 -0.560352
O8    O     O_R   0.690650 0.406190 0.506220 -0.639901
O9    O     O_R   0.309350 0.593810 0.493780 -0.632677
O10   O     O_R   0.675800 0.593810 0.493800 -0.557171
O11   O     O_R   0.324200 0.406190 0.506200 -0.605368
O12   O     O_3   0.630379 0.277552 0.186021 -0.534521
Zn1   Zn    Zn3+2 0.509910 0.374730 0.508290 1.033135
Zn2   Zn    Zn3+2 0.490090 0.625270 0.491710 1.036451

loop_
_geom_bond_atom_site_label_1
_geom_bond_atom_site_label_2
_ccdc_geom_bond_type
O6    Zn2   S    
C10   O3    S    
C33   H6    S    
C34   C42   A    
C38   H18   S    
C31   H28   S    
C12   C23   S    
C38   O4    S    
C16   H22   S    
C5    H1    S    
C28   C29   A    
C19   C21   A    
C24   C26   A    
C38   C39   S    
N1    Zn1   S    
C37   H16   S    
O10   Zn2   S    
C43   O12   S    
C23   C43   A    
C6    H12   S    
C19   H25   S    
C14   O8    A    
C33   C35   S    
O9    Zn2   S    
C3    C41   A    
C4    C40   A    
C22   C25   A    
C39   H20   S    
C36   H11   S    
C32   H3    S    
C5    C13   A    
C9    N2    A    
C1    O6    A    
C40   C42   A    
C22   Cl3   S    
C38   H17   S    
C33   H7    S    
C37   H14   S    
C27   C30   A    
C8    H26   S    
C41   C43   A    
C32   H5    S    
C14   C30   S    
C1    C34   S    
C15   C29   S    
C21   Cl1   S    
C25   C29   A    
C3    C44   A    
N2    Zn2   S    
C8    N1    A    
C24   Cl4   S    
C12   O7    A    
O8    Zn1   S    
C42   O2    S    
C6    C11   A    
C5    C7    A    
C36   H13   S    
C6    C8    A    
C35   H8    S    
O7    Zn1   S    
C2    C4    A    
C2    Cl5   S    
C9    O4    S    
C31   C32   S    
O1    Zn1   S    
O5    Zn2   S    
C34   C44   A    
C35   H9    S    
C9    C11   A    
C14   O10   A    
C20   C22   A    
C26   C30   A    
C1    O1    A    
C3    C4    A    
C40   Cl7   S    
C7    H27   S    
C44   Cl6   S    
C36   C37   S    
C18   H24   S    
C41   Cl8   S    
C12   O5    A    
C17   C28   A    
C10   C13   A    
C15   O11   A    
C36   O3    S    
C25   C27   A    
C31   O12   S    
C10   N1    A    
C26   C28   A    
C11   C13   A    
O11   Zn1   S    
C16   C27   A    
C37   H15   S    
C17   C19   A    
C35   H10   S    
C18   C20   A    
C39   H21   S    
C31   H2    S    
C33   O2    S    
C15   O9    A    
C7    N2    A    
C16   C18   A    
C21   C24   A    
C2    C23   A    
C17   H23   S    
C39   H19   S    
C32   H4    S    
C20   Cl2   S    
