data_mof_unit_66646.cif
_audit_creation_date              2013-03-05T15:41:05-0500
_audit_creation_method            fapswitch 2.2
_symmetry_space_group_name_H-M    P1
_symmetry_Int_Tables_number       1
_space_group_crystal_system       triclinic
_cell_length_a                    8.413492
_cell_length_b                    14.306938
_cell_length_c                    15.262111
_cell_angle_alpha                 93.490445
_cell_angle_beta                  100.525481
_cell_angle_gamma                 90.961007
_cell_volume                      1802.12946392

loop_
_atom_site_label
_atom_site_type_symbol
_atom_site_description
_atom_site_fract_x
_atom_site_fract_y
_atom_site_fract_z
_atom_type_partial_charge
P1    P     P_3+3 0.947560 0.714050 0.560480 0.484399
O1    O     O_2   0.113690 0.728200 0.532750 -0.343524
O2    O     O_3   0.871900 0.612110 0.540440 -0.418880
O3    O     O_3   0.325660 0.668890 0.372600 -0.389290
O4    O     O_2   0.232996 0.832598 0.434371 -0.390376
O5    O     O_3   0.002811 0.736400 0.676311 -0.509871
O6    O     O_3   0.261665 0.837151 0.268238 -0.612419
H1    H     H_    0.218490 0.702577 0.205959 0.037268
C1    C     C_3   0.161545 0.808678 0.110268 -0.949678
H2    H     H_    0.032957 0.809885 0.114290 0.263261
H3    H     H_    0.201248 0.880870 0.099475 0.260667
P2    P     P_3+3 0.325150 0.423860 0.297970 0.565579
P3    P     P_3+3 0.855957 0.614091 0.214179 0.559191
O7    O     O_2   0.147570 0.451710 0.282630 -0.294127
O8    O     O_3   0.905540 0.621350 0.329600 -0.424424
O9    O     O_2   0.006116 0.576801 0.180238 -0.343238
O10   O     O_3   0.281627 0.303227 0.277205 -0.587260
O11   O     O_3   0.840543 0.730625 0.183143 -0.496274
C2    C     C_3   0.887955 0.792458 0.260006 0.548918
H4    H     H_    0.009580 0.776361 0.295108 0.099593
H5    H     H_    0.806785 0.784951 0.308566 0.104565
C3    C     C_3   0.886067 0.894875 0.235898 -0.900535
H6    H     H_    0.009550 0.926969 0.250020 0.255856
H7    H     H_    0.834694 0.901509 0.164277 0.313227
C4    C     C_3   0.917325 0.247683 0.277194 0.908719
H8    H     H_    0.026716 0.289482 0.306671 0.072028
C5    C     C_3   0.951706 0.143004 0.274751 -1.006903
H9    H     H_    0.836485 0.101441 0.257334 0.269404
H10   H     H_    0.028385 0.124381 0.224853 0.269809
H11   H     H_    0.019260 0.123704 0.339829 0.221797
Ba1   Ba    Ba6+2 0.142880 0.544780 0.454020 1.678103
C6    C     C_3   0.055679 0.654188 0.716624 0.418533
H12   H     H_    0.153151 0.623264 0.685490 0.094584
H13   H     H_    0.954052 0.602300 0.710091 0.105784
C7    C     C_3   0.119777 0.677983 0.815809 -0.829990
H14   H     H_    0.227983 0.725373 0.824901 0.311063
H15   H     H_    0.152310 0.613387 0.850530 0.200502
H16   H     H_    0.027072 0.713359 0.847958 0.258692
C8    C     C_3   0.409669 0.248089 0.311096 0.721686
H17   H     H_    0.524541 0.287774 0.319285 0.064562
C9    C     C_3   0.413873 0.163734 0.245005 -0.822287
H18   H     H_    0.311973 0.113477 0.244792 0.243566
H19   H     H_    0.529670 0.127062 0.261960 0.230624
H20   H     H_    0.400814 0.187992 0.176761 0.311341
P4    P     P_3+3 0.862730 0.285940 0.439440 0.457664
O12   O     O_2   0.696600 0.271740 0.467230 -0.337365
O13   O     O_3   0.938380 0.387880 0.459490 -0.378368
O14   O     O_3   0.484630 0.331100 0.627330 -0.305013
O15   O     O_3   0.793474 0.267435 0.324527 -0.655388
P5    P     P_3+3 0.959456 0.380946 0.786142 0.518806
O16   O     O_3   0.389110 0.548970 0.605210 -0.388570
O17   O     O_3   0.904740 0.378630 0.670330 -0.378880
O18   O     O_2   0.856934 0.456390 0.824623 -0.331844
O19   O     O_3   0.894855 0.276446 0.822900 -0.487817
Ba2   Ba    Ba6+2 0.667290 0.455210 0.545900 1.654602
P6    P     P_3+3 0.343324 0.791885 0.372035 0.500750
C10   C     C_3   0.264354 0.772930 0.194510 0.964433
H21   H     H_    0.170607 0.762026 0.050584 0.261253
O20   O     O_3   0.421180 0.451020 0.394720 -0.361525
C11   C     C_3   0.542078 0.744348 0.687765 0.753981
H22   H     H_    0.566263 0.703700 0.627120 -0.011609
C12   C     C_3   0.700203 0.785195 0.740543 -0.654177
H23   H     H_    0.777926 0.727163 0.764212 0.191396
H24   H     H_    0.760068 0.828782 0.698036 0.270401
H25   H     H_    0.679252 0.827389 0.800472 0.307635
P7    P     P_3+3 0.480944 0.571822 0.717369 0.439096
O21   O     O_2   0.662730 0.548230 0.717350 -0.381007
O22   O     O_3   0.471684 0.691153 0.745623 -0.605453
H26   H     H_    0.812433 0.936190 0.276705 0.240097
C13   C     C_3   0.984232 0.202943 0.792839 0.139678
H27   H     H_    0.960701 0.195495 0.718507 0.111852
H28   H     H_    0.115318 0.214855 0.819201 0.058380
C14   C     C_3   0.928694 0.113732 0.828947 0.224475
H29   H     H_    0.797297 0.111987 0.814209 0.166060
H30   H     H_    0.964947 0.115014 0.902425 0.124793
P8    P     P_3+3 0.462533 0.210406 0.637189 0.573581
C15   C     C_3   0.449148 0.182810 0.804455 -0.089780
H31   H     H_    0.336357 0.144650 0.773419 0.111114
O23   O     O_2   0.576993 0.166686 0.578225 -0.289876
O24   O     O_3   0.558783 0.185791 0.745010 -0.515565
H32   H     H_    0.420259 0.255705 0.824109 0.112699
C16   C     C_3   0.529972 0.133861 0.888407 0.696705
H33   H     H_    0.650827 0.167970 0.912348 0.053367
C17   C     C_R   0.018795 0.938690 0.539421 0.032822
C18   C     C_R   0.818479 0.804494 0.500906 0.167295
C19   C     C_R   0.662411 0.774084 0.459616 -0.431957
C20   C     C_R   0.550881 0.835852 0.417995 0.407341
C21   C     C_R   0.595468 0.929975 0.414755 -0.206349
C22   C     C_R   0.751300 0.963882 0.455158 0.054246
C23   C     C_R   0.864870 0.901426 0.498909 -0.033921
H34   H     H_    0.625368 0.701602 0.461878 0.167830
C24   C     C_R   0.944008 0.097815 0.498296 -0.031162
C25   C     C_R   0.058717 0.035107 0.539940 0.089249
C26   C     C_R   0.986702 0.195768 0.503155 0.172143
C27   C     C_R   0.134380 0.227684 0.556045 -0.332680
C28   C     C_R   0.251799 0.165251 0.591636 0.199918
C29   C     C_R   0.213627 0.069218 0.581935 -0.154377
C30   C     C_R   0.792544 0.060009 0.453631 -0.122433
H35   H     H_    0.507712 0.976722 0.381507 0.189121
H36   H     H_    0.304661 0.020753 0.606684 0.182310
H37   H     H_    0.163888 0.301987 0.563427 0.168733
H38   H     H_    0.107113 0.894157 0.574332 0.214297
H39   H     H_    0.703985 0.104884 0.418600 0.173893
C31   C     C_R   0.256944 0.451590 0.763834 -0.477196
C32   C     C_R   0.174618 0.412120 0.823380 0.125295
C33   C     C_R   0.246964 0.410701 0.912982 -0.127006
C34   C     C_R   0.387127 0.466868 0.950185 0.123485
C35   C     C_R   0.461470 0.513279 0.887753 -0.231232
C36   C     C_R   0.399691 0.502135 0.795562 0.310115
C37   C     C_R   0.608490 0.522178 0.082817 -0.151173
C38   C     C_R   0.668597 0.541708 0.174118 0.403411
C39   C     C_R   0.424042 0.473896 0.210308 0.056336
C40   C     C_R   0.357625 0.460282 0.118099 0.232782
C41   C     C_R   0.450689 0.482122 0.051257 -0.020238
C42   C     C_R   0.578551 0.514311 0.236875 -0.431440
H40   H     H_    0.687402 0.540137 0.037836 0.160735
H41   H     H_    0.187847 0.364816 0.949978 0.222513
H42   H     H_    0.562650 0.561736 0.908704 0.159709
H43   H     H_    0.628396 0.526025 0.307333 0.181985
H44   H     H_    0.202127 0.450837 0.693849 0.152581
N1    N     N_R   0.383341 0.219111 0.396920 0.222741
O25   O     O_R   0.361100 0.131566 0.411485 -0.472976
O26   O     O_R   0.359483 0.284016 0.455646 -0.381641
S1    S     S_3+6 0.463098 0.765791 0.174153 -0.054335
O27   O     O_2   0.555654 0.713902 0.247948 -0.390128
O28   O     O_2   0.467622 0.714227 0.085876 -0.320197
O29   O     O_3   0.539320 0.875209 0.175736 -0.528077
H45   H     H_    0.503167 0.895446 0.114530 0.393470
N2    N     N_R   0.435425 0.820033 0.658476 0.227239
O30   O     O_R   0.468905 0.872929 0.597650 -0.465362
O31   O     O_R   0.314819 0.840300 0.698087 -0.314853
S2    S     S_3+6 0.986174 0.008498 0.776285 0.021706
O32   O     O_2   0.870238 0.989859 0.689687 -0.263002
O33   O     O_2   0.154398 0.015839 0.757989 -0.294331
O34   O     O_3   0.974135 0.919277 0.841689 -0.450609
H46   H     H_    0.057322 0.934200 0.895831 0.379990
S3    S     S_3+6 0.427185 0.147994 0.980117 -0.000255
O35   O     O_2   0.529042 0.105904 0.058523 -0.230975
O36   O     O_2   0.406175 0.250018 0.001762 -0.317769
O37   O     O_3   0.246535 0.092261 0.957935 -0.544994
H47   H     H_    0.211819 0.090745 0.016482 0.373096
S4    S     S_3+6 0.556584 0.010634 0.866909 0.028839
O38   O     O_2   0.700835 0.980952 0.931562 -0.264079
O39   O     O_2   0.411544 0.953334 0.878679 -0.182565
O40   O     O_3   0.589701 0.989366 0.762821 -0.485752
H48   H     H_    0.488039 0.005669 0.724533 0.376779
N3    N     N_R   0.197164 0.422408 0.094537 0.254621
O41   O     O_R   0.082955 0.471467 0.051591 -0.351840
O42   O     O_R   0.172642 0.333355 0.100868 -0.303629
S5    S     S_3+6 0.845997 0.281034 0.166035 0.050291
O43   O     O_2   0.894544 0.380867 0.158219 -0.259513
O44   O     O_2   0.909586 0.219285 0.097751 -0.216144
O45   O     O_3   0.644265 0.272698 0.144554 -0.459574
H49   H     H_    0.608924 0.326325 0.179277 0.312018

loop_
_geom_bond_atom_site_label_1
_geom_bond_atom_site_label_2
_geom_bond_distance
_ccdc_geom_bond_type
O14   Ba2   2.816761 S    
P7    O22   1.741787 S    
C20   C21   1.398035 A    
C4    S5    1.789464 S    
C9    H18   1.109078 S    
Ba2   O20   2.801503 S    
C5    H10   1.108020 S    
C17   H38   1.074497 S    
C14   H29   1.086697 S    
O14   P8    1.752139 S    
O4    P6    1.542513 D    
O5    C6    1.401976 S    
C27   C28   1.400537 A    
P8    O23   1.548146 D    
O7    Ba1   2.869183 S    
C16   S4    1.798788 S    
C31   H44   1.082671 S    
C29   H36   1.074285 S    
O40   H48   0.983945 S    
C24   C30   1.412725 A    
O34   H46   0.990187 S    
C8    C9    1.530194 S    
C15   H31   1.099938 S    
S3    O36   1.497412 D    
P5    O19   1.741168 S    
P3    O11   1.761217 S    
S1    O28   1.503170 D    
N3    O42   1.299474 A    
O11   C2    1.417282 S    
C16   S3    1.778072 S    
C19   H34   1.082186 S    
C31   C36   1.384046 A    
C33   C34   1.423653 A    
C30   H39   1.079584 S    
P1    Ba1   3.440229 S    
C35   C36   1.406435 A    
C11   C12   1.511750 S    
C1    H21   1.110901 S    
O10   C8    1.387439 S    
Ba1   O20   2.971996 S    
C37   C38   1.402100 A    
C39   C40   1.416459 A    
C12   H24   1.105219 S    
C40   C41   1.440095 A    
P2    O20   1.570950 S    
O2    Ba2   2.820453 S    
N3    O41   1.301581 A    
S2    O32   1.498909 D    
S5    O45   1.669604 S    
O12   Ba2   2.852828 S    
P5    C32   1.834431 S    
P5    O17   1.741342 S    
C34   C35   1.421583 A    
C13   H27   1.113589 S    
P4    O15   1.746540 S    
C1    H2    1.095118 S    
C37   C41   1.424890 A    
C3    H26   1.108829 S    
O16   Ba2   2.971200 S    
O17   Ba2   2.781846 S    
P7    O21   1.571825 D    
C14   S2    1.779243 S    
Ba1   O13   2.819924 S    
O3    P6    1.764140 S    
C5    H11   1.103731 S    
C14   H30   1.106028 S    
S4    O40   1.673196 S    
C17   C23   1.409906 A    
O6    P6    1.772912 S    
P4    C26   1.877547 S    
C31   C32   1.379822 A    
P4    O13   1.571363 S    
P1    C18   1.873542 S    
S3    O37   1.673018 S    
S1    O27   1.492237 D    
P5    O18   1.546972 D    
P1    O5    1.752003 S    
O3    Ba1   2.817296 S    
C6    C7    1.526782 S    
C35   H42   1.077631 S    
C7    H16   1.108182 S    
O37   H47   0.990816 S    
C8    H17   1.095848 S    
C19   C20   1.394041 A    
P6    C20   1.843666 S    
C4    H8    1.097536 S    
C18   C19   1.398469 A    
C11   H22   1.115137 S    
P1    O2    1.571384 S    
C7    H14   1.108806 S    
C6    H13   1.109367 S    
P2    O10   1.755852 S    
C34   C41   1.538450 S    
C12   H23   1.102676 S    
S5    O44   1.503407 D    
H1    C10   1.107044 S    
C38   C42   1.394932 A    
C25   C29   1.408203 A    
O19   C13   1.405579 S    
C15   H32   1.110753 S    
C28   C29   1.398504 A    
C2    C3    1.531967 S    
C13   C14   1.520130 S    
C24   C26   1.434995 A    
O2    Ba1   2.980441 S    
C1    H3    1.111177 S    
P4    Ba2   3.440811 S    
N1    O25   1.301711 A    
S1    O29   1.678848 S    
P2    O7    1.532759 D    
C42   H43   1.082255 S    
P3    O8    1.730810 S    
P2    Ba1   3.455217 S    
C9    H20   1.104903 S    
C3    H7    1.109979 S    
O29   H45   0.990468 S    
C37   H40   1.077222 S    
P2    C39   1.870312 S    
S4    O39   1.502633 D    
C7    H15   1.106772 S    
O13   Ba2   2.981143 S    
N2    O30   1.299155 A    
C32   C33   1.393091 A    
C15   O24   1.408864 S    
C33   H41   1.064869 S    
C12   H25   1.107830 S    
C2    H5    1.104247 S    
C3    H6    1.107609 S    
C9    H19   1.110400 S    
P8    O24   1.755284 S    
Ba1   O16   2.802202 S    
C11   N2    1.456876 S    
Ba2   O21   2.869494 S    
C18   C23   1.437987 A    
O8    Ba1   2.781138 S    
C4    C5    1.529591 S    
S3    O35   1.503118 D    
C8    N1    1.451096 S    
C22   C30   1.415350 A    
C6    H12   1.105894 S    
C40   N3    1.421228 S    
C2    H4    1.099912 S    
O45   H49   0.986725 S    
P3    C38   1.856662 S    
P8    C28   1.871046 S    
C10   S1    1.759168 S    
C15   C16   1.549654 S    
S2    O34   1.680431 S    
P1    O1    1.546225 D    
C24   C25   1.419385 A    
O6    C10   1.412444 S    
C1    C10   1.533435 S    
C17   C25   1.413450 A    
P7    C36   1.818128 S    
C26   C27   1.404829 A    
C4    O15   1.395555 S    
N1    O26   1.294814 A    
C21   H35   1.082087 S    
P4    O12   1.546731 D    
C21   C22   1.407618 A    
C11   O22   1.402674 S    
S2    O33   1.495057 D    
C16   H33   1.109711 S    
P3    O9    1.541788 D    
C5    H9    1.109631 S    
S4    O38   1.502574 D    
O1    Ba1   2.852355 S    
C13   H28   1.109281 S    
Ba1   Ba2   4.660078 S    
C22   C23   1.423209 A    
O16   P7    1.753361 S    
C39   C42   1.393665 A    
C27   H37   1.082005 S    
S5    O43   1.496698 D    
N2    O31   1.300714 A    
