data_mof_unit_29956.cif
_audit_creation_date              2012-12-10T19:26:41-0500
_audit_creation_method            fapswitch 2.2
_symmetry_space_group_name_H-M    P1
_symmetry_Int_Tables_number       1
_space_group_crystal_system       triclinic
_cell_length_a                    18.841633
_cell_length_b                    10.480949
_cell_length_c                    9.738789
_cell_angle_alpha                 90.659117
_cell_angle_beta                  90.032265
_cell_angle_gamma                 90.065797
_cell_volume                      1923.06962804

loop_
_atom_site_label
_atom_site_type_symbol
_atom_type_description
_atom_site_fract_x
_atom_site_fract_y
_atom_site_fract_z
_atom_type_partial_charge
C1    C     C_R   0.499602 0.257513 0.499141 0.930852
C2    C     C_R   0.499969 0.742383 0.500802 0.930751
C3    C     C_3   0.560413 0.043358 0.558250 -0.315294
C4    C     C_3   0.438703 0.955941 0.440796 -0.341052
C5    C     C_3   0.554878 0.957616 0.429774 0.583191
C6    C     C_3   0.444270 0.041740 0.569361 0.589004
C7    C     C_3   0.499470 0.877152 0.502305 -0.102253
C8    C     C_3   0.499669 0.122532 0.497275 -0.104622
C9    C     C_3   0.503883 0.961538 0.632226 -0.295766
C10   C     C_3   0.495045 0.038200 0.367006 -0.319298
C11   C     C_3   0.489055 0.386479 0.047166 -0.068921
C12   C     C_3   0.510948 0.613572 0.952828 -0.081050
C13   C     C_3   0.549178 0.426321 0.950390 -0.075026
C14   C     C_3   0.450829 0.573754 0.049634 -0.081550
C15   C     C_3   0.439819 0.460248 0.950884 -0.060167
C16   C     C_3   0.560172 0.539832 0.049122 -0.075264
C17   C     C_R   0.365082 0.504100 0.499947 0.890183
C18   C     C_R   0.635034 0.503668 0.500184 0.885269
C19   C     C_R   0.248035 0.508816 0.614536 -0.199168
C20   C     C_R   0.743311 0.585087 0.387602 -0.165114
C21   C     C_R   0.177845 0.548042 0.617401 -0.260295
C22   C     C_R   0.813451 0.624542 0.394783 -0.244510
C23   C     C_R   0.148271 0.612522 0.505324 -0.001976
C24   C     C_R   0.852182 0.612754 0.517270 -0.018825
C25   C     C_R   0.189687 0.637590 0.388075 0.509303
C26   C     C_R   0.818664 0.564145 0.635851 0.522749
C27   C     C_R   0.260957 0.598894 0.387896 -0.327717
C28   C     C_R   0.748880 0.519114 0.624921 -0.302849
C29   C     C_R   0.289627 0.533154 0.499332 -0.082241
C30   C     C_R   0.710817 0.531557 0.502415 -0.087956
C31   C     C_R   0.928821 0.638304 0.514210 0.310408
C32   C     C_R   0.072209 0.639956 0.507439 0.323267
H1    H     H_    0.146263 0.525641 0.706855 0.174222
H2    H     H_    0.837674 0.663263 0.303446 0.162564
H3    H     H_    0.294941 0.623535 0.302882 0.157385
H4    H     H_    0.724271 0.473708 0.712178 0.153252
H5    H     H_    0.590496 0.364294 0.903388 0.117434
H6    H     H_    0.409530 0.635803 0.096695 0.120694
N1    N     N_R   0.034286 0.635723 0.389269 -0.128971
N2    N     N_R   0.966841 0.648608 0.631946 -0.126567
N3    N     N_R   0.963878 0.635208 0.392609 -0.188141
N4    N     N_R   0.037255 0.649172 0.628747 -0.190520
N5    N     N_3   0.499950 0.500030 0.863290 -0.070513
N6    N     N_3   0.500050 0.499970 0.136710 -0.071465
O1    O     O_R   0.500000 0.313960 0.616610 -0.593312
O2    O     O_R   0.500000 0.686040 0.383390 -0.602466
O3    O     O_R   0.500030 0.313950 0.383350 -0.636588
O4    O     O_R   0.499970 0.686050 0.616650 -0.637985
O5    O     O_R   0.398120 0.499990 0.616660 -0.614754
O6    O     O_R   0.601880 0.500010 0.383340 -0.618932
O7    O     O_R   0.398150 0.499980 0.383410 -0.623881
O8    O     O_R   0.601850 0.500020 0.616590 -0.622605
Zn1   Zn    Zn3+2 0.499980 0.500010 0.655740 0.948768
Zn2   Zn    Zn3+2 0.500020 0.499990 0.344260 0.941164
H7    H     H_    0.269841 0.459947 0.702434 0.164983
H8    H     H_    0.714369 0.598018 0.292621 0.159981
H9    H     H_    0.389188 0.426789 0.904436 0.123220
H10   H     H_    0.610782 0.573445 0.095500 0.111552
O9    O     O_3   0.161465 0.711875 0.283612 -0.646077
C33   C     C_3   0.178813 0.664891 0.150633 0.102262
H11   H     H_    0.128906 0.659820 0.089982 0.172387
H12   H     H_    0.200672 0.565946 0.149242 0.121227
C34   C     C_3   0.229354 0.757800 0.079254 -0.353996
H13   H     H_    0.201437 0.849575 0.061784 0.230128
H14   H     H_    0.276161 0.778180 0.145203 0.211933
C35   C     C_3   0.254980 0.704034 0.941752 -0.990818
H15   H     H_    0.283225 0.612236 0.956556 0.260028
H16   H     H_    0.292207 0.772500 0.893727 0.264662
H17   H     H_    0.209200 0.688509 0.871777 0.280353
O10   O     O_3   0.857062 0.545816 0.755802 -0.638550
C36   C     C_3   0.826800 0.614379 0.867702 0.075382
H18   H     H_    0.849816 0.575191 0.963420 0.175997
H19   H     H_    0.768422 0.601123 0.876534 0.117633
C37   C     C_3   0.845143 0.756911 0.861884 -0.344310
H20   H     H_    0.903705 0.769011 0.858532 0.246061
H21   H     H_    0.822050 0.799012 0.767684 0.214308
C38   C     C_3   0.816080 0.828524 0.987022 -0.966150
H22   H     H_    0.757639 0.816359 0.993497 0.265496
H23   H     H_    0.828259 0.931790 0.978353 0.271269
H24   H     H_    0.840866 0.792328 0.082410 0.264307
O11   O     O_3   0.613605 0.899504 0.363956 -0.649677
C39   C     C_3   0.638597 0.975535 0.255260 0.086693
H25   H     H_    0.697392 0.967849 0.253014 0.164670
H26   H     H_    0.626689 0.079231 0.269021 0.126665
C40   C     C_3   0.609605 0.924384 0.118150 -0.349978
H27   H     H_    0.631987 0.827968 0.097647 0.213581
H28   H     H_    0.550960 0.914847 0.123213 0.221998
C41   C     C_3   0.628719 0.012340 0.999937 -0.984595
H29   H     H_    0.602835 0.106746 0.014404 0.262179
H30   H     H_    0.610006 0.969594 0.901562 0.268393
H31   H     H_    0.687104 0.025766 0.994112 0.271949
O12   O     O_3   0.387520 0.097596 0.642937 -0.647455
C42   C     C_3   0.339433 0.002789 0.687155 0.056669
H32   H     H_    0.326631 0.022808 0.796641 0.162174
H33   H     H_    0.361043 0.903585 0.682849 0.125065
C43   C     C_3   0.270928 0.010393 0.603105 -0.340909
H34   H     H_    0.247017 0.106651 0.616486 0.232512
H35   H     H_    0.282981 0.995843 0.492467 0.221519
C44   C     C_3   0.217433 0.909677 0.647557 -0.931017
H36   H     H_    0.240657 0.812889 0.635647 0.275391
H37   H     H_    0.169149 0.915390 0.582506 0.279234
H38   H     H_    0.201976 0.925693 0.756427 0.267127
H39   H     H_    0.609942 0.083617 0.602944 0.157966
H40   H     H_    0.390061 0.913785 0.394620 0.148245
H41   H     H_    0.505789 0.926217 0.739192 0.155913
H42   H     H_    0.491271 0.075566 0.261064 0.159463
H43   H     H_    0.479926 0.290865 0.091823 0.119590
H44   H     H_    0.520254 0.709169 0.908235 0.120523

loop_
_geom_bond_atom_site_label_1
_geom_bond_atom_site_label_2
_ccdc_geom_bond_type
C35   H16   S    
C34   H14   S    
C42   H32   S    
C27   C29   A    
C1    C8    S    
C17   C29   S    
C2    C7    S    
C20   H8    S    
C17   O7    A    
C6    C9    S    
O11   C39   S    
C18   O8    A    
N1    N3    A    
C20   C30   A    
C40   H27   S    
C2    O2    A    
O6    Zn2   S    
C37   H21   S    
C33   C34   S    
C19   C21   A    
C24   C26   A    
C12   N5    S    
O5    Zn1   S    
C38   H24   S    
C35   H17   S    
C21   H1    S    
C3    H39   S    
C43   C44   S    
C31   N2    A    
C33   H12   S    
C32   N1    A    
C11   C15   S    
N5    Zn1   S    
C12   C16   S    
C37   C38   S    
C43   H35   S    
O10   C36   S    
C18   C30   S    
C16   N6    S    
C13   H5    S    
N2    N4    A    
C35   H15   S    
C34   C35   S    
O1    Zn1   S    
O9    C33   S    
C42   H33   S    
C15   H9    S    
C4    C7    S    
C5    C7    S    
C40   H28   S    
O4    Zn1   S    
C22   H2    S    
C37   H20   S    
C4    C6    S    
C3    C8    S    
C17   O5    A    
C12   H44   S    
C1    O3    A    
C6    C8    S    
C27   H3    S    
C38   H22   S    
C33   H11   S    
C3    C9    S    
C14   H6    S    
C5    O11   S    
C44   H36   S    
C41   H31   S    
C43   H34   S    
O2    Zn2   S    
C38   H23   S    
C11   N6    S    
C16   H10   S    
O3    Zn2   S    
C44   H37   S    
C12   C14   S    
C42   C43   S    
C39   H26   S    
C21   C23   A    
C11   H43   S    
C26   O10   S    
C22   C24   A    
C10   H42   S    
C20   C22   A    
C4    C10   S    
C19   C29   A    
C13   N5    S    
O8    Zn1   S    
C18   O6    A    
C14   N6    S    
C40   C41   S    
C19   H7    S    
C7    C9    S    
C31   N3    A    
C41   H30   S    
C3    C5    S    
C36   C37   S    
C25   C27   A    
C39   C40   S    
C26   C28   A    
O7    Zn2   S    
C2    O4    A    
C23   C32   S    
C28   C30   A    
C24   C31   S    
C15   N5    S    
C36   H18   S    
C11   C13   S    
C1    O1    A    
C6    O12   S    
C4    H40   S    
O12   C42   S    
C23   C25   A    
C34   H13   S    
N6    Zn2   S    
C5    C10   S    
C44   H38   S    
C41   H29   S    
C28   H4    S    
C8    C10   S    
C39   H25   S    
C13   C16   S    
C36   H19   S    
C32   N4    A    
C14   C15   S    
C25   O9    S    
C9    H41   S    
