data_mof_unit_17244.cif
_audit_creation_date              2012-12-10T17:02:02-0500
_audit_creation_method            fapswitch 2.2
_symmetry_space_group_name_H-M    P1
_symmetry_Int_Tables_number       1
_space_group_crystal_system       triclinic
_cell_length_a                    10.903282
_cell_length_b                    11.003574
_cell_length_c                    9.860145
_cell_angle_alpha                 109.710021
_cell_angle_beta                  97.221527
_cell_angle_gamma                 92.392603
_cell_volume                      1100.33606463

loop_
_atom_site_label
_atom_site_type_symbol
_atom_type_description
_atom_site_fract_x
_atom_site_fract_y
_atom_site_fract_z
_atom_type_partial_charge
C1    C     C_R   0.493281 0.254445 0.442614 0.872579
C2    C     C_R   0.081441 0.590544 0.620868 -0.039304
C3    C     C_R   0.129182 0.496418 0.507597 -0.099170
C4    C     C_R   0.047931 0.405170 0.392516 0.203939
C5    C     C_R   0.919335 0.411152 0.385361 -0.096777
C6    C     C_R   0.871140 0.503756 0.499859 -0.120920
C7    C     C_2   0.486299 0.115035 0.416287 0.093485
C8    C     C_2   0.572212 0.060241 0.483753 -0.092579
C9    C     C_2   0.527444 0.884501 0.581360 0.195992
C10   C     C_2   0.547030 0.924147 0.469724 -0.173752
C11   C     C_2   0.524165 0.504230 0.082910 0.358090
C12   C     C_R   0.262790 0.498493 0.502297 0.828697
C13   C     C_2   0.537136 0.467741 0.923898 0.350580
C14   C     C_R   0.511579 0.745661 0.556809 0.778358
C15   C     C_R   0.737196 0.503121 0.499324 0.863473
C16   C     C_R   0.157433 0.679970 0.743698 -0.122809
C17   C     C_R   0.117469 0.804960 0.795645 0.242531
C18   C     C_R   0.988051 0.815176 0.787451 -0.184663
C19   C     C_R   0.911697 0.696916 0.732503 -0.149462
C20   C     C_R   0.952555 0.595567 0.617305 0.026772
Cu1   Cu    Cu3+1 0.521920 0.521810 0.644910 1.125561
Cu2   Cu    Cu3+1 0.478080 0.478190 0.355090 1.120082
H1    H     H_    0.545055 0.854449 0.361174 0.223180
N1    N     N_2   0.445130 0.445430 0.137370 -0.089703
N2    N     N_2   0.554930 0.554500 0.862630 -0.081910
O1    O     O_R   0.511700 0.332330 0.577400 -0.556567
O2    O     O_R   0.474680 0.295500 0.332650 -0.510807
O3    O     O_R   0.338160 0.518420 0.622400 -0.571738
O4    O     O_R   0.301140 0.481590 0.377650 -0.532465
O5    O     O_R   0.525320 0.704500 0.667350 -0.509964
O6    O     O_R   0.488300 0.667670 0.422600 -0.589793
O7    O     O_R   0.698860 0.518410 0.622350 -0.548671
O8    O     O_R   0.661840 0.481580 0.377600 -0.568002
Br1   Br    Br    0.110978 0.260204 0.252914 -0.268914
Br2   Br    Br    0.336509 0.016325 0.299611 -0.281184
Br3   Br    Br    0.613574 0.311705 0.854516 -0.353971
Br4   Br    Br    0.657380 0.630545 0.204661 -0.422142
Br5   Br    Br    0.513594 0.724921 0.961118 -0.226386
Br6   Br    Br    0.346189 0.294424 0.015275 -0.206477
C21   C     C_2   0.206535 0.626996 0.858276 0.942477
O9    O     O_2   0.238837 0.699024 0.984250 -0.513555
O10   O     O_R   0.203612 0.492986 0.825399 -0.707723
H2    H     H_    0.226807 0.469778 0.915442 0.360382
Br7   Br    Br    0.239415 0.946518 0.903668 -0.188029
C22   C     C_2   0.932646 0.940055 0.850035 0.992959
O11   O     O_2   0.997271 0.043019 0.899449 -0.482481
O12   O     O_R   0.804412 0.940514 0.848545 -0.679877
H3    H     H_    0.778836 0.030581 0.897699 0.384519
C23   C     C_2   0.861309 0.659294 0.848134 0.956301
O13   O     O_2   0.814423 0.737969 0.942783 -0.500652
O14   O     O_R   0.873410 0.534477 0.852641 -0.689125
H4    H     H_    0.839720 0.521687 0.938596 0.373374
C24   C     C_2   0.836939 0.319190 0.256771 0.963231
O15   O     O_2   0.848540 0.317964 0.134562 -0.513798
O16   O     O_R   0.747039 0.234053 0.274887 -0.731666
H5    H     H_    0.696815 0.176992 0.179037 0.362714
C25   C     C_2   0.699904 0.122210 0.553012 0.977196
O17   O     O_2   0.735184 0.229006 0.552912 -0.549711
O18   O     O_R   0.782218 0.054621 0.614791 -0.717412
H6    H     H_    0.866394 0.104983 0.656767 0.369589
Br8   Br    Br    0.516258 0.001528 0.771869 -0.293901

loop_
_geom_bond_atom_site_label_1
_geom_bond_atom_site_label_2
_ccdc_geom_bond_type
C9    C14   S    
C24   O15   D    
O14   H4    S    
Cu2   O4    S    
C12   O4    A    
C6    C20   A    
C9    C10   D    
C19   C23   S    
Cu1   O5    S    
C19   C20   A    
C14   O6    A    
O16   H5    S    
C23   O13   D    
C21   O10   S    
C17   C18   A    
C17   Br7   S    
O18   H6    S    
Cu1   Cu2   S    
C11   C13   S    
C13   N2    D    
C25   O17   D    
C5    C6    A    
C8    C25   S    
C16   C21   S    
C9    Br8   S    
C5    C24   S    
C21   O9    D    
Cu1   O1    S    
C14   O5    A    
C2    C3    A    
Cu2   N1    S    
Cu2   O2    S    
C24   O16   S    
C1    O1    A    
N2    Br5   S    
Cu1   O7    S    
C4    Br1   S    
C25   O18   S    
C7    C8    D    
Cu2   O6    S    
C2    C20   A    
C3    C4    A    
C18   C22   S    
C22   O11   D    
C11   N1    D    
C15   O7    A    
N1    Br6   S    
C2    C16   A    
C12   O3    A    
C13   Br3   S    
C1    O2    A    
C18   C19   A    
O10   H2    S    
C22   O12   S    
C11   Br4   S    
Cu2   O8    S    
Cu1   N2    S    
C16   C17   A    
C10   H1    S    
C3    C12   S    
C6    C15   S    
C1    C7    S    
C7    Br2   S    
Cu1   O3    S    
C8    C10   S    
O12   H3    S    
C15   O8    A    
C4    C5    A    
C23   O14   S    
