data_mof_unit_67647.cif
_audit_creation_date              2012-12-10T19:11:06-0500
_audit_creation_method            fapswitch 2.2
_symmetry_space_group_name_H-M    P1
_symmetry_Int_Tables_number       1
_space_group_crystal_system       triclinic
_cell_length_a                    10.824699
_cell_length_b                    9.206831
_cell_length_c                    7.874999
_cell_angle_alpha                 90.908819
_cell_angle_beta                  87.470433
_cell_angle_gamma                 92.117552
_cell_volume                      783.45186707

loop_
_atom_site_label
_atom_site_type_symbol
_atom_type_description
_atom_site_fract_x
_atom_site_fract_y
_atom_site_fract_z
_atom_type_partial_charge
C1    C     C_R   0.499058 0.220152 0.499439 0.791607
C2    C     C_R   0.260196 0.484339 0.502188 0.797991
C3    C     C_R   0.739824 0.490420 0.497972 0.817909
C4    C     C_R   0.498681 0.779728 0.500983 0.853928
C5    C     C_1   0.496661 0.065062 0.499581 -0.236982
C6    C     C_3   0.060707 0.420920 0.677813 0.316704
C7    C     C_3   0.074410 0.378788 0.345457 0.229439
C8    C     C_3   0.916759 0.403501 0.669256 0.230817
C9    C     C_3   0.933531 0.403909 0.331596 0.322554
C10   C     C_1   0.496803 0.934558 0.501726 -0.189827
C11   C     C_3   0.078357 0.629140 0.477735 -0.581684
C12   C     C_3   0.935927 0.632536 0.502706 -0.616907
C13   C     C_3   0.122423 0.471891 0.502769 -0.102260
C14   C     C_3   0.877071 0.476627 0.499411 -0.094334
Cu1   Cu    Cu3+1 0.500000 0.500010 0.669080 0.978517
Cu2   Cu    Cu3+1 0.500000 0.500010 0.330920 0.962948
N1    N     N_1   0.500000 0.499970 0.076820 -0.067605
N2    N     N_1   0.500000 0.499970 0.923180 -0.068522
O1    O     O_R   0.500000 0.288400 0.642760 -0.580619
O2    O     O_R   0.500000 0.288400 0.357240 -0.602786
O3    O     O_R   0.317700 0.499990 0.642790 -0.550411
O4    O     O_R   0.317700 0.499990 0.357210 -0.613165
O5    O     O_R   0.682300 0.499990 0.642790 -0.618039
O6    O     O_R   0.682300 0.499990 0.357210 -0.565077
O7    O     O_R   0.500000 0.711620 0.642810 -0.575572
O8    O     O_R   0.500000 0.711620 0.357190 -0.581513
H1    H     H_    0.072687 0.519070 0.761312 0.112541
H2    H     H_    0.119836 0.422766 0.225845 0.096801
H3    H     H_    0.878500 0.468615 0.779613 0.078309
H4    H     H_    0.931274 0.490656 0.234579 0.097918
O9    O     O_3   0.122903 0.318868 0.774013 -0.616790
C15   C     C_3   0.121281 0.173923 0.713990 0.153314
H5    H     H_    0.215223 0.149526 0.661425 0.132108
H6    H     H_    0.054009 0.146626 0.618232 0.231693
C16   C     C_3   0.088833 0.076160 0.863917 -0.336649
H7    H     H_    0.157546 0.098837 0.958757 0.238102
H8    H     H_    0.997425 0.102216 0.922465 0.245799
C17   C     C_3   0.088899 0.916282 0.813809 -1.010514
H9    H     H_    0.019883 0.894531 0.715887 0.264147
H10   H     H_    0.063510 0.848734 0.926493 0.266797
H11   H     H_    0.182419 0.887359 0.763502 0.262207
O10   O     O_3   0.093342 0.227991 0.355583 -0.647330
C18   C     C_3   0.209259 0.185700 0.286970 0.057969
H12   H     H_    0.280724 0.220929 0.374566 0.149560
H13   H     H_    0.232059 0.233901 0.160570 0.168728
C19   C     C_3   0.209175 0.018917 0.276092 -0.381970
H14   H     H_    0.211086 0.975586 0.406895 0.204067
H15   H     H_    0.122375 0.975850 0.220696 0.234725
C20   C     C_3   0.319941 0.962132 0.170209 -0.871087
H16   H     H_    0.307433 0.969570 0.032193 0.254061
H17   H     H_    0.330718 0.845742 0.198232 0.273532
H18   H     H_    0.406267 0.024312 0.197743 0.269428
O11   O     O_3   0.874279 0.256372 0.679365 -0.661466
C21   C     C_3   0.783663 0.230550 0.811270 0.006284
H19   H     H_    0.705748 0.303187 0.805319 0.214558
H20   H     H_    0.825237 0.249794 0.935692 0.187585
C22   C     C_3   0.731259 0.073806 0.795945 -0.362413
H21   H     H_    0.713289 0.047675 0.661759 0.224055
H22   H     H_    0.801426 0.996927 0.833569 0.207273
C23   C     C_3   0.610310 0.049001 0.902967 -0.854879
H23   H     H_    0.595463 0.137826 0.997622 0.249601
H24   H     H_    0.610921 0.943130 0.968502 0.257495
H25   H     H_    0.528905 0.045899 0.823424 0.272843
O12   O     O_3   0.865456 0.290689 0.248616 -0.628293
C24   C     C_3   0.823370 0.174640 0.352185 0.179462
H26   H     H_    0.749018 0.210285 0.441899 0.142189
H27   H     H_    0.899235 0.128561 0.420501 0.235035
C25   C     C_3   0.767223 0.055913 0.240213 -0.402950
H28   H     H_    0.665914 0.066179 0.239700 0.227295
H29   H     H_    0.808206 0.065567 0.110694 0.258806
C26   C     C_3   0.795564 0.905724 0.296267 -0.960577
H30   H     H_    0.896961 0.894229 0.276525 0.254275
H31   H     H_    0.746820 0.822951 0.216917 0.277647
H32   H     H_    0.766632 0.889821 0.431809 0.251700
H33   H     H_    0.122246 0.705942 0.568494 0.210525
H34   H     H_    0.107307 0.668286 0.348311 0.204651
H35   H     H_    0.908797 0.690897 0.622502 0.206096
H36   H     H_    0.901303 0.691225 0.396653 0.218628

loop_
_geom_bond_atom_site_label_1
_geom_bond_atom_site_label_2
_ccdc_geom_bond_type
Cu1   N2    S    
C9    O12   S    
C3    O5    A    
C16   H7    S    
C9    C14   S    
C4    O7    A    
O11   C21   S    
Cu1   O1    S    
C19   C20   S    
C23   H25   S    
C1    C5    S    
C8    H3    S    
C16   H8    S    
C11   H34   S    
C17   H9    S    
C22   H22   S    
Cu1   Cu2   S    
C23   H24   S    
C7    O10   S    
C2    C13   S    
C21   H19   S    
C6    H1    S    
C25   H28   S    
C24   H27   S    
C12   H36   S    
C2    O4    A    
C8    C14   S    
C24   C25   S    
Cu1   O5    S    
C6    O9    S    
Cu2   O6    S    
C3    O6    A    
C19   H15   S    
Cu2   O8    S    
C21   H20   S    
C1    O1    A    
C15   C16   S    
C16   C17   S    
C17   H11   S    
C26   H31   S    
Cu2   N1    S    
C22   C23   S    
C6    C8    S    
C20   H17   S    
C7    H2    S    
C23   H23   S    
C15   H6    S    
C18   H12   S    
O9    C15   S    
C7    C13   S    
Cu2   O2    S    
C20   H18   S    
C12   H35   S    
C2    O3    A    
N1    N2    T    
C18   H13   S    
C3    C14   S    
C9    H4    S    
C12   C14   S    
C24   H26   S    
O10   C18   S    
C4    C10   S    
C7    C9    S    
C19   H14   S    
C1    O2    A    
Cu2   O4    S    
C8    O11   S    
C26   H32   S    
C4    O8    A    
C11   C12   S    
O12   C24   S    
C5    C10   T    
C11   H33   S    
C15   H5    S    
C6    C13   S    
C17   H10   S    
C11   C13   S    
C22   H21   S    
C25   C26   S    
C18   C19   S    
Cu1   O7    S    
Cu1   O3    S    
C26   H30   S    
C25   H29   S    
C20   H16   S    
C21   C22   S    
