data_mof_unit_31738.cif
_audit_creation_date              2012-10-26T18:48:21-0400
_audit_creation_method            fapswitch 2.2
_symmetry_space_group_name_H-M    P1
_symmetry_Int_Tables_number       1
_space_group_crystal_system       triclinic
_cell_length_a                    10.603314
_cell_length_b                    8.682813
_cell_length_c                    7.459455
_cell_angle_alpha                 102.906807
_cell_angle_beta                  94.25616
_cell_angle_gamma                 92.433143
_cell_volume                      666.336995638

loop_
_atom_site_label
_atom_site_type_symbol
_atom_type_description
_atom_site_fract_x
_atom_site_fract_y
_atom_site_fract_z
_atom_type_partial_charge
C1    C     C_R   0.496114 0.199788 0.453326 0.563888
C2    C     C_3   0.123149 0.500264 0.504911 -0.000276
C3    C     C_3   0.967864 0.637167 0.599077 0.235719
C4    C     C_3   0.032136 0.362833 0.400923 0.235719
C5    C     C_2   0.494185 0.031874 0.427094 -0.118573
C6    C     C_2   0.505815 0.968126 0.572906 -0.118573
C7    C     C_R   0.503886 0.800212 0.546674 0.563888
C8    C     C_R   0.259625 0.499744 0.502088 0.585977
C9    C     C_R   0.740375 0.500256 0.497912 0.585977
C10   C     C_3   0.048880 0.519992 0.676867 -0.121250
C11   C     C_3   0.951120 0.480007 0.323133 -0.121250
C12   C     C_3   0.956012 0.380801 0.571613 -0.129175
C13   C     C_3   0.043987 0.619199 0.428387 -0.129175
C14   C     C_3   0.876850 0.499736 0.495089 -0.000276
Cl1   Cl    Cl    0.922318 0.820982 0.730066 -0.530999
Cl2   Cl    Cl    0.077682 0.179018 0.269934 -0.530999
Cu1   Cu    Cu3+1 0.514140 0.517380 0.684380 1.024046
Cu2   Cu    Cu3+1 0.485860 0.482620 0.315620 1.024046
H1    H     H_    0.917239 0.282358 0.627996 0.174632
H2    H     H_    0.082761 0.717642 0.372004 0.174632
H3    H     H_    0.090873 0.537528 0.821359 0.162561
H4    H     H_    0.909127 0.462472 0.178641 0.162561
H5    H     H_    0.399776 0.379352 0.948934 0.251472
H6    H     H_    0.600224 0.620647 0.051066 0.251472
H7    H     H_    0.483189 0.960354 0.286548 0.145919
H8    H     H_    0.516811 0.039646 0.713452 0.145919
N1    N     N_2   0.464560 0.456420 0.038510 -0.257207
N2    N     N_2   0.535440 0.543580 0.961490 -0.257207
O1    O     O_R   0.509190 0.286130 0.619780 -0.515083
O2    O     O_R   0.490810 0.713870 0.380220 -0.515083
O3    O     O_R   0.485310 0.256770 0.308360 -0.482599
O4    O     O_R   0.514690 0.743230 0.691640 -0.482599
O5    O     O_R   0.328790 0.514640 0.655680 -0.512179
O6    O     O_R   0.671210 0.485360 0.344320 -0.512179
O7    O     O_R   0.304910 0.485280 0.344260 -0.476873
O8    O     O_R   0.695090 0.514720 0.655740 -0.476873

loop_
_geom_bond_atom_site_label_1
_geom_bond_atom_site_label_2
_ccdc_geom_bond_type
C4    Cl2   S    
C9    O8    A    
C2    C4    S    
C9    C14   S    
C6    C7    S    
Cu2   O2    S    
Cu1   O8    S    
H5    N1    S    
C4    C12   S    
Cu1   O1    S    
Cu2   O7    S    
C11   H4    S    
C3    C13   S    
C1    O1    A    
Cu1   Cu2   S    
C7    O2    A    
C4    C11   S    
Cu2   O6    S    
C6    H8    S    
C3    C14   S    
Cu1   O5    S    
C5    H7    S    
C5    C6    D    
C10   C12   S    
C12   H1    S    
C2    C13   S    
Cu2   O3    S    
C12   C14   S    
C8    O5    A    
C10   H3    S    
C9    O6    A    
C11   C14   S    
C1    C5    S    
C11   C13   S    
C2    C10   S    
C1    O3    A    
C3    Cl1   S    
N1    N2    D    
C3    C10   S    
Cu1   O4    S    
C7    O4    A    
C13   H2    S    
Cu1   N2    S    
C2    C8    S    
Cu2   N1    S    
H6    N2    S    
C8    O7    A    
