data_mof_unit_16232.cif
_audit_creation_date              2012-12-10T19:03:05-0500
_audit_creation_method            fapswitch 2.2
_symmetry_space_group_name_H-M    P1
_symmetry_Int_Tables_number       1
_space_group_crystal_system       triclinic
_cell_length_a                    10.782631
_cell_length_b                    10.852929
_cell_length_c                    9.623747
_cell_angle_alpha                 89.646031
_cell_angle_beta                  89.296485
_cell_angle_gamma                 91.638162
_cell_volume                      1125.63182562

loop_
_atom_site_label
_atom_site_type_symbol
_atom_type_description
_atom_site_fract_x
_atom_site_fract_y
_atom_site_fract_z
_atom_type_partial_charge
C1    C     C_R   0.499929 0.262937 0.500141 0.804330
C2    C     C_3   0.877678 0.505918 0.497462 0.024473
C3    C     C_3   0.930024 0.611074 0.592765 -0.011763
C4    C     C_3   0.930148 0.523776 0.347476 -0.453355
C5    C     C_R   0.503916 0.061288 0.620220 0.044260
C6    C     C_R   0.499799 0.130153 0.498642 -0.102961
C7    C     C_R   0.496078 0.065173 0.371908 -0.200778
C8    C     C_R   0.496228 0.935970 0.371540 -0.200743
C9    C     C_R   0.500543 0.869693 0.497899 -0.063778
C10   C     C_R   0.504602 0.937036 0.619893 0.045313
C11   C     C_3   0.512120 0.925695 0.774094 -0.527962
C12   C     C_R   0.260135 0.501532 0.500194 0.823550
C13   C     C_3   0.510758 0.067961 0.775097 0.248749
C14   C     C_R   0.569142 0.585824 0.071971 0.128033
C15   C     C_R   0.423263 0.422973 0.078393 0.263823
C16   C     C_R   0.421060 0.423516 0.930252 0.183826
C17   C     C_R   0.571557 0.583535 0.925009 0.124218
C18   C     C_3   0.710443 0.595381 0.923267 0.199248
C19   C     C_3   0.705931 0.605005 0.080217 -0.534910
C20   C     C_R   0.500518 0.737013 0.499576 0.806805
C21   C     C_R   0.739764 0.503168 0.499075 0.846650
C22   C     C_3   0.065351 0.379368 0.553379 0.119546
C23   C     C_3   0.921684 0.380359 0.552351 -0.500895
C24   C     C_3   0.074894 0.612281 0.593227 0.206694
C25   C     C_3   0.073121 0.522904 0.347088 -0.003564
C26   C     C_3   0.121969 0.505778 0.499290 0.009161
Cu1   Cu    Cu3+1 0.499990 0.499980 0.640670 0.974148
Cu2   Cu    Cu3+1 0.500010 0.500020 0.359330 0.969082
H1    H     H_    0.895845 0.610014 0.300834 0.181651
H2    H     H_    0.493316 0.113316 0.273220 0.173953
H3    H     H_    0.493118 0.888799 0.272736 0.168198
H4    H     H_    0.427037 0.881219 0.820394 0.179830
H5    H     H_    0.600937 0.886024 0.807666 0.198570
H6    H     H_    0.426693 0.106214 0.824451 0.158008
H7    H     H_    0.095342 0.305967 0.481021 0.152157
H8    H     H_    0.746680 0.680200 0.869665 0.125180
H9    H     H_    0.751228 0.527715 0.132920 0.224208
H10   H     H_    0.732131 0.698354 0.118865 0.164372
H11   H     H_    0.885905 0.304667 0.484824 0.159129
H12   H     H_    0.882165 0.361454 0.657955 0.233400
H13   H     H_    0.103984 0.595800 0.702470 0.084035
H14   H     H_    0.899160 0.589603 0.700624 0.177526
H15   H     H_    0.101014 0.440912 0.286270 0.130362
H16   H     H_    0.895902 0.446707 0.281054 0.166592
N1    N     N_R   0.500800 0.500930 0.147930 -0.188789
N2    N     N_R   0.500800 0.500890 0.852020 -0.200104
O1    O     O_R   0.500000 0.319640 0.618810 -0.574481
O2    O     O_R   0.500010 0.319680 0.381230 -0.566846
O3    O     O_R   0.317690 0.499960 0.618790 -0.606222
O4    O     O_R   0.317700 0.500000 0.381210 -0.544563
O5    O     O_R   0.499990 0.680320 0.618770 -0.589600
O6    O     O_R   0.500000 0.680360 0.381190 -0.578070
O7    O     O_R   0.682300 0.500000 0.618790 -0.533642
O8    O     O_R   0.682310 0.500040 0.381210 -0.601125
O9    O     O_3   0.108792 0.346818 0.685305 -0.743431
H17   H     H_    0.067425 0.398325 0.755787 0.329203
O10   O     O_3   0.125969 0.727495 0.550722 -0.739166
H18   H     H_    0.210637 0.735152 0.589723 0.321856
N3    N     N_3   0.878662 0.730975 0.556605 -0.596733
H19   H     H_    0.904375 0.794865 0.632700 0.243156
H20   H     H_    0.915155 0.763204 0.461753 0.260463
O11   O     O_3   0.621850 0.123923 0.822021 -0.704337
H21   H     H_    0.692375 0.089834 0.768722 0.332921
N4    N     N_3   0.345443 0.337974 0.156389 -0.524129
H22   H     H_    0.252903 0.355454 0.134774 0.186604
H23   H     H_    0.364083 0.248599 0.123832 0.212279
N5    N     N_3   0.333647 0.338929 0.868826 -0.595625
H24   H     H_    0.339426 0.336488 0.762487 0.316520
H25   H     H_    0.245317 0.369614 0.893675 0.216879
O12   O     O_3   0.769156 0.487726 0.879093 -0.725511
H26   H     H_    0.727367 0.414717 0.923957 0.353736
N6    N     N_3   0.127973 0.632405 0.276377 -0.526103
H27   H     H_    0.081659 0.711780 0.304678 0.265314
H28   H     H_    0.115335 0.622177 0.169415 0.201179

loop_
_geom_bond_atom_site_label_1
_geom_bond_atom_site_label_2
_ccdc_geom_bond_type
C18   O12   S    
O9    H17   S    
C3    H14   S    
Cu2   O6    S    
C25   H15   S    
C12   O3    A    
C7    C8    A    
C22   H7    S    
C24   C26   S    
C20   O5    A    
C21   O8    A    
C23   H12   S    
C18   C19   S    
C19   H9    S    
Cu2   O4    S    
C13   O11   S    
C8    C9    A    
C15   N4    S    
O12   H26   S    
C9    C10   A    
C5    C13   S    
C4    H1    S    
N3    H19   S    
C7    H2    S    
C24   H13   S    
C14   C17   A    
C3    C24   S    
Cu1   O5    S    
C4    C25   S    
C14   N1    A    
Cu2   N1    S    
N3    H20   S    
C15   C16   A    
N5    H24   S    
C11   H5    S    
C17   N2    A    
N6    H28   S    
C16   N2    A    
C16   N5    S    
Cu2   O8    S    
C1    O1    A    
C4    H16   S    
C25   C26   S    
C1    C6    S    
C12   C26   S    
N5    H25   S    
N4    H23   S    
C2    C4    S    
O11   H21   S    
C19   H10   S    
C9    C20   S    
C2    C21   S    
C17   C18   S    
C25   N6    S    
C22   O9    S    
Cu1   N2    S    
C11   H4    S    
C15   N1    A    
C2    C23   S    
C24   O10   S    
Cu1   O1    S    
Cu2   O2    S    
C8    H3    S    
C14   C19   S    
N6    H27   S    
C12   O4    A    
Cu1   O7    S    
C1    O2    A    
C6    C7    A    
N4    H22   S    
C2    C3    S    
C5    C10   A    
C20   O6    A    
C21   O7    A    
C11   C13   S    
O10   H18   S    
C5    C6    A    
C23   H11   S    
C10   C11   S    
C13   H6    S    
C22   C26   S    
Cu1   Cu2   S    
C22   C23   S    
C18   H8    S    
Cu1   O3    S    
C3    N3    S    
