data_mof_unit_43084.cif
_audit_creation_date              2012-12-10T18:54:27-0500
_audit_creation_method            fapswitch 2.2
_symmetry_space_group_name_H-M    P1
_symmetry_Int_Tables_number       1
_space_group_crystal_system       triclinic
_cell_length_a                    19.550384
_cell_length_b                    18.142096
_cell_length_c                    9.025276
_cell_angle_alpha                 90.000716
_cell_angle_beta                  90.006574
_cell_angle_gamma                 90.000067
_cell_volume                      3201.12948559

loop_
_atom_site_label
_atom_site_type_symbol
_atom_type_description
_atom_site_fract_x
_atom_site_fract_y
_atom_site_fract_z
_atom_type_partial_charge
C1    C     C_R   0.367649 0.500000 0.499976 0.790911
C2    C     C_R   0.632350 0.500000 0.500024 0.790919
C3    C     C_R   0.454087 0.721008 0.414714 0.076448
C4    C     C_R   0.454091 0.278992 0.585272 0.076436
C5    C     C_R   0.545915 0.721008 0.585282 0.076424
C6    C     C_R   0.545911 0.278992 0.414732 0.076415
C7    C     C_R   0.452674 0.798358 0.414522 -0.306853
C8    C     C_R   0.452678 0.201642 0.585465 -0.306847
C9    C     C_R   0.547329 0.798358 0.585476 -0.306847
C10   C     C_R   0.547325 0.201642 0.414539 -0.306845
C11   C     C_R   0.500001 0.838316 0.500001 0.178859
C12   C     C_R   0.500002 0.161684 0.500002 0.178867
C13   C     C_R   0.492808 0.961452 0.634824 0.085288
C14   C     C_R   0.492803 0.038548 0.365176 0.085279
C15   C     C_R   0.507196 0.961450 0.365178 0.085289
C16   C     C_R   0.507202 0.038550 0.634827 0.085290
C17   C     C_R   0.500002 0.078632 0.500002 0.031532
C18   C     C_R   0.500002 0.921368 0.500001 0.031522
C19   C     C_R   0.500000 0.500000 0.220488 0.835930
C20   C     C_R   0.500000 0.500000 0.779512 0.835931
C21   C     C_1   0.500000 0.500000 0.065597 -0.205876
C22   C     C_1   0.500000 0.500000 0.934403 -0.205876
C23   C     C_R   0.744147 0.450271 0.593918 0.067349
C24   C     C_R   0.255856 0.549755 0.593805 0.067351
C25   C     C_R   0.255848 0.450241 0.406142 0.067355
C26   C     C_R   0.744139 0.549725 0.406129 0.067346
C27   C     C_R   0.816363 0.448000 0.587391 -0.021559
C28   C     C_R   0.183640 0.552024 0.587265 -0.021572
C29   C     C_R   0.183633 0.447963 0.412691 -0.021570
C30   C     C_R   0.816356 0.551987 0.412642 -0.021560
C31   C     C_R   0.852318 0.499991 0.500012 -0.081452
C32   C     C_R   0.147678 0.499991 0.499982 -0.081459
C33   C     C_R   0.707998 0.500000 0.500026 -0.138898
C34   C     C_R   0.291999 0.500000 0.499972 -0.138943
C35   C     C_R   0.964604 0.502957 0.633849 -0.150857
C36   C     C_R   0.035392 0.502892 0.366139 -0.150849
C37   C     C_R   0.035412 0.497077 0.633847 -0.150856
C38   C     C_R   0.964583 0.497011 0.366152 -0.150864
C39   C     C_R   0.071713 0.499986 0.499989 0.120898
C40   C     C_R   0.928283 0.499986 0.500005 0.120889
Cu1   Cu    Cu3+1 0.500000 0.573360 0.500000 0.924328
Cu2   Cu    Cu3+1 0.500000 0.426640 0.500000 0.924330
H1    H     H_    0.938217 0.508124 0.738542 0.130130
H2    H     H_    0.061779 0.508008 0.261437 0.130131
H3    H     H_    0.061815 0.491961 0.738543 0.130126
H4    H     H_    0.938180 0.491844 0.261466 0.130127
H5    H     H_    0.418026 0.690800 0.347119 0.118142
H6    H     H_    0.418032 0.309200 0.652855 0.118146
H7    H     H_    0.581977 0.690800 0.652872 0.118150
H8    H     H_    0.581971 0.309200 0.347153 0.118154
H9    H     H_    0.414617 0.826834 0.348791 0.129692
H10   H     H_    0.414623 0.173166 0.651185 0.129695
H11   H     H_    0.585387 0.826834 0.651205 0.129694
H12   H     H_    0.585381 0.173166 0.348821 0.129695
N1    N     N_R   0.500000 0.683620 0.500000 -0.161056
N2    N     N_R   0.500000 0.316380 0.500000 -0.161058
O1    O     O_R   0.400190 0.561980 0.499980 -0.580992
O2    O     O_R   0.599810 0.438020 0.500020 -0.581000
O3    O     O_R   0.599810 0.561980 0.500020 -0.581005
O4    O     O_R   0.400190 0.438020 0.499980 -0.580989
O5    O     O_R   0.500000 0.561940 0.288400 -0.581503
O6    O     O_R   0.500000 0.438060 0.711600 -0.581501
O7    O     O_R   0.500000 0.561940 0.711600 -0.581507
O8    O     O_R   0.500000 0.438060 0.288400 -0.581505
C41   C     C_3   0.706257 0.400660 0.703809 -0.361741
C42   C     C_3   0.697548 0.322254 0.644572 -0.768531
H13   H     H_    0.660017 0.292017 0.714094 0.232379
H14   H     H_    0.678905 0.322944 0.528570 0.250550
H15   H     H_    0.746762 0.291965 0.648225 0.242003
H16   H     H_    0.733019 0.398670 0.811711 0.183076
H17   H     H_    0.655629 0.423521 0.734353 0.199636
C43   C     C_3   0.293752 0.599396 0.703653 -0.361706
C44   C     C_3   0.302461 0.677786 0.644335 -0.768522
H18   H     H_    0.340013 0.708032 0.713803 0.232390
H19   H     H_    0.321074 0.677063 0.528320 0.250524
H20   H     H_    0.253252 0.708086 0.647990 0.242004
H21   H     H_    0.266994 0.601418 0.811544 0.183055
H22   H     H_    0.344378 0.576541 0.734244 0.199658
C45   C     C_3   0.293735 0.400606 0.296287 -0.361712
C46   C     C_3   0.302454 0.322214 0.355593 -0.768518
H23   H     H_    0.340002 0.291973 0.286123 0.232382
H24   H     H_    0.321077 0.322934 0.471609 0.250527
H25   H     H_    0.253247 0.291911 0.351929 0.242008
H26   H     H_    0.266966 0.398587 0.188396 0.183053
H27   H     H_    0.344358 0.423465 0.265702 0.199649
C47   C     C_3   0.706238 0.599341 0.296246 -0.361736
C48   C     C_3   0.697541 0.677746 0.355495 -0.768537
H28   H     H_    0.660007 0.707989 0.285974 0.232381
H29   H     H_    0.678908 0.677053 0.471495 0.250549
H30   H     H_    0.746758 0.708030 0.351853 0.242000
H31   H     H_    0.732988 0.601335 0.188343 0.183079
H32   H     H_    0.655607 0.576484 0.265699 0.199647
C49   C     C_R   0.854964 0.388941 0.666133 0.148710
C50   C     C_R   0.865438 0.392179 0.820249 -0.186231
C51   C     C_R   0.905440 0.338900 0.891085 -0.136514
C52   C     C_R   0.935347 0.282152 0.808880 -0.119113
C53   C     C_R   0.925376 0.278637 0.655688 -0.141404
C54   C     C_R   0.885565 0.331911 0.584313 -0.133158
H33   H     H_    0.844074 0.436981 0.884685 0.105088
H34   H     H_    0.913786 0.342001 0.009504 0.126778
H35   H     H_    0.966529 0.241115 0.863784 0.111671
H36   H     H_    0.948805 0.234828 0.592116 0.116199
H37   H     H_    0.878950 0.329171 0.465279 0.121096
C55   C     C_R   0.145046 0.611125 0.665879 0.148719
C56   C     C_R   0.134576 0.607965 0.819998 -0.186197
C57   C     C_R   0.094582 0.661284 0.890714 -0.136532
C58   C     C_R   0.064680 0.717995 0.808387 -0.119115
C59   C     C_R   0.074647 0.721433 0.655193 -0.141412
C60   C     C_R   0.114450 0.668118 0.583937 -0.133156
H38   H     H_    0.155936 0.563192 0.884530 0.105097
H39   H     H_    0.086238 0.658243 0.009136 0.126754
H40   H     H_    0.033505 0.759064 0.863200 0.111680
H41   H     H_    0.051223 0.765215 0.591528 0.116192
H42   H     H_    0.121062 0.670798 0.464900 0.121087
C61   C     C_R   0.145034 0.388859 0.334081 0.148715
C62   C     C_R   0.134545 0.392016 0.179964 -0.186190
C63   C     C_R   0.094547 0.338693 0.109253 -0.136544
C64   C     C_R   0.064658 0.281980 0.191584 -0.119129
C65   C     C_R   0.074644 0.278544 0.344778 -0.141407
C66   C     C_R   0.114452 0.331863 0.416028 -0.133160
H43   H     H_    0.155893 0.436791 0.115428 0.105097
H44   H     H_    0.086188 0.341732 0.990831 0.126770
H45   H     H_    0.033479 0.240908 0.136776 0.111680
H46   H     H_    0.051230 0.234763 0.408448 0.116197
H47   H     H_    0.121079 0.329186 0.535065 0.121089
C67   C     C_R   0.854952 0.611040 0.333889 0.148711
C68   C     C_R   0.865403 0.607797 0.179772 -0.186242
C69   C     C_R   0.905400 0.661069 0.108924 -0.136501
C70   C     C_R   0.935324 0.717816 0.191117 -0.119100
C71   C     C_R   0.925375 0.721337 0.344309 -0.141408
C72   C     C_R   0.885569 0.668069 0.415697 -0.133153
H48   H     H_    0.844026 0.562995 0.115344 0.105089
H49   H     H_    0.913730 0.657964 0.990503 0.126763
H50   H     H_    0.966502 0.758848 0.136203 0.111671
H51   H     H_    0.948816 0.765145 0.407872 0.116195
H52   H     H_    0.878972 0.670812 0.534732 0.121095
C73   C     C_3   0.465661 0.923538 0.774510 -0.404659
C74   C     C_3   0.393502 0.892715 0.752300 -0.832016
H53   H     H_    0.359335 0.935777 0.705561 0.248931
H54   H     H_    0.393449 0.844100 0.678318 0.259585
H55   H     H_    0.372409 0.874840 0.860788 0.232798
H56   H     H_    0.500768 0.879307 0.811715 0.203543
H57   H     H_    0.460267 0.962203 0.868409 0.188464
C75   C     C_3   0.465653 0.076462 0.225479 -0.404660
C76   C     C_3   0.393501 0.107301 0.247668 -0.832007
H58   H     H_    0.359334 0.064259 0.294464 0.248938
H59   H     H_    0.393466 0.155938 0.321592 0.259584
H60   H     H_    0.372394 0.125150 0.139164 0.232792
H61   H     H_    0.500766 0.120683 0.188272 0.203536
H62   H     H_    0.460245 0.037792 0.131588 0.188472
C77   C     C_3   0.534339 0.923535 0.225487 -0.404652
C78   C     C_3   0.606488 0.892687 0.247697 -0.832014
H63   H     H_    0.627593 0.874845 0.139195 0.232789
H64   H     H_    0.640659 0.935722 0.294525 0.248937
H65   H     H_    0.606519 0.844043 0.321600 0.259592
H66   H     H_    0.499220 0.879318 0.188263 0.203535
H67   H     H_    0.539748 0.962206 0.131603 0.188467
C79   C     C_3   0.534350 0.076465 0.774526 -0.404654
C80   C     C_3   0.606499 0.107313 0.752337 -0.832016
H68   H     H_    0.640668 0.064278 0.705521 0.248937
H69   H     H_    0.606528 0.155957 0.678434 0.259592
H70   H     H_    0.627608 0.125155 0.860845 0.232790
H71   H     H_    0.499233 0.120682 0.811738 0.203534
H72   H     H_    0.539763 0.037795 0.868412 0.188472

loop_
_geom_bond_atom_site_label_1
_geom_bond_atom_site_label_2
_ccdc_geom_bond_type
C15   C18   A    
C42   H14   S    
C73   H56   S    
C30   C67   S    
C11   C18   S    
C49   C50   A    
C58   H40   S    
C56   C57   A    
C71   H51   S    
Cu1   O5    S    
C4    C8    A    
C69   C70   A    
Cu2   O2    S    
C15   C77   S    
C76   H58   S    
C65   H46   S    
C59   C60   A    
C7    C11   A    
C67   C68   A    
C13   C18   A    
C77   H67   S    
C35   C37   A    
C56   H38   S    
C29   C32   A    
C3    C7    A    
C47   H31   S    
C45   H26   S    
C42   H15   S    
C57   C58   A    
C61   C62   A    
C62   C63   A    
C44   H18   S    
C32   C39   S    
C64   C65   A    
Cu1   N1    S    
C75   H62   S    
Cu2   N2    S    
C31   C40   S    
C68   H48   S    
C3    N1    A    
C51   C52   A    
C16   C17   A    
C23   C33   A    
C12   C17   S    
C43   H22   S    
C77   C78   S    
C80   H69   S    
C23   C27   A    
C35   H1    S    
C8    H10   S    
C61   C66   A    
C53   H36   S    
C8    C12   A    
C25   C34   A    
C42   H13   S    
C29   C61   S    
C25   C45   S    
C21   C22   T    
C4    N2    A    
C44   H19   S    
C14   C17   A    
C5    H7    S    
C46   H25   S    
C55   C56   A    
C76   H59   S    
C1    C34   S    
C53   C54   A    
C57   H39   S    
C6    N2    A    
C25   C29   A    
C14   C75   S    
C62   H43   S    
C73   H57   S    
C16   C79   S    
C28   C32   A    
C52   H35   S    
Cu1   O3    S    
C46   H24   S    
C72   H52   S    
C1    O4    A    
Cu2   O4    S    
C47   C48   S    
C46   H23   S    
C41   H17   S    
C27   C31   A    
C24   C34   A    
C45   C46   S    
C13   C73   S    
C59   H41   S    
C63   H44   S    
Cu1   Cu2   S    
C5    C9    A    
C43   H21   S    
C1    O1    A    
C28   C55   S    
C26   C33   A    
C80   H68   S    
C14   C15   A    
C78   H65   S    
C19   O8    A    
C26   C47   S    
C52   C53   A    
C80   H70   S    
C77   H66   S    
C6    H8    S    
C9    C11   A    
C10   C12   A    
C79   H71   S    
C60   H42   S    
C2    C33   S    
C2    O3    A    
C78   H64   S    
C26   C30   A    
C48   H29   S    
C79   C80   S    
C44   H20   S    
C27   C49   S    
C9    H11   S    
Cu1   O7    S    
C58   C59   A    
C37   H3    S    
C68   C69   A    
Cu2   O8    S    
C45   H27   S    
C76   H60   S    
C24   C43   S    
C70   C71   A    
C4    H6    S    
Cu2   O6    S    
C75   H61   S    
C19   C21   S    
C51   H34   S    
C5    N1    A    
C36   C39   A    
C24   C28   A    
C20   C22   S    
C43   C44   S    
C74   H55   S    
C6    C10   A    
C65   C66   A    
C2    O2    A    
C74   H54   S    
C79   H72   S    
C73   C74   S    
C75   C76   S    
C50   H33   S    
C23   C41   S    
C20   O7    A    
C36   C38   A    
C35   C40   A    
C13   C16   A    
Cu1   O1    S    
C37   C39   A    
C54   H37   S    
C47   H32   S    
C63   C64   A    
C38   C40   A    
C30   C31   A    
C67   C72   A    
C19   O5    A    
C3    H5    S    
C66   H47   S    
C71   C72   A    
C64   H45   S    
C20   O6    A    
C50   C51   A    
C10   H12   S    
C38   H4    S    
C36   H2    S    
C74   H53   S    
C7    H9    S    
C70   H50   S    
C78   H63   S    
C48   H28   S    
C41   C42   S    
C48   H30   S    
C55   C60   A    
C69   H49   S    
C49   C54   A    
C41   H16   S    
