data_mof_unit_67656.cif
_audit_creation_date              2012-12-10T19:42:32-0500
_audit_creation_method            fapswitch 2.2
_symmetry_space_group_name_H-M    P1
_symmetry_Int_Tables_number       1
_space_group_crystal_system       triclinic
_cell_length_a                    10.788414
_cell_length_b                    10.830487
_cell_length_c                    9.786281
_cell_angle_alpha                 98.13653
_cell_angle_beta                  99.873294
_cell_angle_gamma                 90.631216
_cell_volume                      1114.46037254

loop_
_atom_site_label
_atom_site_type_symbol
_atom_type_description
_atom_site_fract_x
_atom_site_fract_y
_atom_site_fract_z
_atom_type_partial_charge
C1    C     C_R   0.494620 0.262353 0.500801 0.844106
C2    C     C_R   0.762811 0.898259 0.772289 0.474526
C3    C     C_R   0.352077 0.087675 0.256977 0.038530
C4    C     C_R   0.631489 0.914484 0.751348 0.059383
C5    C     C_R   0.401900 0.066986 0.132504 -0.195297
C6    C     C_R   0.563189 0.892291 0.855986 -0.164880
C7    C     C_R   0.336960 0.101886 0.008501 -0.156239
C8    C     C_R   0.623782 0.856089 0.981049 -0.177158
C9    C     C_R   0.221014 0.157140 0.006909 -0.244275
C10   C     C_R   0.753634 0.844155 0.004710 -0.208070
C11   C     C_R   0.434444 0.918493 0.386267 -0.276726
C12   C     C_R   0.502736 0.738039 0.499738 0.795029
C13   C     C_R   0.555466 0.082831 0.618292 -0.241306
C14   C     C_R   0.502486 0.872372 0.502006 -0.074520
C15   C     C_R   0.488895 0.128788 0.501559 -0.067859
C16   C     C_R   0.262108 0.504118 0.498734 0.840315
C17   C     C_R   0.738078 0.498251 0.501066 0.802002
C18   C     C_R   0.563022 0.955487 0.620772 0.055568
C19   C     C_R   0.424546 0.046167 0.385167 0.031985
C20   C     C_2   0.510949 0.509232 0.079303 -0.077336
C21   C     C_2   0.487230 0.492757 0.920708 -0.075597
C22   C     C_R   0.110370 0.788377 0.159185 -0.161191
C23   C     C_R   0.872339 0.499927 0.503502 -0.087712
C24   C     C_R   0.885382 0.244581 0.865645 -0.158048
C25   C     C_R   0.073143 0.733723 0.267653 -0.199775
C26   C     C_R   0.919671 0.287491 0.748615 -0.160506
C27   C     C_R   0.084235 0.605048 0.270879 0.102104
C28   C     C_R   0.918259 0.415277 0.737545 0.111933
C29   C     C_R   0.126585 0.531491 0.159132 -0.059364
C30   C     C_R   0.887098 0.499964 0.848081 -0.078570
C31   C     C_R   0.164899 0.586337 0.051468 -0.124323
C32   C     C_R   0.851488 0.456655 0.964186 -0.117522
C33   C     C_R   0.157818 0.714991 0.052287 -0.135057
C34   C     C_R   0.128012 0.504655 0.495900 -0.048918
C35   C     C_R   0.850413 0.329031 0.972922 -0.138442
C36   C     C_R   0.916113 0.543456 0.391732 -0.267640
C37   C     C_R   0.084190 0.461894 0.607866 -0.230885
C38   C     C_3   0.100813 0.102668 0.403224 0.024774
C39   C     C_3   0.969919 0.119457 0.317335 -0.406581
C40   C     C_3   0.865840 0.048474 0.364858 -0.857382
C41   C     C_3   0.926288 0.840526 0.649404 0.048747
C42   C     C_3   0.055385 0.905143 0.708249 -0.370873
C43   C     C_3   0.162659 0.820393 0.679097 -0.902870
C44   C     C_R   0.957249 0.460741 0.614645 -0.013643
C45   C     C_R   0.043674 0.547572 0.386412 -0.004846
C46   C     C_R   0.171456 0.180722 0.130102 -0.226767
C47   C     C_R   0.823013 0.865837 0.902225 -0.256768
C48   C     C_R   0.235272 0.146238 0.256034 0.506575
Cu1   Cu    Cu3+1 0.521120 0.521140 0.639640 0.950871
Cu2   Cu    Cu3+1 0.478880 0.478860 0.360360 0.959322
H1    H     H_    0.188058 0.757845 0.969769 0.141255
H2    H     H_    0.583672 0.576468 0.136005 0.152863
H3    H     H_    0.627141 0.608807 0.905847 0.206287
H4    H     H_    0.377691 0.385080 0.093944 0.204507
H5    H     H_    0.102168 0.887525 0.157280 0.130573
H6    H     H_    0.887019 0.146042 0.873831 0.159362
H7    H     H_    0.035527 0.791549 0.348754 0.116539
H8    H     H_    0.948524 0.221595 0.667524 0.129487
H9    H     H_    0.131459 0.432107 0.156409 0.133001
H10   H     H_    0.889384 0.599187 0.843810 0.119421
H11   H     H_    0.199229 0.528943 0.967007 0.113568
H12   H     H_    0.824086 0.295777 0.063570 0.135537
H13   H     H_    0.826063 0.522291 0.048040 0.112845
H14   H     H_    0.850565 0.577273 0.309428 0.143682
H15   H     H_    0.149491 0.429074 0.691198 0.142649
H16   H     H_    0.171157 0.185009 0.911007 0.154329
H17   H     H_    0.800609 0.816717 0.102138 0.154373
H18   H     H_    0.083840 0.228141 0.127844 0.138156
H19   H     H_    0.923404 0.856391 0.925487 0.139213
H20   H     H_    0.094200 0.124684 0.515592 0.168360
H21   H     H_    0.129900 0.004267 0.386241 0.132615
H22   H     H_    0.948940 0.220315 0.327447 0.240406
H23   H     H_    0.493159 0.027072 0.133186 0.149106
H24   H     H_    0.968180 0.083122 0.205183 0.205106
H25   H     H_    0.881927 0.946954 0.350262 0.243681
H26   H     H_    0.773559 0.064530 0.300918 0.255331
H27   H     H_    0.861530 0.080783 0.476394 0.279065
H28   H     H_    0.919782 0.812728 0.534925 0.162871
H29   H     H_    0.916720 0.751651 0.692327 0.130607
H30   H     H_    0.063504 0.990733 0.660391 0.211865
H31   H     H_    0.065838 0.934385 0.822901 0.211521
H32   H     H_    0.152973 0.730808 0.719680 0.258495
H33   H     H_    0.253525 0.867412 0.731537 0.248016
H34   H     H_    0.462307 0.900239 0.839080 0.130191
H35   H     H_    0.164014 0.801087 0.565244 0.249424
H36   H     H_    0.377231 0.088340 0.913916 0.143668
H37   H     H_    0.569839 0.835107 0.059008 0.138024
H38   H     H_    0.386408 0.854647 0.296891 0.172244
H39   H     H_    0.604036 0.146449 0.707599 0.167936
H40   H     H_    0.412201 0.428059 0.864051 0.155738
N1    N     N_2   0.447120 0.447110 0.150550 -0.280265
N2    N     N_2   0.552880 0.552890 0.849450 -0.276498
O1    O     O_R   0.517830 0.337490 0.617920 -0.582146
O2    O     O_3   0.829172 0.924890 0.669261 -0.644877
O3    O     O_R   0.482170 0.662510 0.382080 -0.582006
O4    O     O_R   0.482150 0.301790 0.382070 -0.564837
O5    O     O_R   0.517850 0.698210 0.617930 -0.573750
O6    O     O_R   0.337480 0.517860 0.617920 -0.593240
O7    O     O_R   0.662520 0.482140 0.382080 -0.584347
O8    O     O_R   0.301810 0.482160 0.382070 -0.566617
O9    O     O_R   0.698190 0.517840 0.617930 -0.575929
O10   O     O_3   0.193049 0.187303 0.379835 -0.636230

loop_
_geom_bond_atom_site_label_1
_geom_bond_atom_site_label_2
_ccdc_geom_bond_type
C38   H20   S    
C42   H30   S    
C27   C29   A    
C34   C37   A    
C43   H33   S    
C41   C42   S    
C31   H11   S    
Cu2   O4    S    
C10   H17   S    
C15   C19   A    
C11   C19   A    
Cu2   O7    S    
C17   C23   S    
C13   C18   A    
C24   C26   A    
Cu1   O9    S    
C38   C39   S    
C11   C14   A    
Cu2   O3    S    
C7    H36   S    
C3    C48   A    
C39   H24   S    
C17   O9    A    
C9    H16   S    
C47   H19   S    
C16   C34   S    
Cu1   O6    S    
C29   H9    S    
C22   C25   A    
C37   H15   S    
C39   H22   S    
C31   C33   A    
C12   O3    A    
C3    C19   S    
C1    C15   S    
C38   O10   S    
C4    C18   S    
C27   C45   S    
C9    C46   A    
C42   H31   S    
C25   H7    S    
C21   H40   S    
C20   N1    D    
C46   C48   A    
C24   C35   A    
C6    H34   S    
C43   H35   S    
C32   C35   A    
C2    O2    S    
C4    C6    A    
C39   C40   S    
C5    C7    A    
C16   O8    A    
C6    C8    A    
C28   C44   S    
C23   C44   A    
C40   H26   S    
C30   H10   S    
C2    C4    A    
C46   H18   S    
C26   H8    S    
C41   O2    S    
C11   H38   S    
C48   O10   S    
H3    N2    S    
C36   C45   A    
C34   C45   A    
C33   H1    S    
C17   O7    A    
C12   O5    A    
C8    C10   A    
C12   C14   S    
C23   C36   A    
C13   C15   A    
C25   C27   A    
C42   C43   S    
Cu1   N2    S    
C41   H28   S    
C7    C9    A    
C22   C33   A    
C38   H21   S    
C13   H39   S    
Cu2   O8    S    
C14   C18   A    
C32   H13   S    
C3    C5    A    
C41   H29   S    
C22   H5    S    
C2    C47   A    
C24   H6    S    
C26   C28   A    
C40   H25   S    
C20   H2    S    
C8    H37   S    
C37   C44   A    
C28   C30   A    
H4    N1    S    
C29   C31   A    
C30   C32   A    
C16   O6    A    
C1    O4    A    
C35   H12   S    
C5    H23   S    
Cu1   O5    S    
Cu2   N1    S    
C20   C21   S    
C1    O1    A    
Cu1   Cu2   S    
C10   C47   A    
C43   H32   S    
C40   H27   S    
Cu1   O1    S    
C36   H14   S    
C21   N2    D    
