data_mof_unit_19314.cif
_audit_creation_date              2012-12-10T17:24:11-0500
_audit_creation_method            fapswitch 2.2
_symmetry_space_group_name_H-M    P1
_symmetry_Int_Tables_number       1
_space_group_crystal_system       triclinic
_cell_length_a                    19.329305
_cell_length_b                    10.803631
_cell_length_c                    9.598726
_cell_angle_alpha                 90.852428
_cell_angle_beta                  90.321074
_cell_angle_gamma                 93.699422
_cell_volume                      2000.02864729

loop_
_atom_site_label
_atom_site_type_symbol
_atom_type_description
_atom_site_fract_x
_atom_site_fract_y
_atom_site_fract_z
_atom_type_partial_charge
C1    C     C_R   0.496490 0.262304 0.498841 0.878307
C2    C     C_R   0.292487 0.518725 0.498438 -0.085692
C3    C     C_R   0.930727 0.523069 0.496049 0.422531
C4    C     C_R   0.071346 0.533806 0.493067 0.444087
C5    C     C_R   0.818239 0.565267 0.608934 -0.138937
C6    C     C_R   0.746038 0.556585 0.609881 -0.226278
C7    C     C_R   0.708361 0.495728 0.500655 -0.136041
C8    C     C_R   0.744570 0.439241 0.391025 0.410028
C9    C     C_R   0.816840 0.452080 0.389254 -0.129789
C10   C     C_R   0.854300 0.514212 0.497913 -0.033736
C11   C     C_R   0.380128 0.113258 0.630153 0.475308
C12   C     C_R   0.367859 0.505866 0.499769 0.862539
C13   C     C_R   0.336195 0.045508 0.720614 -0.204507
C14   C     C_R   0.344144 0.920278 0.740467 -0.214527
C15   C     C_R   0.395072 0.861027 0.668210 -0.182833
C16   C     C_R   0.443419 0.928905 0.583692 0.046350
C17   C     C_R   0.438736 0.058679 0.572268 -0.005646
C18   C     C_R   0.490113 0.127641 0.495389 -0.105775
C19   C     C_R   0.539025 0.067551 0.417638 -0.189605
C20   C     C_R   0.540021 0.940019 0.419741 -0.182953
C21   C     C_R   0.494008 0.870609 0.504031 -0.066071
C22   C     C_R   0.593976 0.664975 0.147097 -0.210147
C23   C     C_R   0.498346 0.737218 0.501199 0.746204
C24   C     C_R   0.640522 0.746044 0.076144 0.426641
C25   C     C_R   0.639050 0.746054 0.932330 -0.196808
C26   C     C_R   0.592590 0.665982 0.859115 -0.225789
C27   C     C_R   0.545593 0.581632 0.926939 0.198130
C28   C     C_R   0.545991 0.581207 0.076259 0.088617
C29   C     C_R   0.454842 0.423378 0.073114 0.590375
C30   C     C_R   0.456507 0.422187 0.923573 -0.171063
C31   C     C_R   0.632325 0.497529 0.500174 0.745343
C32   C     C_R   0.254787 0.515179 0.622713 -0.170499
C33   C     C_R   0.183182 0.523262 0.620052 -0.242659
C34   C     C_R   0.147714 0.534397 0.493130 0.023846
C35   C     C_R   0.185467 0.541689 0.367658 0.437703
C36   C     C_R   0.257702 0.533915 0.371757 -0.318085
Cu1   Cu    Cu3+1 0.500000 0.499990 0.640660 0.956459
Cu2   Cu    Cu3+1 0.500000 0.500010 0.359340 0.990363
H1    H     H_    0.280411 0.504233 0.722005 0.159752
H2    H     H_    0.292585 0.088233 0.767300 0.154329
H3    H     H_    0.308070 0.867179 0.805774 0.164248
H4    H     H_    0.394738 0.761796 0.678668 0.171480
H5    H     H_    0.578401 0.895375 0.358340 0.145009
H6    H     H_    0.597301 0.671679 0.257133 0.185524
H7    H     H_    0.674533 0.808669 0.876148 0.173634
H8    H     H_    0.596043 0.673813 0.749273 0.210311
H9    H     H_    0.155264 0.517485 0.717500 0.175481
H10   H     H_    0.422659 0.357517 0.864056 0.169876
H11   H     H_    0.286613 0.539082 0.275492 0.153825
H12   H     H_    0.845724 0.613584 0.694286 0.174918
H13   H     H_    0.719622 0.599999 0.694996 0.166780
H14   H     H_    0.843668 0.409535 0.304044 0.182304
H15   H     H_    0.577509 0.119965 0.356793 0.157462
N1    N     N_R   0.034052 0.492759 0.379534 -0.147915
N2    N     N_R   0.965183 0.487575 0.380929 -0.228827
N3    N     N_R   0.967970 0.564352 0.609766 -0.225484
N4    N     N_R   0.036951 0.569272 0.608444 -0.242455
N5    N     N_R   0.500660 0.501210 0.147910 -0.224351
N6    N     N_R   0.500680 0.501290 0.852040 -0.212093
O1    O     O_R   0.499990 0.319640 0.618810 -0.556564
O2    O     O_R   0.500000 0.319660 0.381240 -0.540691
O3    O     O_R   0.400140 0.499970 0.618820 -0.573274
O4    O     O_R   0.400150 0.500000 0.381250 -0.545553
O5    O     O_R   0.500000 0.680340 0.618760 -0.609264
O6    O     O_R   0.500010 0.680360 0.381190 -0.598393
O7    O     O_R   0.599850 0.500000 0.618750 -0.585259
O8    O     O_R   0.599860 0.500030 0.381180 -0.587165
O9    O     O_3   0.358751 0.224411 0.582140 -0.600389
C37   C     C_3   0.317346 0.197246 0.462182 -0.311615
H16   H     H_    0.272062 0.131810 0.485026 0.164296
H17   H     H_    0.348507 0.159693 0.375988 0.184158
H18   H     H_    0.296078 0.283029 0.424674 0.189305
O10   O     O_3   0.410748 0.341813 0.146813 -0.543346
C38   C     C_3   0.343597 0.329974 0.087227 -0.373522
H19   H     H_    0.341208 0.259495 0.001618 0.171091
H20   H     H_    0.325923 0.420109 0.050296 0.141199
H21   H     H_    0.306517 0.296245 0.167943 0.188703
O11   O     O_3   0.688014 0.826546 0.144720 -0.710312
H22   H     H_    0.684331 0.813357 0.246473 0.308818
O12   O     O_3   0.151286 0.557822 0.243037 -0.713426
H23   H     H_    0.185312 0.560722 0.166009 0.315622
O13   O     O_3   0.711964 0.368862 0.285806 -0.709455
H24   H     H_    0.668195 0.329641 0.322354 0.325840

loop_
_geom_bond_atom_site_label_1
_geom_bond_atom_site_label_2
_ccdc_geom_bond_type
C31   O7    A    
C16   C21   A    
O10   C38   S    
C35   C36   A    
C2    C12   S    
C20   H5    S    
Cu1   O3    S    
C7    C8    A    
C31   O8    A    
C26   C27   A    
Cu1   Cu2   S    
C38   H20   S    
C8    O13   S    
C29   N5    A    
C30   H10   S    
C18   C19   A    
C5    C6    A    
C29   O10   S    
C15   C16   A    
C35   O12   S    
N3    N4    A    
C2    C32   A    
C34   C35   A    
C32   H1    S    
C37   H17   S    
C13   H2    S    
Cu2   N5    S    
C3    N2    A    
C22   H6    S    
C19   C20   A    
C8    C9    A    
C38   H21   S    
C4    N4    A    
C6    H13   S    
C9    C10   A    
Cu2   O2    S    
C19   H15   S    
C22   C28   A    
C13   C14   A    
Cu1   O7    S    
C9    H14   S    
C17   C18   A    
C4    C34   S    
C7    C31   S    
C38   H19   S    
C24   C25   A    
C1    O1    A    
C12   O4    A    
O11   H22   S    
O9    C37   S    
C25   C26   A    
C37   H18   S    
C29   C30   A    
C12   O3    A    
C3    N3    A    
Cu2   O6    S    
C30   N6    A    
C33   C34   A    
C1    C18   S    
C20   C21   A    
Cu1   N6    S    
C14   H3    S    
C24   O11   S    
C23   O5    A    
C21   C23   S    
C33   H9    S    
C22   C24   A    
C5    H12   S    
C25   H7    S    
Cu1   O5    S    
C11   O9    S    
Cu2   O4    S    
C2    C36   A    
N1    N2    A    
C11   C17   A    
C4    N1    A    
C15   H4    S    
O12   H23   S    
C1    O2    A    
C6    C7    A    
C28   N5    A    
C32   C33   A    
C23   O6    A    
C5    C10   A    
C3    C10   S    
C27   N6    A    
C11   C13   A    
C16   C17   A    
C37   H16   S    
Cu1   O1    S    
C26   H8    S    
Cu2   O8    S    
O13   H24   S    
C27   C28   A    
C14   C15   A    
C36   H11   S    
