data_mof_unit_66691.cif
_audit_creation_date              2012-12-11T16:27:34-0500
_audit_creation_method            fapswitch 2.2
_symmetry_space_group_name_H-M    P1
_symmetry_Int_Tables_number       1
_space_group_crystal_system       triclinic
_cell_length_a                    21.7289
_cell_length_b                    7.385102
_cell_length_c                    13.897808
_cell_angle_alpha                 89.855088
_cell_angle_beta                  100.57922
_cell_angle_gamma                 90.280017
_cell_volume                      2192.24537796

loop_
_atom_site_label
_atom_site_type_symbol
_atom_type_description
_atom_site_fract_x
_atom_site_fract_y
_atom_site_fract_z
_atom_type_partial_charge
O1    O     O_R   0.835850 0.638310 0.002120 -0.515592
O2    O     O_R   0.164150 0.361690 0.997880 -0.512867
O3    O     O_R   0.664150 0.138310 0.997880 -0.508360
O4    O     O_R   0.335850 0.861690 0.002120 -0.508647
O5    O     O_R   0.717530 0.306070 0.861970 -0.503842
O6    O     O_R   0.282470 0.693930 0.138030 -0.502971
O7    O     O_R   0.782470 0.806070 0.138030 -0.508834
O8    O     O_R   0.217530 0.193930 0.861970 -0.486381
C1    C     C_R   0.703990 0.476309 0.825526 0.838504
C2    C     C_R   0.295739 0.523076 0.174767 0.820164
C3    C     C_R   0.796161 0.975124 0.174282 0.846599
C4    C     C_R   0.203716 0.023045 0.825353 0.856826
O9    O     O_R   0.838690 0.308440 0.993250 -0.498636
O10   O     O_R   0.161310 0.691560 0.006750 -0.492657
O11   O     O_R   0.661310 0.808440 0.006750 -0.515984
O12   O     O_R   0.338690 0.191560 0.993250 -0.504436
O13   O     O_R   0.786170 0.140510 0.130090 -0.489428
O14   O     O_R   0.213830 0.859490 0.869910 -0.503610
O15   O     O_R   0.713830 0.640510 0.869910 -0.497059
O16   O     O_R   0.286170 0.359490 0.130090 -0.523089
C5    C     C_R   0.865410 0.475640 0.006417 0.893034
C6    C     C_R   0.134776 0.523518 0.996592 0.877321
C7    C     C_R   0.634562 0.975811 0.993789 0.901123
C8    C     C_R   0.365633 0.024437 0.008218 0.904518
O17   O     O_3   0.732630 0.472520 0.044740 -0.370204
O18   O     O_3   0.267370 0.527480 0.955260 -0.360315
O19   O     O_3   0.767370 0.972520 0.955260 -0.367333
O20   O     O_3   0.232630 0.027480 0.044740 -0.385217
V1    V     V_3+5 0.753220 0.196740 0.991700 1.809325
V2    V     V_3+5 0.246780 0.803260 0.008300 1.771524
V3    V     V_3+5 0.746780 0.696740 0.008300 1.780573
V4    V     V_3+5 0.253220 0.303260 0.991700 1.776067
H1    H     H_    0.614416 0.948925 0.330038 0.193198
H2    H     H_    0.387357 0.050303 0.670452 0.196587
H3    H     H_    0.887721 0.484367 0.669682 0.182469
H4    H     H_    0.113426 0.508586 0.330452 0.171894
C9    C     C_R   0.534286 0.006827 0.803028 0.520764
C10   C     C_R   0.467413 0.995947 0.199420 0.509919
C11   C     C_R   0.966521 0.471444 0.197646 0.495643
C12   C     C_R   0.034896 0.504783 0.803865 0.501568
C13   C     C_R   0.485013 0.022918 0.721315 0.361984
C14   C     C_R   0.517194 0.981322 0.280581 0.265139
C15   C     C_R   0.016535 0.465043 0.278554 0.278362
C16   C     C_R   0.985564 0.502763 0.721741 0.272977
C17   C     C_R   0.424254 0.038273 0.734054 -0.292925
C18   C     C_R   0.577538 0.964132 0.267045 -0.338407
C19   C     C_R   0.076563 0.502772 0.266745 -0.342981
C20   C     C_R   0.924470 0.489875 0.733648 -0.334145
C21   C     C_R   0.408452 0.044165 0.825355 0.312719
C22   C     C_R   0.592627 0.953236 0.175803 0.333164
C23   C     C_R   0.090278 0.547008 0.176739 0.320171
C24   C     C_R   0.908568 0.468037 0.824200 0.335720
C25   C     C_R   0.454485 0.021112 0.913306 -0.007952
C26   C     C_R   0.546269 0.978835 0.088382 0.003503
C27   C     C_R   0.045293 0.516468 0.088680 0.021772
C28   C     C_R   0.954480 0.484726 0.912563 0.016956
C29   C     C_R   0.519886 0.004167 0.903870 -0.136921
C30   C     C_R   0.480970 0.997665 0.098162 -0.089027
C31   C     C_R   0.980304 0.487984 0.097167 -0.087138
C32   C     C_R   0.020144 0.500970 0.904252 -0.076837
C33   C     C_R   0.435044 0.016567 0.008054 -0.057828
C34   C     C_R   0.565462 0.983786 0.993861 -0.095208
C35   C     C_R   0.065379 0.516113 0.994950 -0.057764
C36   C     C_R   0.934680 0.481821 0.006735 -0.060602
C37   C     C_R   0.170183 0.011074 0.721791 -0.162858
C38   C     C_R   0.828002 0.975952 0.278144 -0.163380
C39   C     C_R   0.328405 0.513301 0.278662 -0.148177
C40   C     C_R   0.671728 0.482438 0.721761 -0.190497
C41   C     C_R   0.180116 0.000933 0.549718 0.542787
C42   C     C_R   0.814559 0.974300 0.448395 0.555096
C43   C     C_R   0.318394 0.532313 0.450307 0.541042
C44   C     C_R   0.682615 0.466755 0.550287 0.556419
C45   C     C_R   0.206282 0.021273 0.648331 -0.181780
C46   C     C_R   0.790097 0.987115 0.348928 -0.211517
C47   C     C_R   0.291644 0.510517 0.351643 -0.235213
C48   C     C_R   0.708648 0.489038 0.649187 -0.222436
C49   C     C_R   0.103159 0.997425 0.696655 0.436501
C50   C     C_R   0.894727 0.966648 0.305725 0.455365
C51   C     C_R   0.395293 0.507807 0.304858 0.481901
C52   C     C_R   0.605052 0.478713 0.694868 0.539526
C53   C     C_R   0.074803 0.971486 0.593390 -0.031826
C54   C     C_R   0.921299 0.951152 0.410173 -0.051692
C55   C     C_R   0.423310 0.508355 0.408631 -0.043413
C56   C     C_R   0.577479 0.479916 0.591394 -0.023785
C57   C     C_R   0.115743 0.961849 0.523287 -0.083685
C58   C     C_R   0.879327 0.947058 0.478753 -0.079120
C59   C     C_R   0.383777 0.550264 0.476697 -0.046075
C60   C     C_R   0.617381 0.443408 0.523263 -0.091872
C61   C     C_R   0.009057 0.941480 0.554486 0.117326
C62   C     C_R   0.986651 0.930799 0.451502 0.123752
C63   C     C_R   0.487652 0.469758 0.450577 0.059362
C64   C     C_R   0.513003 0.515877 0.550247 0.127006
C65   C     C_R   0.029283 0.866816 0.397901 -0.117888
C66   C     C_R   0.965918 0.890632 0.611520 -0.157462
C67   C     C_R   0.474448 0.610585 0.601811 -0.045563
C68   C     C_R   0.526661 0.376172 0.399353 -0.106114
C69   C     C_R   0.092306 0.895434 0.429041 -0.145303
C70   C     C_R   0.902674 0.903118 0.576844 -0.090841
C71   C     C_R   0.410665 0.613790 0.569938 -0.081605
C72   C     C_R   0.590823 0.379549 0.430025 -0.085105
H5    H     H_    0.121799 0.860709 0.377725 0.199866
H6    H     H_    0.872994 0.875228 0.629158 0.223266
H7    H     H_    0.383250 0.671908 0.619131 0.199113
H8    H     H_    0.618801 0.326284 0.380323 0.218673
H9    H     H_    0.740425 0.007231 0.326050 0.198817
H10   H     H_    0.256144 0.040203 0.668235 0.196006
H11   H     H_    0.758500 0.508789 0.670056 0.198488
H12   H     H_    0.241398 0.498820 0.331022 0.179962
H13   H     H_    0.014130 0.798423 0.329923 0.212447
H14   H     H_    0.980002 0.839784 0.683944 0.220092
H15   H     H_    0.492397 0.676384 0.669879 0.201440
H16   H     H_    0.508744 0.313386 0.330639 0.221185
S1    S     S_3+6 0.607325 0.979009 0.758382 0.054173
O21   O     O_2   0.667524 0.962535 0.827914 -0.331453
O22   O     O_2   0.599574 0.817454 0.695129 -0.363081
O23   O     O_3   0.617217 0.136779 0.677694 -0.492675
H17   H     H_    0.657571 0.107486 0.657998 0.383910
S2    S     S_3+6 0.395051 0.013783 0.246225 0.033654
O24   O     O_2   0.388327 0.852724 0.307176 -0.340036
O25   O     O_2   0.402508 0.162869 0.318845 -0.364299
O26   O     O_3   0.326729 0.041911 0.173749 -0.490104
H18   H     H_    0.296040 0.041474 0.218537 0.371560
S3    S     S_3+6 0.893305 0.472487 0.242840 0.053580
O27   O     O_2   0.833209 0.499269 0.174336 -0.328896
O28   O     O_2   0.887541 0.304843 0.298048 -0.335836
O29   O     O_3   0.897906 0.622216 0.332009 -0.511678
H19   H     H_    0.858460 0.607509 0.357445 0.379276
S4    S     S_3+6 0.109104 0.512733 0.761504 0.059170
O30   O     O_2   0.167155 0.557389 0.830848 -0.332837
O31   O     O_2   0.119048 0.337878 0.716680 -0.330462
O32   O     O_3   0.105784 0.648669 0.665853 -0.500629
H20   H     H_    0.146509 0.633695 0.644478 0.380361
O33   O     O_3   0.497568 0.029884 0.626862 -0.580553
H21   H     H_    0.458366 0.044740 0.578165 0.326093
O34   O     O_3   0.505441 0.971335 0.375573 -0.585153
H22   H     H_    0.544890 0.957252 0.423782 0.316538
O35   O     O_3   0.005279 0.428423 0.371950 -0.590857
H23   H     H_    0.045107 0.426632 0.420115 0.329661
O36   O     O_3   0.998284 0.496256 0.627402 -0.587681
H24   H     H_    0.958982 0.490129 0.578175 0.321386
O37   O     O_3   0.345994 0.071118 0.825882 -0.669797
H25   H     H_    0.330668 0.167065 0.777409 0.315870
O38   O     O_3   0.654560 0.917273 0.174529 -0.670910
H26   H     H_    0.670547 0.829695 0.227396 0.315916
O39   O     O_3   0.148046 0.624805 0.175964 -0.658116
H27   H     H_    0.165673 0.676287 0.241078 0.303723
O40   O     O_3   0.846712 0.426833 0.824188 -0.671171
H28   H     H_    0.830967 0.346131 0.768005 0.312293
S5    S     S_3+6 0.937802 0.991413 0.204835 0.007426
O41   O     O_2   0.932865 0.817902 0.149751 -0.348077
O42   O     O_2   0.907007 0.128637 0.133237 -0.328420
O43   O     O_3   0.013614 0.052063 0.229618 -0.496631
H29   H     H_    0.017159 0.133265 0.286235 0.342926
S6    S     S_3+6 0.060755 0.029784 0.797178 0.006328
O44   O     O_2   0.054128 0.853778 0.846600 -0.353728
O45   O     O_2   0.095786 0.150876 0.874332 -0.322713
O46   O     O_3   0.989363 0.119861 0.765232 -0.507313
H30   H     H_    0.990007 0.175893 0.701080 0.331644
S7    S     S_3+6 0.560861 0.455847 0.792470 -0.030138
O47   O     O_2   0.495331 0.388999 0.758109 -0.371633
O48   O     O_2   0.593226 0.328378 0.868286 -0.362996
O49   O     O_3   0.557327 0.650515 0.851138 -0.528794
H31   H     H_    0.535474 0.620306 0.905761 0.364063
S8    S     S_3+6 0.438121 0.524794 0.204416 -0.007879
O50   O     O_2   0.433064 0.349487 0.150502 -0.342891
O51   O     O_2   0.408006 0.662418 0.132244 -0.344248
O52   O     O_3   0.514262 0.579990 0.232868 -0.508261
H32   H     H_    0.518201 0.649650 0.293876 0.329317
S9    S     S_3+6 0.229163 0.026417 0.459914 0.041619
O53   O     O_2   0.231797 0.853530 0.404584 -0.379219
O54   O     O_2   0.202214 0.169750 0.387745 -0.324296
O55   O     O_3   0.302767 0.082684 0.511593 -0.477434
H33   H     H_    0.325279 0.097084 0.456193 0.389550
S10   S     S_3+6 0.763478 0.005337 0.534303 0.023743
O56   O     O_2   0.763152 0.841596 0.598305 -0.329960
O57   O     O_2   0.786962 0.162546 0.599153 -0.366993
O58   O     O_3   0.689599 0.045865 0.477857 -0.509059
H34   H     H_    0.663371 0.954401 0.503763 0.362447
S11   S     S_3+6 0.270256 0.522337 0.541575 0.052950
O59   O     O_2   0.295260 0.381391 0.616369 -0.310794
O60   O     O_2   0.272306 0.699822 0.594185 -0.359119
O61   O     O_3   0.195472 0.471878 0.493497 -0.469530
H35   H     H_    0.173496 0.589366 0.485239 0.334817
S12   S     S_3+6 0.730821 0.501832 0.460645 0.044970
O62   O     O_2   0.729076 0.343088 0.393048 -0.323358
O63   O     O_2   0.706346 0.662905 0.399710 -0.350722
O64   O     O_3   0.805639 0.541470 0.513837 -0.507173
H36   H     H_    0.829582 0.435334 0.497926 0.363513

loop_
_geom_bond_atom_site_label_1
_geom_bond_atom_site_label_2
_ccdc_geom_bond_type
C40   C52   A    
C71   H7    S    
O1    C5    A    
C8    C33   S    
C12   C32   A    
C27   C31   A    
O19   V1    S    
O13   V1    S    
S9    O53   D    
O3    C7    A    
O40   H28   S    
C72   H8    S    
C51   S8    S    
C52   C56   A    
O15   V3    S    
S4    O30   D    
C13   O33   S    
O39   H27   S    
C37   C45   A    
O34   H22   S    
C66   C70   A    
C2    C39   S    
S12   O62   D    
O7    C3    A    
C68   H16   S    
C31   C36   A    
O46   H30   S    
S3    O27   D    
C32   C35   A    
O9    V1    S    
S8    O50   D    
C10   C14   A    
C20   C24   A    
S5    O42   D    
C26   C30   A    
O4    C8    A    
C67   C71   A    
S3    O28   D    
C9    S1    S    
C23   O39   S    
O38   H26   S    
C12   S4    S    
O1    V3    S    
C11   S3    S    
O23   H17   S    
H4    C19   S    
O2    V4    S    
C14   C18   A    
C43   S11   S    
C61   C66   A    
O3    V1    S    
S2    O24   D    
C5    C36   S    
C63   C68   A    
C10   C30   A    
C25   C33   A    
C1    O15   A    
C7    C34   S    
C2    O16   A    
C51   C55   A    
C27   C35   A    
O2    C6    A    
S7    O48   D    
C41   C45   A    
O14   V2    S    
C49   C53   A    
O5    V1    S    
C3    C38   S    
C44   C48   A    
S1    O23   S    
C53   C61   A    
C30   C33   A    
O11   C7    A    
C6    C35   S    
C11   C31   A    
C47   H12   S    
O12   C8    A    
H1    C18   S    
S9    O54   D    
O10   V2    S    
H3    C20   S    
C44   C60   A    
S2    O25   D    
O17   V1    S    
C9    C29   A    
C38   C50   A    
O7    V3    S    
O19   V3    S    
O8    V4    S    
O20   V4    S    
C37   C49   A    
C44   S12   S    
S6    O46   S    
S5    O43   S    
O52   H32   S    
C25   C29   A    
O18   V4    S    
C52   S7    S    
C11   C15   A    
C26   C34   A    
C29   C34   A    
C54   C58   A    
C66   H14   S    
C64   C67   A    
O4    V2    S    
C28   C32   A    
C21   O37   S    
C14   O34   S    
S2    O26   S    
C42   C46   A    
C49   S6    S    
C50   C54   A    
C4    C37   S    
S7    O47   D    
C17   C21   A    
O8    C4    A    
C69   H5    S    
C28   C36   A    
S6    O44   D    
S7    O49   S    
O9    C5    A    
H2    C17   S    
C41   S9    S    
C40   C48   A    
C42   S10   S    
S10   O58   S    
O26   H18   S    
C60   C72   A    
C43   C59   A    
O6    V2    S    
O18   V2    S    
C48   H11   S    
O33   H21   S    
S9    O55   S    
O12   V4    S    
O49   H31   S    
O32   H20   S    
C42   C58   A    
S4    O32   S    
C65   C69   A    
C63   C64   A    
C41   C57   A    
O55   H33   S    
C62   C65   A    
S1    O21   D    
O16   V4    S    
C3    O13   A    
S6    O45   D    
O17   V3    S    
S8    O52   S    
C56   C60   A    
O5    C1    A    
S3    O29   S    
S4    O31   D    
C55   C59   A    
O6    C2    A    
C19   C23   A    
O36   H24   S    
O11   V3    S    
C22   O38   S    
C16   O36   S    
C55   C63   A    
O35   H23   S    
C18   C22   A    
C54   C62   A    
S12   O64   S    
S11   O61   S    
O20   V2    S    
C1    C40   S    
O64   H36   S    
C22   C26   A    
C16   C20   A    
C70   H6    S    
S5    O41   D    
C46   H9    S    
C43   C47   A    
O10   C6    A    
C45   H10   S    
O29   H19   S    
C21   C25   A    
C68   C72   A    
S8    O51   D    
S12   O63   D    
C15   O35   S    
C23   C27   A    
C9    C13   A    
C58   C70   A    
S10   O57   D    
C57   C69   A    
S11   O59   D    
C10   S2    S    
C59   C71   A    
C24   C28   A    
C12   C16   A    
C39   C47   A    
O43   H29   S    
O58   H34   S    
C4    O14   A    
C13   C17   A    
C67   H15   S    
C56   C64   A    
S11   O60   D    
C61   C62   A    
O37   H25   S    
C15   C19   A    
C39   C51   A    
C53   C57   A    
O61   H35   S    
C50   S5    S    
C65   H13   S    
C24   O40   S    
S1    O22   D    
S10   O56   D    
C38   C46   A    
