data_mof_unit_9533.cif
_audit_creation_date              2012-10-26T19:25:39-0400
_audit_creation_method            fapswitch 2.2
_symmetry_space_group_name_H-M    P1
_symmetry_Int_Tables_number       1
_space_group_crystal_system       triclinic
_cell_length_a                    15.091019
_cell_length_b                    13.698135
_cell_length_c                    11.711255
_cell_angle_alpha                 89.915586
_cell_angle_beta                  90.443678
_cell_angle_gamma                 89.976688
_cell_volume                      2420.86133887

loop_
_atom_site_label
_atom_site_type_symbol
_atom_type_description
_atom_site_fract_x
_atom_site_fract_y
_atom_site_fract_z
_atom_type_partial_charge
C1    C     C_R   0.328672 0.500091 0.493973 0.584595
C2    C     C_R   0.557137 0.206934 0.431101 0.093777
C3    C     C_R   0.556338 0.793182 0.430043 0.067875
C4    C     C_R   0.442912 0.206825 0.568933 0.069780
C5    C     C_R   0.557675 0.896376 0.427755 -0.031130
C6    C     C_R   0.441044 0.103639 0.570498 -0.031436
C7    C     C_R   0.441993 0.896264 0.571806 -0.025687
C8    C     C_R   0.558834 0.103745 0.429276 -0.026289
C9    C     C_R   0.499870 0.948216 0.499820 -0.059801
C10   C     C_R   0.499924 0.051796 0.499873 -0.059610
C11   C     C_R   0.614992 0.948505 0.354936 0.270769
C12   C     C_R   0.671316 0.499903 0.505812 0.584211
C13   C     C_R   0.381639 0.051514 0.640491 0.273159
C14   C     C_R   0.384492 0.948292 0.644376 0.277395
C15   C     C_R   0.617977 0.051726 0.358916 0.271913
C16   C     C_R   0.500755 0.500035 0.283823 0.574489
C17   C     C_R   0.499214 0.499975 0.716176 0.577232
C18   C     C_1   0.500576 0.500129 0.162231 0.020954
C19   C     C_1   0.499369 0.499937 0.837768 0.022151
C20   C     C_1   0.500216 0.500115 0.059839 -0.014688
C21   C     C_1   0.499719 0.500010 0.940160 -0.014338
C22   C     C_R   0.812832 0.575554 0.457918 -0.173596
C23   C     C_R   0.904707 0.577560 0.455593 0.005438
C24   C     C_R   0.187049 0.423965 0.540622 -0.172195
C25   C     C_R   0.768141 0.500053 0.513588 -0.019133
C26   C     C_R   0.231821 0.499874 0.485724 -0.012457
C27   C     C_R   0.816219 0.427019 0.573898 0.236940
C28   C     C_R   0.183780 0.573205 0.425775 0.196489
C29   C     C_R   0.909185 0.422533 0.560154 0.016050
C30   C     C_R   0.090722 0.577290 0.438894 0.001344
C31   C     C_R   0.953369 0.499813 0.503482 0.026256
C32   C     C_R   0.046525 0.499783 0.495138 0.031530
C33   C     C_3   0.631081 0.889517 0.175748 -0.103481
C34   C     C_R   0.095160 0.421942 0.542859 0.007099
C35   C     C_3   0.242263 0.111769 0.653067 -0.102665
C36   C     C_3   0.367389 0.888955 0.823443 -0.094442
C37   C     C_3   0.758032 0.109566 0.344047 -0.098023
C38   C     C_R   0.959481 0.342830 0.600403 -0.076808
C39   C     C_R   0.040332 0.656914 0.398548 -0.093314
C40   C     C_R   0.051375 0.343401 0.593556 -0.128680
C41   C     C_R   0.948433 0.656093 0.404867 -0.126203
C42   C     C_R   0.443449 0.793072 0.569675 0.093402
Cu1   Cu    Cu3+1 0.500000 0.597420 0.500000 1.020784
Cu2   Cu    Cu3+1 0.500000 0.402580 0.500000 1.022496
H1    H     H_    0.775694 0.633060 0.415282 0.138246
H2    H     H_    0.398779 0.248358 0.622677 0.159536
H3    H     H_    0.799182 0.280365 0.836125 0.373633
H4    H     H_    0.154187 0.611247 0.179887 0.343535
H5    H     H_    0.619245 0.962111 0.135633 0.166227
H6    H     H_    0.567836 0.847979 0.181234 0.111345
H7    H     H_    0.676015 0.848081 0.119070 0.147896
H8    H     H_    0.211853 0.039637 0.633499 0.171943
H9    H     H_    0.249650 0.155355 0.573383 0.093450
H10   H     H_    0.195997 0.151748 0.709362 0.141347
H11   H     H_    0.379008 0.961444 0.863639 0.165035
H12   H     H_    0.224127 0.366272 0.583008 0.126198
H13   H     H_    0.430664 0.847368 0.818563 0.092753
H14   H     H_    0.322137 0.847440 0.879725 0.166628
H15   H     H_    0.788303 0.036585 0.359417 0.162257
H16   H     H_    0.752268 0.150219 0.425846 0.146177
H17   H     H_    0.803590 0.151313 0.288415 0.148083
H18   H     H_    0.928695 0.278270 0.635153 0.190697
H19   H     H_    0.070986 0.721653 0.364127 0.205208
H20   H     H_    0.088277 0.281840 0.627472 0.102862
H21   H     H_    0.911471 0.717595 0.370794 0.131765
H22   H     H_    0.399486 0.751460 0.623662 0.168381
H23   H     H_    0.601412 0.248544 0.377537 0.166437
H24   H     H_    0.600232 0.751655 0.375966 0.156977
N1    N     N_R   0.500000 0.743810 0.500000 -0.250949
N2    N     N_R   0.500000 0.256190 0.500000 -0.250195
O1    O     O_R   0.370260 0.582280 0.500020 -0.445702
O2    O     O_2   0.734853 0.257716 0.622499 -0.319684
O3    O     O_3   0.831717 0.327568 0.787931 -0.537994
O4    O     O_2   0.263916 0.743893 0.380923 -0.244988
O5    O     O_2   0.318493 0.601616 0.276680 -0.276547
O6    O     O_3   0.169897 0.675637 0.212678 -0.519711
O7    O     O_3   0.672087 0.898820 0.283776 -0.576852
O8    O     O_3   0.323975 0.101133 0.710949 -0.566666
O9    O     O_3   0.326989 0.898531 0.715033 -0.560379
O10   O     O_3   0.675308 0.101562 0.288078 -0.571488
O11   O     O_R   0.629740 0.417720 0.499980 -0.452137
O12   O     O_R   0.629740 0.582280 0.499980 -0.527706
O13   O     O_R   0.370260 0.417720 0.500020 -0.533475
O14   O     O_R   0.500010 0.582270 0.337200 -0.470956
O15   O     O_R   0.499990 0.417730 0.662800 -0.463734
O16   O     O_R   0.499990 0.582270 0.662800 -0.521429
O17   O     O_R   0.500010 0.417730 0.337200 -0.514100
O18   O     O_2   0.683050 0.402510 0.725165 -0.265715
S1    S     S_3+6 0.762885 0.351828 0.677738 0.000267
S2    S     S_3+6 0.237427 0.650086 0.323768 0.011376

loop_
_geom_bond_atom_site_label_1
_geom_bond_atom_site_label_2
_ccdc_geom_bond_type
C38   C40   A    
C35   H9    S    
H4    O6    S    
C3    H24   S    
Cu2   O13   S    
C4    N2    A    
C39   C41   A    
C4    H2    S    
C1    O1    A    
C17   O15   A    
C19   C21   T    
C24   C26   A    
C5    C11   A    
C36   H14   S    
C27   C29   A    
C33   H5    S    
C16   O14   A    
C7    C42   A    
C11   O7    S    
O5    S2    D    
C11   C15   A    
C7    C14   A    
C31   C32   A    
C22   C25   A    
C29   C38   A    
C12   O11   A    
C16   O17   A    
Cu2   N2    S    
Cu2   O17   S    
C9    C10   A    
Cu1   N1    S    
C13   C14   A    
C35   H10   S    
Cu1   O14   S    
C37   O10   S    
C17   O16   A    
H3    O3    S    
C4    C6    A    
Cu2   O11   S    
C41   H21   S    
C23   C31   A    
C33   H6    S    
C42   N1    A    
C24   C34   A    
C33   H7    S    
C2    H23   S    
C32   C34   A    
Cu1   Cu2   S    
C5    C9    A    
C15   O10   S    
C12   O12   A    
C14   O9    S    
O18   S1    D    
C37   H15   S    
C16   C18   S    
C36   H13   S    
C8    C15   A    
C1    C26   S    
C34   C40   A    
C1    O13   A    
Cu2   O15   S    
C7    C9    A    
C13   O8    S    
Cu1   O1    S    
C3    N1    A    
Cu1   O16   S    
C2    C8    A    
C3    C5    A    
C36   O9    S    
C40   H20   S    
C6    C10   A    
C37   H17   S    
C24   H12   S    
C39   H19   S    
C35   O8    S    
C26   C28   A    
C23   C41   A    
C12   C25   S    
O4    S2    D    
C28   C30   A    
O3    S1    S    
C29   C31   A    
C36   H11   S    
C6    C13   A    
C30   C32   A    
O2    S1    D    
C33   O7    S    
C17   C19   S    
C30   C39   A    
C27   S1    S    
C18   C20   T    
C37   H16   S    
C22   H1    S    
C20   C21   S    
C8    C10   A    
C35   H8    S    
C42   H22   S    
Cu1   O12   S    
C22   C23   A    
C28   S2    S    
C2    N2    A    
O6    S2    S    
C38   H18   S    
C25   C27   A    
