data_mof_unit_24347.cif
_audit_creation_date              2012-12-10T17:33:14-0500
_audit_creation_method            fapswitch 2.2
_symmetry_space_group_name_H-M    P1
_symmetry_Int_Tables_number       1
_space_group_crystal_system       triclinic
_cell_length_a                    15.534627
_cell_length_b                    15.401899
_cell_length_c                    17.904518
_cell_angle_alpha                 91.035176
_cell_angle_beta                  109.802274
_cell_angle_gamma                 69.000641
_cell_volume                      3736.74419376

loop_
_atom_site_label
_atom_site_type_symbol
_atom_type_description
_atom_site_fract_x
_atom_site_fract_y
_atom_site_fract_z
_atom_type_partial_charge
C1    C     C_R   0.465236 0.740473 0.532286 0.499402
C2    C     C_R   0.602291 0.404870 0.081634 -0.138471
C3    C     C_R   0.661815 0.349685 0.042787 -0.133787
C4    C     C_R   0.536446 0.258499 0.470637 0.486285
C5    C     C_R   0.642088 0.371457 0.961490 0.042622
C6    C     C_R   0.556702 0.450989 0.918669 0.012391
C7    C     C_R   0.705518 0.315338 0.922199 0.033085
C8    C     C_R   0.679688 0.337249 0.838681 0.019270
C9    C     C_R   0.531470 0.467243 0.835902 -0.148476
C10   C     C_R   0.469853 0.938854 0.651706 -0.133263
C11   C     C_R   0.455319 0.835520 0.549267 0.029308
C12   C     C_R   0.341694 0.667162 0.160269 -0.128475
C13   C     C_R   0.565593 0.127869 0.388357 -0.118981
C14   C     C_R   0.579587 0.035395 0.372606 0.016810
C15   C     C_R   0.582461 0.971619 0.430358 0.026628
C16   C     C_R   0.757791 0.447528 0.532920 0.498259
C17   C     C_R   0.546032 0.008947 0.492271 0.029170
C18   C     C_R   0.547872 0.097131 0.513908 -0.010956
C19   C     C_R   0.509820 0.961732 0.534512 0.018209
C20   C     C_R   0.501044 0.989973 0.608790 0.044890
C21   C     C_R   0.525461 0.066944 0.639150 0.010838
C22   C     C_R   0.547757 0.119672 0.590517 -0.091939
C23   C     C_R   0.475004 0.523248 0.162868 -0.128567
C24   C     C_R   0.478497 0.889151 0.503075 -0.127819
C25   C     C_R   0.450435 0.860864 0.623275 -0.123673
C26   C     C_R   0.553149 0.158941 0.459359 -0.002372
C27   C     C_R   0.024641 0.384681 0.648414 -0.129505
C28   C     C_R   0.242046 0.553050 0.469971 0.495464
C29   C     C_R   0.861022 0.429908 0.549427 0.037454
C30   C     C_R   0.066608 0.630104 0.383526 -0.134671
C31   C     C_R   0.967143 0.642306 0.360056 0.042111
C32   C     C_R   0.938156 0.593749 0.406189 -0.135941
C33   C     C_R   0.006422 0.536363 0.478029 0.002657
C34   C     C_R   0.459859 0.545459 0.082288 0.030472
C35   C     C_R   0.104816 0.533316 0.505354 0.025182
C36   C     C_R   0.979751 0.483414 0.524676 0.032972
C37   C     C_R   0.049348 0.435616 0.600521 0.052104
C38   C     C_R   0.141725 0.441999 0.629576 -0.137426
C39   C     C_R   0.168529 0.491209 0.583438 -0.109335
C40   C     C_R   0.560959 0.440223 0.711739 0.492952
C41   C     C_R   0.885955 0.477012 0.499319 -0.126723
C42   C     C_R   0.930366 0.383274 0.623522 -0.125714
C43   C     C_R   0.136377 0.574247 0.454506 -0.009174
C44   C     C_R   0.440857 0.558989 0.287577 0.506252
C45   C     C_R   0.381877 0.630050 0.040912 0.051118
C46   C     C_R   0.417935 0.583798 0.202198 0.018538
C47   C     C_R   0.591492 0.412935 0.796954 0.030722
C48   C     C_R   0.323447 0.689860 0.080015 -0.133618
C49   C     C_3   0.800225 0.233327 0.969061 -0.277324
C50   C     C_3   0.779685 0.144696 0.976842 -0.443161
C51   C     C_3   0.524249 0.092963 0.721791 -0.285921
C52   C     C_3   0.556909 0.173884 0.751362 -0.445637
C53   C     C_3   0.646428 0.867533 0.436544 -0.278604
C54   C     C_3   0.716627 0.824213 0.521756 -0.424815
C55   C     C_3   0.589863 0.007673 0.293206 -0.279589
C56   C     C_R   0.519957 0.486616 0.041939 0.034868
C57   C     C_3   0.497828 0.065044 0.222410 -0.438717
C58   C     C_2   0.893331 0.704320 0.286169 0.572465
C59   C     C_3   0.743630 0.280119 0.792971 -0.276021
C60   C     C_3   0.822018 0.318357 0.793668 -0.431980
C61   C     C_R   0.498141 0.511383 0.959535 0.039379
C62   C     C_R   0.420289 0.597321 0.921203 -0.134665
C63   C     C_R   0.363479 0.654975 0.961174 -0.133553
H1    H     H_    0.304934 0.720217 0.929369 0.104921
H2    H     H_    0.077119 0.348914 0.706537 0.104945
H3    H     H_    0.828997 0.511202 0.442879 0.102484
H4    H     H_    0.090218 0.663073 0.345397 0.174245
H5    H     H_    0.861234 0.604034 0.385657 0.150364
H6    H     H_    0.238901 0.497977 0.611327 0.144031
H7    H     H_    0.723018 0.288709 0.078442 0.115613
H8    H     H_    0.264034 0.754759 0.048584 0.107537
H9    H     H_    0.296492 0.714917 0.189500 0.140328
H10   H     H_    0.530532 0.458837 0.196918 0.127880
H11   H     H_    0.402824 0.624299 0.860638 0.102581
H12   H     H_    0.434561 0.818232 0.660333 0.109443
H13   H     H_    0.625397 0.381627 0.144028 0.106431
H14   H     H_    0.725954 0.155895 0.007490 0.153936
H15   H     H_    0.749451 0.123699 0.916872 0.147261
H16   H     H_    0.849399 0.086750 0.012138 0.146300
H17   H     H_    0.857061 0.217974 0.941423 0.144595
H18   H     H_    0.837422 0.250531 0.028807 0.136226
H19   H     H_    0.633638 0.157458 0.754256 0.135962
H20   H     H_    0.506198 0.240025 0.711833 0.183839
H21   H     H_    0.555172 0.184057 0.812481 0.144311
H22   H     H_    0.448111 0.111603 0.721598 0.145987
H23   H     H_    0.463454 0.956020 0.708876 0.102221
H24   H     H_    0.574004 0.030620 0.766450 0.143549
H25   H     H_    0.756847 0.869961 0.550311 0.156787
H26   H     H_    0.676926 0.812433 0.559133 0.169038
H27   H     H_    0.771579 0.754962 0.519714 0.145570
H28   H     H_    0.601755 0.825326 0.409264 0.135001
H29   H     H_    0.696611 0.858979 0.402859 0.159926
H30   H     H_    0.431259 0.058565 0.228043 0.160948
H31   H     H_    0.488055 0.140022 0.218663 0.146279
H32   H     H_    0.505321 0.038455 0.165957 0.141537
H33   H     H_    0.655295 0.017834 0.288662 0.152945
H34   H     H_    0.475524 0.870986 0.444104 0.111093
H35   H     H_    0.599797 0.933343 0.286818 0.152616
H36   H     H_    0.750685 0.761880 0.213059 0.338118
H37   H     H_    0.786867 0.389658 0.760474 0.184862
H38   H     H_    0.867832 0.321724 0.855682 0.147282
H39   H     H_    0.870882 0.271870 0.764318 0.122243
H40   H     H_    0.778927 0.204992 0.816980 0.133080
H41   H     H_    0.698306 0.280280 0.729847 0.133298
H42   H     H_    0.565726 0.175932 0.344995 0.137578
H43   H     H_    0.568668 0.176918 0.613640 0.145652
H44   H     H_    0.910245 0.348555 0.663211 0.101698
H45   H     H_    0.463912 0.521588 0.798823 0.095026
H46   H     H_    0.193524 0.409309 0.688788 0.105952
O1    O     O_3   0.500000 0.500000 0.500000 -0.432173
O2    O     O_R   0.596500 0.492780 0.688380 -0.544461
O3    O     O_R   0.388780 0.611210 0.325000 -0.543376
O4    O     O_R   0.499860 0.410860 0.661600 -0.563632
O5    O     O_R   0.514860 0.485140 0.325020 -0.546929
O6    O     O_2   0.919226 0.744403 0.244521 -0.526740
O7    O     O_R   0.793618 0.717676 0.264123 -0.723380
O8    O     O_R   0.707110 0.418540 0.472990 -0.536914
O9    O     O_R   0.267620 0.606720 0.435250 -0.544578
O10   O     O_R   0.540230 0.674660 0.578090 -0.537963
O11   O     O_R   0.485030 0.300080 0.513670 -0.546315
O12   O     O_R   0.403610 0.721990 0.472930 -0.538452
O13   O     O_R   0.571130 0.303270 0.435320 -0.546681
O14   O     O_R   0.717650 0.497270 0.578120 -0.545541
O15   O     O_R   0.307610 0.477470 0.513630 -0.540576
Zn1   Zn    Zn3+2 0.572030 0.427990 0.434470 0.931128
Zn2   Zn    Zn3+2 0.587090 0.540470 0.584680 0.925723
Zn3   Zn    Zn3+2 0.449010 0.423430 0.546420 0.914118
Zn4   Zn    Zn3+2 0.391880 0.608100 0.434430 0.942218

loop_
_geom_bond_atom_site_label_1
_geom_bond_atom_site_label_2
_ccdc_geom_bond_type
C40   C47   S    
C34   C56   A    
C29   C42   A    
C19   C20   A    
C18   C26   A    
C12   C48   A    
C50   H16   S    
C51   H22   S    
C6    C9    A    
O11   Zn3   S    
C7    C8    A    
C53   C54   S    
C9    H45   S    
C62   C63   A    
C59   H41   S    
C15   C53   S    
C6    C61   A    
C36   C37   A    
C16   O14   A    
C54   H27   S    
C8    C59   S    
C30   C31   A    
C11   C25   A    
C11   C24   A    
C33   C36   A    
C1    O10   A    
C49   H18   S    
C52   H21   S    
C17   C19   A    
C31   C32   A    
C10   C20   A    
C1    C11   S    
C53   H28   S    
C35   C43   A    
C42   H44   S    
C30   H4    S    
O1    Zn3   S    
C32   H5    S    
C14   C55   S    
C12   H9    S    
C44   O5    A    
C59   C60   S    
C23   C46   A    
C57   H30   S    
C13   C14   A    
C58   O7    S    
C36   C41   A    
O9    Zn4   S    
C23   H10   S    
C60   H39   S    
C50   H15   S    
C44   C46   S    
C40   O2    A    
C38   C39   A    
C24   H34   S    
C3    H7    S    
C7    C49   S    
C54   H26   S    
C13   H42   S    
C51   H24   S    
H36   O7    S    
C5    C7    A    
O5    Zn1   S    
O14   Zn2   S    
C3    C5    A    
C16   C29   S    
C22   H43   S    
C45   C63   A    
C51   C52   S    
C25   H12   S    
C52   H20   S    
C35   C39   A    
C37   C38   A    
C27   H2    S    
C40   O4    A    
C23   C34   A    
C53   H29   S    
C17   C18   A    
C39   H6    S    
C4    O13   A    
C56   C61   A    
C34   C45   A    
C38   H46   S    
C52   H19   S    
O2    Zn2   S    
O12   Zn4   S    
O15   Zn3   S    
C44   O3    A    
C10   C25   A    
C12   C46   A    
O1    Zn2   S    
C9    C47   A    
C57   H31   S    
C55   C57   S    
C58   O6    D    
C30   C43   A    
C48   H8    S    
C60   H38   S    
C50   H14   S    
C21   C51   S    
C2    H13   S    
C31   C58   S    
C45   C48   A    
C15   C17   A    
C10   H23   S    
C29   C41   A    
C18   C22   A    
C62   H11   S    
C55   H33   S    
C60   H37   S    
C4    C26   S    
C28   O15   A    
C41   H3    S    
O4    Zn3   S    
C28   C43   S    
C49   H17   S    
C59   H40   S    
C32   C33   A    
O13   Zn1   S    
C2    C3    A    
C8    C47   A    
C2    C56   A    
C16   O8    A    
C54   H25   S    
C27   C42   A    
C5    C6    A    
C27   C37   A    
C55   H35   S    
C33   C35   A    
C19   C24   A    
C61   C62   A    
C13   C26   A    
C1    O12   A    
O3    Zn4   S    
O1    Zn1   S    
C63   H1    S    
O10   Zn2   S    
C20   C21   A    
C49   C50   S    
C57   H32   S    
C14   C15   A    
C4    O11   A    
C28   O9    A    
C21   C22   A    
O8    Zn1   S    
O1    Zn4   S    
