data_mof_unit_44129.cif
_audit_creation_date              2012-12-10T20:30:15-0500
_audit_creation_method            fapswitch 2.2
_symmetry_space_group_name_H-M    P1
_symmetry_Int_Tables_number       1
_space_group_crystal_system       triclinic
_cell_length_a                    9.860959
_cell_length_b                    10.725665
_cell_length_c                    13.266284
_cell_angle_alpha                 88.563335
_cell_angle_beta                  69.9427
_cell_angle_gamma                 88.4262
_cell_volume                      1317.33416633

loop_
_atom_site_label
_atom_site_type_symbol
_atom_type_description
_atom_site_fract_x
_atom_site_fract_y
_atom_site_fract_z
_atom_type_partial_charge
C1    C     C_R   0.497368 0.739545 0.501100 0.888010
C2    C     C_R   0.449407 0.532004 0.974978 0.090756
C3    C     C_R   0.466363 0.475838 0.876093 0.084526
C4    C     C_R   0.554644 0.505468 0.023825 0.081784
C5    C     C_R   0.682219 0.437724 0.967204 0.156691
C6    C     C_R   0.696006 0.383005 0.870734 -0.266503
C7    C     C_R   0.583850 0.392622 0.830940 -0.212498
C8    C     C_R   0.533043 0.537125 0.129492 -0.293094
C9    C     C_R   0.770283 0.451814 0.115811 -0.007738
C10   C     C_R   0.371149 0.509849 0.820646 -0.118837
C11   C     C_R   0.389765 0.940362 0.479862 0.099039
C12   C     C_R   0.420122 0.497559 0.704087 0.845853
C13   C     C_R   0.485576 0.869897 0.514613 -0.194200
C14   C     C_R   0.569835 0.926167 0.564934 -0.229256
C15   C     C_R   0.578529 0.054915 0.563711 -0.028975
C16   C     C_R   0.496839 0.126684 0.512638 -0.152611
C17   C     C_R   0.396126 0.067629 0.478309 0.030952
C18   C     C_3   0.373388 0.078642 0.372411 -0.552563
C19   C     C_3   0.365629 0.937611 0.374915 0.476734
C20   C     C_R   0.908710 0.600230 0.537597 0.233817
C21   C     C_R   0.951712 0.406269 0.454805 -0.109907
C22   C     C_R   0.095331 0.405809 0.455389 -0.151427
C23   C     C_R   0.500505 0.259621 0.503029 0.887626
C24   C     C_R   0.051384 0.600170 0.537459 0.289065
C25   C     C_3   0.005466 0.649788 0.648226 -0.520117
C26   C     C_3   0.851374 0.650074 0.648651 -0.504028
C27   C     C_R   0.580839 0.502559 0.295802 0.863026
C28   C     C_R   0.792036 0.419223 0.010185 -0.251965
C29   C     C_R   0.633519 0.501938 0.178431 -0.117331
C30   C     C_R   0.248411 0.584091 0.870367 -0.193649
C31   C     C_R   0.229079 0.636776 0.968961 -0.125028
C32   C     C_R   0.331334 0.615676 0.018742 -0.183980
H1    H     H_    0.269532 0.126057 0.378457 0.212805
H2    H     H_    0.469352 0.115173 0.307337 0.155468
H3    H     H_    0.453933 0.890189 0.310322 0.048189
H4    H     H_    0.916982 0.331566 0.416998 0.156989
H5    H     H_    0.168143 0.329455 0.419751 0.145472
H6    H     H_    0.025143 0.581856 0.706656 0.204192
H7    H     H_    0.046714 0.744914 0.649689 0.223354
H8    H     H_    0.781897 0.582974 0.707722 0.234836
H9    H     H_    0.791869 0.329036 0.828136 0.163834
H10   H     H_    0.804186 0.745541 0.650880 0.205883
H11   H     H_    0.893195 0.374795 0.962508 0.140142
H12   H     H_    0.432009 0.579026 0.178498 0.162545
H13   H     H_    0.174616 0.610886 0.828764 0.148593
H14   H     H_    0.317161 0.668444 0.089852 0.130066
H15   H     H_    0.138443 0.699895 0.004290 0.136819
H16   H     H_    0.593508 0.338440 0.761268 0.185880
H17   H     H_    0.636298 0.869689 0.599378 0.172125
N1    N     N_R   0.856940 0.500860 0.500710 -0.113496
N2    N     N_R   0.142580 0.500820 0.500710 -0.115770
O1    O     O_R   0.385310 0.683210 0.499990 -0.592311
O2    O     O_R   0.614650 0.683240 0.500000 -0.618349
O3    O     O_R   0.328390 0.499940 0.653610 -0.617665
O4    O     O_R   0.557730 0.499980 0.653620 -0.615038
O5    O     O_R   0.385350 0.316760 0.500000 -0.613706
O6    O     O_R   0.614690 0.316790 0.500010 -0.624674
O7    O     O_R   0.442270 0.500020 0.346380 -0.613605
O8    O     O_R   0.671610 0.500060 0.346390 -0.611945
Zn1   Zn    Zn3+2 0.346870 0.499980 0.499990 0.954219
Zn2   Zn    Zn3+2 0.653130 0.500020 0.500010 0.948054
C33   C     C_R   0.892333 0.429945 0.155664 0.148390
C34   C     C_R   0.951068 0.530148 0.191922 -0.090293
C35   C     C_R   0.076893 0.512650 0.216961 -0.134750
C36   C     C_R   0.147921 0.396382 0.202441 -0.120316
C37   C     C_R   0.089428 0.295835 0.167816 -0.154388
C38   C     C_R   0.961974 0.312227 0.144752 -0.175737
H18   H     H_    0.900930 0.622154 0.198897 0.117233
H19   H     H_    0.120728 0.589826 0.246050 0.138106
H20   H     H_    0.247344 0.383877 0.219319 0.141914
H21   H     H_    0.143576 0.205481 0.157876 0.140984
H22   H     H_    0.919307 0.233936 0.116000 0.124179
C39   C     C_R   0.683378 0.102715 0.609197 0.146097
C40   C     C_R   0.826489 0.119905 0.541527 -0.109105
C41   C     C_R   0.936468 0.130666 0.584789 -0.103725
C42   C     C_R   0.905005 0.121229 0.695574 -0.128646
C43   C     C_R   0.763432 0.100720 0.763319 -0.161286
C44   C     C_R   0.652880 0.092090 0.720514 -0.196174
H23   H     H_    0.853766 0.118446 0.455211 0.126255
H24   H     H_    0.046771 0.142479 0.532328 0.144102
H25   H     H_    0.990576 0.127964 0.728797 0.128726
H26   H     H_    0.739442 0.090772 0.849050 0.140177
H27   H     H_    0.544643 0.071414 0.773559 0.136559
F1    F     F_    0.228778 0.896710 0.387377 -0.665380

loop_
_geom_bond_atom_site_label_1
_geom_bond_atom_site_label_2
_ccdc_geom_bond_type
C27   C29   S    
C39   C40   A    
C30   H13   S    
C4    C8    A    
C23   O5    A    
C21   H4    S    
O3    Zn1   S    
C43   C44   A    
C11   C19   S    
C33   C38   A    
C8    C29   A    
C18   C19   S    
C3    C7    A    
C5    C6    A    
C14   H17   S    
O7    Zn1   S    
C36   H20   S    
C2    C32   A    
C38   H22   S    
C1    O2    A    
C20   N1    A    
O1    Zn1   S    
O2    Zn2   S    
C44   H27   S    
C37   H21   S    
C16   C17   A    
C6    H9    S    
C39   C44   A    
C41   H24   S    
C9    C29   A    
C24   N2    A    
C37   C38   A    
C31   H15   S    
C13   C14   A    
C21   N1    A    
C18   H1    S    
O8    Zn2   S    
C40   C41   A    
C9    C33   S    
C20   C24   A    
C42   C43   A    
C25   C26   S    
C22   H5    S    
O5    Zn1   S    
C2    C4    A    
C41   C42   A    
C33   C34   A    
C25   H6    S    
C5    C28   A    
C10   C30   A    
C31   C32   A    
C17   C18   S    
C35   H19   S    
C24   C25   S    
C18   H2    S    
C25   H7    S    
C10   C12   S    
C15   C39   S    
C16   C23   S    
C40   H23   S    
C1    C13   S    
C19   F1    S    
C26   H10   S    
C23   O6    A    
C34   H18   S    
C11   C17   A    
C32   H14   S    
C8    H12   S    
C4    C5    A    
C27   O7    A    
C42   H25   S    
O6    Zn2   S    
C6    C7    A    
C28   H11   S    
C7    H16   S    
C2    C3    A    
C3    C10   A    
C27   O8    A    
C35   C36   A    
C11   C13   A    
C26   H8    S    
C30   C31   A    
C20   C26   S    
C43   H26   S    
O4    Zn2   S    
C1    O1    A    
C12   O4    A    
C34   C35   A    
C36   C37   A    
N1    Zn2   S    
C14   C15   A    
C19   H3    S    
N2    Zn1   S    
C21   C22   A    
C12   O3    A    
C15   C16   A    
C9    C28   A    
C22   N2    A    
