data_mof_unit_35077.cif
_audit_creation_date              2012-12-10T19:04:19-0500
_audit_creation_method            fapswitch 2.2
_symmetry_space_group_name_H-M    P1
_symmetry_Int_Tables_number       1
_space_group_crystal_system       triclinic
_cell_length_a                    10.8674
_cell_length_b                    13.010086
_cell_length_c                    13.603029
_cell_angle_alpha                 86.255731
_cell_angle_beta                  90.100117
_cell_angle_gamma                 92.966856
_cell_volume                      1916.59500106

loop_
_atom_site_label
_atom_site_type_symbol
_atom_type_description
_atom_site_fract_x
_atom_site_fract_y
_atom_site_fract_z
_atom_type_partial_charge
C1    C     C_R   0.497557 0.481583 0.685200 0.889045
C2    C     C_1   0.497665 0.467485 0.788245 -0.157582
C3    C     C_2   0.485031 0.035550 0.460647 -0.081755
C4    C     C_R   0.742550 0.498681 0.502338 0.851208
C5    C     C_2   0.484833 0.961352 0.537624 -0.102132
C6    C     C_1   0.506326 0.852695 0.523737 0.123290
C7    C     C_1   0.480737 0.146114 0.475677 0.169349
C8    C     C_R   0.504410 0.518526 0.314846 0.915319
C9    C     C_R   0.257445 0.499489 0.499012 0.829830
C10   C     C_3   0.923433 0.387389 0.548679 -0.180982
C11   C     C_3   0.069347 0.380483 0.547659 -0.015214
C12   C     C_3   0.121732 0.493534 0.502331 -0.075530
C13   C     C_3   0.926854 0.529001 0.393939 -0.169394
C14   C     C_3   0.933355 0.581001 0.571604 -0.247640
C15   C     C_3   0.878005 0.496091 0.500879 -0.082793
C16   C     C_R   0.850999 0.284062 0.532235 0.159068
C17   C     C_R   0.789084 0.229894 0.612936 -0.099086
C18   C     C_R   0.749108 0.126550 0.608351 -0.126628
C19   C     C_R   0.766396 0.076086 0.522529 -0.133522
C20   C     C_R   0.817871 0.130157 0.439636 -0.161566
C21   C     C_R   0.860316 0.232793 0.444666 -0.146016
C22   C     C_R   0.593904 0.642595 0.966791 0.170005
C23   C     C_3   0.070511 0.527578 0.394379 -0.191348
C24   C     C_R   0.541652 0.737291 0.979911 -0.161671
C25   C     C_R   0.587529 0.827253 0.927633 -0.155076
C26   C     C_R   0.687259 0.823722 0.863427 -0.113150
C27   C     C_R   0.741459 0.730237 0.851592 -0.096695
C28   C     C_R   0.694775 0.639905 0.902550 -0.171412
C29   C     C_2   0.464814 0.984688 0.641939 0.341637
C30   C     C_2   0.497802 0.011435 0.355752 0.339811
C31   C     C_2   0.120023 0.368130 0.653535 0.344411
C32   C     C_R   0.110621 0.276201 0.504784 0.108939
C33   C     C_R   0.084791 0.180256 0.560381 -0.079573
C34   C     C_3   0.076889 0.581088 0.571343 -0.244659
C35   C     C_R   0.113515 0.085583 0.525827 -0.105707
C36   C     C_R   0.170205 0.082000 0.434911 -0.115377
C37   C     C_R   0.201524 0.173330 0.380072 -0.183942
C38   C     C_R   0.174552 0.268217 0.415274 -0.117475
C39   C     C_R   0.862193 0.500450 0.297331 0.105484
C40   C     C_R   0.889886 0.564924 0.211319 -0.109142
C41   C     C_R   0.857174 0.534087 0.117976 -0.110475
C42   C     C_R   0.792219 0.440136 0.108547 -0.105024
C43   C     C_R   0.752968 0.380604 0.192660 -0.157008
C44   C     C_R   0.785053 0.411800 0.286187 -0.178764
C45   C     C_1   0.520495 0.533504 0.212461 -0.143861
C46   C     C_R   0.131951 0.498835 0.297768 0.100198
C47   C     C_R   0.091610 0.412139 0.246480 -0.115276
C48   C     C_R   0.133814 0.397659 0.151789 -0.141956
C49   C     C_R   0.211462 0.472593 0.103182 -0.131724
C50   C     C_R   0.247664 0.561416 0.149666 -0.134051
C51   C     C_R   0.212738 0.572781 0.246875 -0.184011
C52   C     C_2   0.895139 0.691904 0.551238 0.454114
C53   C     C_R   0.135222 0.595932 0.674164 0.097837
C54   C     C_R   0.236120 0.668276 0.682651 -0.116114
C55   C     C_R   0.287299 0.688252 0.774187 -0.125124
C56   C     C_2   0.544537 0.546853 0.021771 0.014167
C57   C     C_R   0.235793 0.640329 0.860041 -0.113490
C58   C     C_R   0.132154 0.573369 0.854515 -0.152713
C59   C     C_R   0.081893 0.551752 0.763136 -0.113189
C60   C     C_2   0.506748 0.460862 0.979352 -0.257918
C61   C     C_1   0.500274 0.460021 0.875622 0.021551
C62   C     C_1   0.533786 0.543777 0.125621 -0.031167
H1    H     H_    0.108587 0.655002 0.531324 0.133631
H2    H     H_    0.830675 0.091098 0.372836 0.142677
H3    H     H_    0.910835 0.268411 0.383039 0.126974
H4    H     H_    0.464552 0.741308 0.029537 0.125251
H5    H     H_    0.545953 0.899785 0.937099 0.146315
H6    H     H_    0.722992 0.893499 0.823341 0.133251
H7    H     H_    0.820116 0.727736 0.803393 0.181555
H8    H     H_    0.738069 0.568128 0.892734 0.120838
H9    H     H_    0.479091 0.925445 0.700266 0.058509
H10   H     H_    0.510036 0.074323 0.299523 0.055234
H11   H     H_    0.215334 0.390778 0.668518 0.111404
H12   H     H_    0.905912 0.611746 0.387322 0.109520
H13   H     H_    0.037077 0.176822 0.630035 0.182495
H14   H     H_    0.090116 0.014701 0.569449 0.137196
H15   H     H_    0.192291 0.008691 0.407936 0.137931
H16   H     H_    0.250308 0.171051 0.310978 0.131601
H17   H     H_    0.212282 0.333746 0.373355 0.172460
H18   H     H_    0.945016 0.636203 0.216134 0.121038
H19   H     H_    0.884871 0.582019 0.052969 0.127095
H20   H     H_    0.768643 0.415192 0.036230 0.131537
H21   H     H_    0.697141 0.310144 0.185514 0.134424
H22   H     H_    0.749729 0.364785 0.347486 0.179480
H23   H     H_    0.095815 0.611589 0.388619 0.112907
H24   H     H_    0.026495 0.355460 0.279095 0.132921
H25   H     H_    0.103047 0.329656 0.115015 0.138853
H26   H     H_    0.242397 0.462348 0.029136 0.142991
H27   H     H_    0.304140 0.621598 0.110760 0.128703
H28   H     H_    0.244406 0.642571 0.280480 0.140398
H29   H     H_    0.926287 0.737628 0.485588 0.038965
H30   H     H_    0.274539 0.711988 0.618635 0.146141
H31   H     H_    0.365761 0.742532 0.778537 0.138633
H32   H     H_    0.274662 0.656760 0.930877 0.125063
H33   H     H_    0.089293 0.538697 0.921218 0.136563
H34   H     H_    0.472617 0.392323 0.023056 0.161161
H35   H     H_    0.001088 0.500106 0.764064 0.154352
H36   H     H_    0.900003 0.396491 0.626673 0.150039
H37   H     H_    0.895263 0.558977 0.645710 0.152391
H38   H     H_    0.778258 0.265304 0.682046 0.131861
H39   H     H_    0.707591 0.084880 0.672386 0.145512
H40   H     H_    0.739694 0.995073 0.520059 0.154161
N1    N     N_1   0.479840 0.234530 0.484780 -0.075208
N2    N     N_1   0.520150 0.765470 0.515220 -0.064065
O1    O     O_R   0.492620 0.402510 0.634760 -0.600467
O2    O     O_2   0.492757 0.923149 0.330080 -0.568098
O3    O     O_2   0.058721 0.327183 0.722015 -0.630503
O4    O     O_2   0.831705 0.732254 0.610307 -0.596543
O5    O     O_R   0.505570 0.572960 0.644530 -0.600676
O6    O     O_R   0.678730 0.414780 0.495130 -0.634789
O7    O     O_R   0.691680 0.585220 0.504900 -0.584827
O8    O     O_R   0.494430 0.427040 0.355470 -0.627990
O9    O     O_R   0.507380 0.597490 0.365240 -0.596030
O10   O     O_R   0.308320 0.414780 0.495100 -0.639144
O11   O     O_R   0.321270 0.585220 0.504870 -0.636280
O12   O     O_2   0.430196 0.067813 0.664433 -0.557431
Zn1   Zn    Zn3+2 0.491360 0.386190 0.493470 0.977610
Zn2   Zn    Zn3+2 0.508640 0.613810 0.506530 1.004079

loop_
_geom_bond_atom_site_label_1
_geom_bond_atom_site_label_2
_ccdc_geom_bond_type
C16   C21   A    
C43   H21   S    
C41   C42   A    
C35   C36   A    
C25   H5    S    
C58   H33   S    
C53   C59   A    
C14   H37   S    
C53   C54   A    
C12   C23   S    
C26   C27   A    
O7    Zn2   S    
C9    O10   A    
C36   C37   A    
C18   C19   A    
C3    C7    S    
C36   H15   S    
C8    O8    A    
C51   H28   S    
C5    C6    S    
C19   H40   S    
C31   H11   S    
C38   H17   S    
C45   C62   T    
C13   C23   S    
C1    C2    S    
C10   H36   S    
C8    C45   S    
C1    O5    A    
C46   C47   A    
C33   H13   S    
C14   C52   S    
C19   C20   A    
C16   C17   A    
C42   H20   S    
C40   H18   S    
C32   C38   A    
C5    C29   S    
C27   H7    S    
C2    C61   T    
C24   H4    S    
C11   C31   S    
C23   C46   S    
C7    N1    T    
C30   O2    D    
C49   H26   S    
O1    Zn1   S    
N1    Zn1   S    
O6    Zn1   S    
C17   H38   S    
O5    Zn2   S    
C50   C51   A    
N2    Zn2   S    
C35   H14   S    
C9    O11   A    
C47   H24   S    
C24   C25   A    
C39   C40   A    
C22   C56   S    
C44   H22   S    
C58   C59   A    
C46   C51   A    
C56   C60   D    
C60   C61   S    
C18   H39   S    
C20   H2    S    
C3    C30   S    
C43   C44   A    
C54   H30   S    
C37   C38   A    
C50   H27   S    
C47   C48   A    
O11   Zn2   S    
C41   H19   S    
C17   C18   A    
C48   H25   S    
C13   H12   S    
C8    O9    A    
C60   H34   S    
C48   C49   A    
C29   O12   D    
C11   C32   S    
C6    N2    T    
C57   H32   S    
C55   C57   A    
C59   H35   S    
C56   C62   S    
C42   C43   A    
C12   C34   S    
C4    O6    A    
C54   C55   A    
C40   C41   A    
C21   H3    S    
C31   O3    D    
C4    O7    A    
C28   H8    S    
C3    C5    D    
C14   C34   S    
C30   H10   S    
C11   C12   S    
C39   C44   A    
C37   H16   S    
C10   C15   S    
C26   H6    S    
C32   C33   A    
C4    C15   S    
C13   C15   S    
C25   C26   A    
C10   C16   S    
C57   C58   A    
O8    Zn1   S    
C34   H1    S    
C33   C35   A    
C22   C24   A    
C9    C12   S    
C13   C39   S    
O10   Zn1   S    
C10   C11   S    
O9    Zn2   S    
C20   C21   A    
C52   O4    D    
C34   C53   S    
C49   C50   A    
C23   H23   S    
C27   C28   A    
C14   C15   S    
C52   H29   S    
C22   C28   A    
C55   H31   S    
C1    O1    A    
C29   H9    S    
