data_mof_unit_20255.cif
_audit_creation_date              2012-12-10T19:00:45-0500
_audit_creation_method            fapswitch 2.2
_symmetry_space_group_name_H-M    P1
_symmetry_Int_Tables_number       1
_space_group_crystal_system       triclinic
_cell_length_a                    15.030536
_cell_length_b                    10.84142
_cell_length_c                    9.578366
_cell_angle_alpha                 90.647811
_cell_angle_beta                  90.51804
_cell_angle_gamma                 90.908827
_cell_volume                      1560.45481787

loop_
_atom_site_label
_atom_site_type_symbol
_atom_type_description
_atom_site_fract_x
_atom_site_fract_y
_atom_site_fract_z
_atom_type_partial_charge
C1    C     C_R   0.497199 0.262627 0.499294 0.873661
C2    C     C_R   0.906564 0.605708 0.559421 -0.149207
C3    C     C_R   0.949181 0.299737 0.395018 -0.136432
C4    C     C_R   0.042060 0.294272 0.400955 -0.016789
C5    C     C_R   0.092053 0.398908 0.450869 -0.043219
C6    C     C_R   0.046525 0.503851 0.502661 0.018899
C7    C     C_R   0.094268 0.608988 0.554773 -0.036878
C8    C     C_R   0.046931 0.708807 0.611194 -0.269554
C9    C     C_R   0.954639 0.707212 0.614091 0.694917
C10   C     C_R   0.185648 0.403661 0.448678 0.498098
C11   C     C_R   0.232516 0.506961 0.500462 -0.160665
C12   C     C_R   0.329160 0.503361 0.499773 0.900505
C13   C     C_R   0.188029 0.611117 0.552437 -0.081974
C14   C     C_R   0.486487 0.065869 0.623557 -0.098946
C15   C     C_R   0.486445 0.129855 0.498375 -0.146318
C16   C     C_R   0.472286 0.063608 0.373193 -0.216684
C17   C     C_R   0.472138 0.934778 0.373213 0.602095
C18   C     C_R   0.487094 0.871094 0.499300 -0.129856
C19   C     C_R   0.487254 0.938839 0.624296 -0.179504
C20   C     C_3   0.548631 0.937374 0.748058 0.393975
C21   C     C_3   0.547379 0.077075 0.746904 1.074975
C22   C     C_R   0.574742 0.532745 0.075026 0.245759
C23   C     C_R   0.497644 0.737793 0.500201 0.913876
C24   C     C_R   0.431338 0.446926 0.070700 0.014757
C25   C     C_R   0.430707 0.451400 0.922280 0.059829
C26   C     C_R   0.575342 0.530595 0.928324 0.232449
C27   C     C_3   0.627723 0.648027 0.924408 -0.369661
C28   C     C_3   0.625926 0.651125 0.083165 -0.463290
C29   C     C_R   0.670812 0.500451 0.500501 0.897590
C30   C     C_R   0.813283 0.603004 0.560407 0.604352
C31   C     C_R   0.766926 0.502336 0.501595 -0.198929
C32   C     C_R   0.811905 0.403274 0.443265 -0.272119
C33   C     C_R   0.904613 0.402396 0.445745 0.108263
C34   C     C_R   0.952692 0.503999 0.502637 -0.046668
Cu1   Cu    Cu3+1 0.500000 0.499980 0.640670 1.058390
Cu2   Cu    Cu3+1 0.500000 0.500020 0.359330 1.002772
H1    H     H_    0.517245 0.897010 0.841938 0.088016
H2    H     H_    0.375438 0.411615 0.863276 0.180201
H3    H     H_    0.695393 0.634792 0.881431 0.251931
H4    H     H_    0.589297 0.722131 0.876220 0.245259
H5    H     H_    0.692687 0.639818 0.131761 0.215291
H6    H     H_    0.774367 0.325683 0.399026 0.180784
H7    H     H_    0.586391 0.728122 0.126511 0.268014
H8    H     H_    0.910847 0.220852 0.355808 0.192024
H9    H     H_    0.080633 0.788940 0.656009 0.176331
H10   H     H_    0.465627 0.110795 0.274654 0.195929
N1    N     N_R   0.500570 0.500930 0.147930 -0.228025
N2    N     N_R   0.500570 0.500890 0.852020 -0.211796
O1    O     O_R   0.500000 0.319640 0.618810 -0.544702
O2    O     O_R   0.500010 0.319680 0.381230 -0.630432
O3    O     O_R   0.370250 0.499950 0.618800 -0.566315
O4    O     O_R   0.370260 0.499990 0.381220 -0.597380
O5    O     O_R   0.499990 0.680320 0.618770 -0.552659
O6    O     O_R   0.500000 0.680360 0.381190 -0.545725
O7    O     O_R   0.629740 0.500010 0.618780 -0.550031
O8    O     O_R   0.629750 0.500050 0.381200 -0.596452
F1    F     F_    0.766897 0.698597 0.614880 -0.570300
F2    F     F_    0.461961 0.874223 0.249126 -0.648463
F3    F     F_    0.631310 0.891153 0.714727 -0.567682
F4    F     F_    0.506532 0.128240 0.862328 -0.682188
F5    F     F_    0.628795 0.131863 0.716833 -0.601345
C35   C     C_2   0.359409 0.374496 0.136181 0.489425
H11   H     H_    0.372055 0.321679 0.228795 0.148587
O9    O     O_2   0.284962 0.369485 0.084027 -0.509283
C36   C     C_2   0.082745 0.174974 0.361600 0.510106
H12   H     H_    0.140788 0.141863 0.416573 0.128278
O10   O     O_2   0.049513 0.109646 0.269752 -0.506075
F6    F     F_    0.233369 0.310043 0.393450 -0.707704
C37   C     C_2   0.238616 0.725101 0.594745 0.360944
H13   H     H_    0.217859 0.814046 0.556403 0.083632
O11   O     O_2   0.301618 0.721410 0.675694 -0.516146
F7    F     F_    0.912959 0.805992 0.670409 -0.560517

loop_
_geom_bond_atom_site_label_1
_geom_bond_atom_site_label_2
_ccdc_geom_bond_type
Cu1   O5    S    
Cu1   Cu2   S    
C9    F7    S    
C7    C8    A    
C26   C27   S    
C14   C21   S    
C4    C36   S    
C3    C33   A    
C15   C16   A    
C30   F1    S    
C28   H5    S    
Cu2   N1    S    
C17   C18   A    
C18   C19   A    
C37   O11   D    
C8    H9    S    
C35   O9    D    
C19   C20   S    
C27   H3    S    
C8    C9    A    
C36   O10   D    
Cu1   O1    S    
C1    C15   S    
C1    O2    A    
C21   F5    S    
Cu2   O4    S    
C26   N2    A    
C17   F2    S    
C2    C34   A    
C22   N1    A    
C22   C28   S    
Cu1   N2    S    
C12   O4    A    
C23   O5    A    
C3    H8    S    
Cu1   O7    S    
C18   C23   S    
C24   C25   A    
C21   F4    S    
C16   H10   S    
C16   C17   A    
C29   O7    A    
C6    C34   A    
C35   H11   S    
Cu2   O8    S    
C25   H2    S    
C31   C32   A    
C27   H4    S    
C33   C34   A    
C20   F3    S    
C25   N2    A    
Cu1   O3    S    
C3    C4    A    
C12   O3    A    
Cu2   O2    S    
C23   O6    A    
C24   C35   S    
C24   N1    A    
C14   C19   A    
C4    C5    A    
C11   C12   S    
C6    C7    A    
C29   O8    A    
C10   F6    S    
C28   H7    S    
C2    C30   A    
C32   C33   A    
C5    C10   A    
C29   C31   S    
C20   H1    S    
C11   C13   A    
C30   C31   A    
C5    C6    A    
C13   C37   S    
C37   H13   S    
Cu2   O6    S    
C10   C11   A    
C7    C13   A    
C20   C21   S    
C36   H12   S    
C22   C26   A    
C27   C28   S    
C32   H6    S    
C14   C15   A    
C2    C9    A    
C1    O1    A    
