data_mof_unit_63958.cif
_audit_creation_date              2012-12-10T17:19:37-0500
_audit_creation_method            fapswitch 2.2
_symmetry_space_group_name_H-M    P1
_symmetry_Int_Tables_number       1
_space_group_crystal_system       triclinic
_cell_length_a                    10.131804
_cell_length_b                    10.909637
_cell_length_c                    11.549936
_cell_angle_alpha                 89.898105
_cell_angle_beta                  81.455783
_cell_angle_gamma                 96.34714
_cell_volume                      1254.54117382

loop_
_atom_site_label
_atom_site_type_symbol
_atom_type_description
_atom_site_fract_x
_atom_site_fract_y
_atom_site_fract_z
_atom_type_partial_charge
C1    C     C_R   0.557649 0.732149 0.493607 0.877929
C2    C     C_2   0.407457 0.135507 0.516008 -0.092105
C3    C     C_2   0.508025 0.941059 0.522419 0.132982
C4    C     C_2   0.500757 0.063452 0.469490 0.142860
C5    C     C_2   0.928011 0.510751 0.509230 -0.127288
C6    C     C_2   0.071994 0.489265 0.490752 -0.123884
C7    C     C_R   0.442407 0.267767 0.505054 0.895735
C8    C     C_R   0.500320 0.499985 0.717954 0.895605
C9    C     C_R   0.499700 0.500088 0.282041 0.904712
C10   C     C_1   0.500828 0.499987 0.838378 -0.192171
C11   C     C_1   0.499226 0.500204 0.161613 -0.190821
C12   C     C_1   0.500452 0.500075 0.940601 0.000114
C13   C     C_1   0.499620 0.500184 0.059388 0.000215
C14   C     C_2   0.594089 0.863008 0.473280 -0.148474
H1    H     H_    0.106524 0.420357 0.429264 0.162540
H2    H     H_    0.204628 0.115600 0.548088 0.191536
H3    H     H_    0.795556 0.876105 0.426126 0.205570
H4    H     H_    0.706502 0.857159 0.313489 0.188222
H5    H     H_    0.893485 0.579672 0.570704 0.162772
H6    H     H_    0.121584 0.616046 0.604098 0.162433
H7    H     H_    0.878408 0.383929 0.395925 0.164590
H8    H     H_    0.584841 0.049149 0.298365 0.194459
H9    H     H_    0.690932 0.121854 0.387409 0.222817
H10   H     H_    0.338020 0.852158 0.620132 0.223614
H11   H     H_    0.477980 0.863111 0.688213 0.167538
H12   H     H_    0.280194 0.125954 0.669131 0.195345
N1    N     N_2   0.842700 0.448890 0.453570 -0.192745
N2    N     N_2   0.157300 0.551110 0.546430 -0.193247
N3    N     N_3   0.593060 0.109740 0.367555 -0.458096
N4    N     N_3   0.424709 0.908273 0.633339 -0.444294
N5    N     N_3   0.283596 0.086874 0.586275 -0.456856
N6    N     N_3   0.712824 0.902988 0.392274 -0.492475
O1    O     O_R   0.431060 0.692470 0.509350 -0.616784
O2    O     O_R   0.568940 0.307530 0.490650 -0.592985
O3    O     O_R   0.651120 0.659650 0.479540 -0.613401
O4    O     O_R   0.348880 0.340350 0.520460 -0.622105
O5    O     O_R   0.389960 0.516400 0.680450 -0.606453
O6    O     O_R   0.610040 0.483600 0.319550 -0.601070
O7    O     O_R   0.610030 0.483580 0.650650 -0.606182
O8    O     O_R   0.389970 0.516420 0.349350 -0.605731
Zn1   Zn    Zn3+2 0.353060 0.521910 0.519900 0.937831
Zn2   Zn    Zn3+2 0.646940 0.478090 0.480100 0.947748

loop_
_geom_bond_atom_site_label_1
_geom_bond_atom_site_label_2
_ccdc_geom_bond_type
C3    N4    S    
C2    C4    D    
C5    H5    S    
C8    O7    A    
C9    C11   S    
C7    O4    A    
C2    C7    S    
O2    Zn2   S    
O1    Zn1   S    
H7    N1    S    
C1    O1    A    
H12   N5    S    
H2    N5    S    
C11   C13   T    
N1    Zn2   S    
O4    Zn1   S    
C3    C14   D    
C10   C12   T    
H9    N3    S    
C9    O6    A    
H8    N3    S    
O6    Zn2   S    
O7    Zn2   S    
O5    Zn1   S    
C5    C6    S    
C7    O2    A    
H10   N4    S    
H4    N6    S    
C8    O5    A    
C3    C4    S    
N2    Zn1   S    
C12   C13   S    
C1    O3    A    
C8    C10   S    
H11   N4    S    
O3    Zn2   S    
H3    N6    S    
O8    Zn1   S    
C1    C14   S    
H6    N2    S    
C6    H1    S    
C5    N1    D    
C9    O8    A    
C6    N2    D    
C4    N3    S    
C14   N6    S    
C2    N5    S    
