data_mof_unit_30448.cif
_audit_creation_date              2012-12-10T18:11:46-0500
_audit_creation_method            fapswitch 2.2
_symmetry_space_group_name_H-M    P1
_symmetry_Int_Tables_number       1
_space_group_crystal_system       triclinic
_cell_length_a                    10.473128
_cell_length_b                    12.742417
_cell_length_c                    13.072602
_cell_angle_alpha                 83.748573
_cell_angle_beta                  92.374424
_cell_angle_gamma                 101.197506
_cell_volume                      1700.82251998

loop_
_atom_site_label
_atom_site_type_symbol
_atom_type_description
_atom_site_fract_x
_atom_site_fract_y
_atom_site_fract_z
_atom_type_partial_charge
C1    C     C_R   0.493923 0.440491 0.691218 0.885368
C2    C     C_R   0.562043 0.439925 0.975624 0.004746
C3    C     C_R   0.578349 0.470220 0.870074 0.080534
C4    C     C_R   0.741632 0.499744 0.500050 0.840483
C5    C     C_R   0.587364 0.522795 0.041331 0.080968
C6    C     C_R   0.663175 0.624202 0.007392 0.180958
C7    C     C_R   0.709708 0.641973 0.907609 -0.239329
C8    C     C_R   0.665234 0.566309 0.838595 -0.199053
C9    C     C_R   0.527044 0.510271 0.135516 -0.247326
C10   C     C_R   0.635826 0.688520 0.171222 -0.165989
C11   C     C_R   0.508727 0.402668 0.800361 -0.099291
C12   C     C_3   0.062607 0.588185 0.541655 -0.110491
C13   C     C_R   0.372780 0.106247 0.314799 -0.234932
C14   C     C_R   0.657912 0.806072 0.629787 0.092721
C15   C     C_R   0.657342 0.899096 0.677610 -0.073221
C16   C     C_R   0.518295 0.558921 0.309067 0.909731
C17   C     C_R   0.587208 0.974084 0.631860 -0.188356
C18   C     C_R   0.523331 0.959163 0.536265 0.000718
C19   C     C_R   0.505935 0.855036 0.500641 0.100973
C20   C     C_R   0.476493 0.043953 0.475202 0.012628
C21   C     C_R   0.426450 0.027444 0.374888 0.119799
C22   C     C_R   0.422206 0.930134 0.336878 -0.245648
C23   C     C_3   0.960466 0.500544 0.599888 -0.174597
C24   C     C_R   0.439794 0.841052 0.403216 -0.019182
C25   C     C_R   0.481537 0.146789 0.507034 0.022370
C26   C     C_R   0.375874 0.203748 0.352085 0.018377
C27   C     C_R   0.258327 0.499134 0.502594 0.929932
C28   C     C_3   0.937635 0.408410 0.465442 -0.053439
C29   C     C_3   0.023559 0.411918 0.563072 0.006191
C30   C     C_3   0.123127 0.498647 0.505128 -0.043386
C31   C     C_3   0.038748 0.495406 0.406687 -0.306974
C32   C     C_3   0.975982 0.585019 0.442950 -0.109637
C33   C     C_2   0.055145 0.317351 0.630812 0.414975
C34   C     C_3   0.876356 0.497583 0.501094 -0.019388
C35   C     C_1   0.564959 0.288358 0.110911 0.230714
C36   C     C_2   0.415245 0.139968 0.966940 0.409501
C37   C     C_2   0.779790 0.763915 0.637475 0.451319
C38   C     C_2   0.868924 0.308760 0.420455 0.417547
C39   C     C_1   0.740193 0.925501 0.766065 0.133674
C40   C     C_2   0.333261 0.752006 0.385142 0.500537
C41   C     C_R   0.688455 0.706230 0.073089 -0.194257
C42   C     C_R   0.555216 0.589768 0.202430 -0.031578
C43   C     C_R   0.450622 0.296834 0.835957 -0.265804
C44   C     C_R   0.463863 0.256875 0.938970 0.006077
C45   C     C_R   0.521947 0.329030 0.010129 -0.041192
H1    H     H_    0.456581 0.437986 0.157495 0.158155
H2    H     H_    0.952474 0.655782 0.393856 0.172242
H3    H     H_    0.115981 0.661091 0.574987 0.152373
H4    H     H_    0.923990 0.502486 0.678100 0.144008
H5    H     H_    0.660306 0.750544 0.223058 0.177659
H6    H     H_    0.774252 0.716382 0.882063 0.149170
H7    H     H_    0.748652 0.783423 0.048679 0.161472
H8    H     H_    0.018194 0.236342 0.611226 0.103461
H9    H     H_    0.374910 0.089244 0.907361 0.067630
H10   H     H_    0.822863 0.742861 0.711488 0.008181
H11   H     H_    0.872157 0.303667 0.338365 0.075438
H12   H     H_    0.398997 0.243506 0.782298 0.171494
H13   H     H_    0.254085 0.733535 0.438444 0.049388
H14   H     H_    0.701415 0.581380 0.761523 0.146524
H15   H     H_    0.339115 0.267112 0.305161 0.133743
H16   H     H_    0.378450 0.918962 0.260903 0.205239
H17   H     H_    0.329133 0.092728 0.239683 0.196348
H18   H     H_    0.526075 0.170675 0.578652 0.128106
H19   H     H_    0.594112 0.047133 0.668041 0.144875
H20   H     H_    0.074892 0.493302 0.328403 0.169683
N1    N     N_R   0.432930 0.222190 0.444670 -0.111893
N2    N     N_R   0.566370 0.776980 0.554790 -0.134604
N3    N     N_1   0.601590 0.256664 0.190912 -0.169466
N4    N     N_1   0.806448 0.946831 0.836825 -0.200229
O1    O     O_R   0.467970 0.366730 0.627150 -0.617189
O2    O     O_2   0.418585 0.098496 0.055367 -0.590651
O3    O     O_2   0.843559 0.767724 0.560676 -0.561586
O4    O     O_2   0.806497 0.234388 0.475250 -0.573826
O5    O     O_2   0.321692 0.710973 0.304189 -0.597745
O6    O     O_R   0.510820 0.544830 0.662520 -0.628041
O7    O     O_R   0.664630 0.410960 0.482340 -0.592939
O8    O     O_R   0.707470 0.589060 0.517710 -0.588580
O9    O     O_R   0.489180 0.455170 0.337480 -0.638170
O10   O     O_R   0.532030 0.633270 0.372850 -0.590182
O11   O     O_R   0.292530 0.410940 0.482290 -0.622194
O12   O     O_R   0.335370 0.589040 0.517660 -0.649794
O13   O     O_2   0.123774 0.331214 0.707736 -0.579439
Zn1   Zn    Zn3+2 0.471390 0.381080 0.476380 0.968466
Zn2   Zn    Zn3+2 0.528610 0.618920 0.523620 0.975107

loop_
_geom_bond_atom_site_label_1
_geom_bond_atom_site_label_2
_ccdc_geom_bond_type
C10   C42   A    
C1    C11   S    
C12   H3    S    
C7    C8    A    
C12   C23   S    
C9    C42   A    
C23   C29   S    
C28   C29   S    
C8    H14   S    
O10   Zn2   S    
O6    Zn2   S    
C23   H4    S    
C20   C25   A    
C29   C33   S    
C15   C17   A    
C18   C19   A    
C25   H18   S    
N1    Zn1   S    
O9    Zn1   S    
C13   H17   S    
C6    C41   A    
C14   N2    A    
C19   N2    A    
C33   O13   D    
C41   H7    S    
C16   O9    A    
C36   O2    D    
C28   C34   S    
N2    Zn2   S    
C21   C22   A    
C12   C32   S    
C10   C41   A    
O11   Zn1   S    
O7    Zn1   S    
C2    C45   A    
C33   H8    S    
C4    C34   S    
C40   H13   S    
C1    O6    A    
C27   O12   A    
C3    C11   A    
C27   O11   A    
O8    Zn2   S    
C26   N1    A    
C43   C44   A    
C5    C9    A    
C29   C30   S    
C31   C32   S    
C28   C38   S    
C30   C31   S    
C23   C34   S    
C17   C18   A    
C39   N4    T    
C13   C21   A    
C11   C43   A    
O1    Zn1   S    
C15   C39   S    
C3    C8    A    
C32   H2    S    
C22   C24   A    
C13   C26   A    
C36   C44   S    
C2    C5    A    
C10   H5    S    
C16   C42   S    
O12   Zn2   S    
C44   C45   A    
C31   H20   S    
C12   C30   S    
C28   C31   S    
C25   N1    A    
C6    C7    A    
C1    O1    A    
C16   O10   A    
C2    C3    A    
C7    H6    S    
C4    O8    A    
C17   H19   S    
C22   H16   S    
C5    C6    A    
C35   N3    T    
C24   C40   S    
C40   O5    D    
C19   C24   A    
C18   C20   A    
C4    O7    A    
C36   H9    S    
C43   H12   S    
C37   H10   S    
C9    H1    S    
C38   H11   S    
C20   C21   A    
C14   C37   S    
C37   O3    D    
C14   C15   A    
C26   H15   S    
C32   C34   S    
C27   C30   S    
C38   O4    D    
C35   C45   S    
