data_mof_unit_61234.cif
_audit_creation_date              2012-12-10T16:44:39-0500
_audit_creation_method            fapswitch 2.2
_symmetry_space_group_name_H-M    P1
_symmetry_Int_Tables_number       1
_space_group_crystal_system       triclinic
_cell_length_a                    18.449328
_cell_length_b                    18.46152
_cell_length_c                    18.471375
_cell_angle_alpha                 119.776459
_cell_angle_beta                  119.865687
_cell_angle_gamma                 90.400102
_cell_volume                      4457.11761971

loop_
_atom_site_label
_atom_site_type_symbol
_atom_type_description
_atom_site_fract_x
_atom_site_fract_y
_atom_site_fract_z
_atom_type_partial_charge
C1    C     C_R   0.138547 0.361432 0.000314 0.868852
C2    C     C_R   0.912820 0.279508 0.248486 -0.241332
C3    C     C_R   0.967762 0.331469 0.248788 -0.178320
C4    C     C_R   0.859195 0.636410 0.997863 0.777795
C5    C     C_R   0.934137 0.339954 0.168093 0.622217
C6    C     C_2   0.722118 0.778064 0.941656 -0.118245
C7    C     C_2   0.701999 0.814609 0.009519 -0.242662
C8    C     C_2   0.784286 0.728474 0.950795 -0.247346
C9    C     C_2   0.788747 0.675350 0.982246 -0.139600
C10   C     C_2   0.721202 0.281027 0.443847 -0.157531
C11   C     C_2   0.696958 0.192319 0.387764 -0.289981
C12   C     C_R   0.569393 0.157781 0.834126 -0.151285
C13   C     C_2   0.779942 0.337199 0.556223 -0.155710
C14   C     C_2   0.803123 0.304540 0.612225 -0.289524
C15   C     C_2   0.337323 0.280948 0.059925 -0.152087
C16   C     C_R   0.138857 0.637780 0.277173 0.898166
C17   C     C_2   0.304458 0.192180 0.995529 -0.289922
C18   C     C_2   0.281245 0.337207 0.057578 -0.153336
C19   C     C_2   0.192384 0.304602 0.001354 -0.288730
C20   C     C_2   0.218473 0.780804 0.943658 -0.139745
C21   C     C_2   0.305768 0.796335 0.991032 -0.200486
C22   C     C_2   0.163661 0.718350 0.937788 -0.314621
C23   C     C_R   0.660174 0.203067 0.917475 0.083844
C24   C     C_2   0.195299 0.705097 0.011506 0.512127
C25   C     C_2   0.221427 0.747282 0.554344 -0.009754
C26   C     C_2   0.304524 0.804590 0.611561 -0.372683
C27   C     C_2   0.163620 0.704120 0.442890 -0.193768
C28   C     C_R   0.861138 0.361403 0.722948 0.844441
C29   C     C_2   0.196359 0.686335 0.387770 -0.321323
C30   C     C_R   0.638922 0.138419 0.277047 0.848735
C31   C     C_R   0.361151 0.859510 0.722836 0.903610
C32   C     C_R   0.639949 0.862876 0.001468 0.860756
C33   C     C_R   0.361350 0.138382 0.999551 0.851710
C34   C     C_R   0.714845 0.257430 0.917836 0.058375
C35   C     C_R   0.360346 0.859056 0.998626 0.842955
C36   C     C_R   0.639910 0.139903 0.000057 0.779434
C37   C     C_R   0.139730 0.640888 0.001335 0.745348
C38   C     C_R   0.860582 0.360062 0.000393 0.916287
C39   C     C_R   0.676893 0.265106 0.834792 -0.149189
C40   C     C_R   0.587543 0.219509 0.753479 -0.116653
C41   C     C_R   0.533947 0.165937 0.753111 -0.131477
C42   C     C_2   0.718426 0.644100 0.988381 0.905130
C43   C     C_2   0.184574 0.723314 0.598305 0.972453
C44   C     C_R   0.696532 0.196192 0.000661 -0.113204
C45   C     C_R   0.786983 0.242633 0.084199 0.014462
C46   C     C_R   0.842576 0.296431 0.084536 -0.057383
C47   C     C_R   0.805470 0.303791 0.001149 -0.159859
C48   C     C_R   0.823632 0.235043 0.167134 -0.151369
F1    F     F_    0.277332 0.755375 0.101336 -0.658665
F2    F     F_    0.992964 0.389682 0.172798 -0.689751
H1    H     H_    0.037371 0.365050 0.311863 0.172822
H2    H     H_    0.315141 0.408263 0.105214 0.182584
H3    H     H_    0.715462 0.306595 0.831783 0.115980
H4    H     H_    0.156193 0.234627 0.955125 0.154915
H5    H     H_    0.185696 0.812101 0.905519 0.181166
H6    H     H_    0.338484 0.760691 0.022690 0.211794
H7    H     H_    0.095110 0.683058 0.871126 0.154900
H8    H     H_    0.330869 0.817641 0.576664 0.149690
H9    H     H_    0.092175 0.681616 0.404406 0.217563
H10   H     H_    0.267163 0.701854 0.422805 0.165803
H11   H     H_    0.559719 0.226085 0.690669 0.142084
H12   H     H_    0.732310 0.809553 0.073756 0.154722
H13   H     H_    0.464458 0.130860 0.690019 0.140328
H14   H     H_    0.524685 0.116078 0.830794 0.124345
H15   H     H_    0.784074 0.194319 0.169970 0.142177
H16   H     H_    0.939635 0.272954 0.311240 0.169201
H17   H     H_    0.696775 0.788461 0.881671 0.181684
H18   H     H_    0.687959 0.608898 0.059922 0.346898
H19   H     H_    0.206216 0.697203 0.700030 0.340800
H20   H     H_    0.830713 0.739110 0.934332 0.179380
H21   H     H_    0.698270 0.314716 0.406522 0.181467
H22   H     H_    0.720380 0.156370 0.421734 0.155099
H23   H     H_    0.803787 0.408239 0.593625 0.180712
H24   H     H_    0.778840 0.234596 0.578199 0.154490
H25   H     H_    0.408525 0.314665 0.116414 0.181169
H26   H     H_    0.234340 0.156115 0.936379 0.154227
O1    O     O_3   0.000000 0.500000 0.000000 -0.505288
O2    O     O_R   0.325040 0.054120 0.939900 -0.644212
O3    O     O_R   0.444330 0.884140 0.060080 -0.628257
O4    O     O_R   0.054210 0.325030 0.939940 -0.635137
O5    O     O_R   0.615830 0.175840 0.060080 -0.638308
O6    O     O_R   0.324160 0.884140 0.939910 -0.636049
O7    O     O_R   0.615850 0.055700 0.939930 -0.640817
O8    O     O_R   0.614980 0.885710 0.939940 -0.642055
O9    O     O_R   0.445830 0.174930 0.060060 -0.641072
O10   O     O_R   0.614300 0.054120 0.229160 -0.639991
O11   O     O_R   0.325070 0.885060 0.770830 -0.617355
O12   O     O_R   0.054160 0.614240 0.229150 -0.616406
O13   O     O_R   0.885070 0.614240 0.060060 -0.598311
O14   O     O_R   0.174980 0.614900 0.229170 -0.638787
O15   O     O_R   0.885740 0.445830 0.770840 -0.641211
O16   O     O_R   0.175880 0.615810 0.060090 -0.598681
O17   O     O_R   0.884210 0.324110 0.939920 -0.640906
O18   O     O_R   0.055710 0.615810 0.939920 -0.680746
O19   O     O_R   0.884190 0.444260 0.060070 -0.594369
O20   O     O_2   0.640246 0.627262 0.925111 -0.608823
O21   O     O_R   0.741498 0.631122 0.064494 -0.773791
O22   O     O_2   0.105444 0.708106 0.562503 -0.630665
O23   O     O_R   0.885120 0.325030 0.770840 -0.648911
O24   O     O_R   0.239272 0.714163 0.677329 -0.796186
O25   O     O_R   0.175010 0.445830 0.060100 -0.639458
O26   O     O_R   0.885710 0.614900 0.939900 -0.646364
O27   O     O_3   0.500040 0.999960 0.000000 -0.499898
O28   O     O_R   0.614930 0.174930 0.229160 -0.644089
O29   O     O_R   0.445880 0.885710 0.770850 -0.640889
O30   O     O_R   0.614330 0.885060 0.060100 -0.635266
Zn1   Zn    Zn3+2 0.956610 0.542450 0.085830 1.052396
Zn2   Zn    Zn3+2 0.129220 0.543380 0.085850 1.020065
Zn3   Zn    Zn3+2 0.957530 0.543380 0.914160 0.958723
Zn4   Zn    Zn3+2 0.956640 0.370790 0.914170 0.998798
Zn5   Zn    Zn3+2 0.543440 0.957510 0.914170 0.980360
Zn6   Zn    Zn3+2 0.542510 0.956570 0.085840 1.000220
Zn7   Zn    Zn3+2 0.370820 0.956570 0.914150 1.000381
Zn8   Zn    Zn3+2 0.543410 0.129170 0.085830 0.964204

loop_
_geom_bond_atom_site_label_1
_geom_bond_atom_site_label_2
_ccdc_geom_bond_type
C15   C18   S    
C15   H25   S    
C16   O14   A    
C27   C29   D    
C43   O22   D    
C25   C43   S    
C22   H7    S    
C18   H2    S    
O30   Zn6   S    
C45   C46   A    
C12   C23   A    
C9    C42   S    
O3    Zn6   S    
C42   O20   D    
C14   H24   S    
O9    Zn8   S    
O27   Zn7   S    
C12   H14   S    
C33   O2    A    
C36   O7    A    
O27   Zn5   S    
C18   C19   D    
C33   O9    A    
H18   O21   S    
O16   Zn2   S    
C11   C30   S    
C8    C9    D    
C4    O26   A    
C38   O19   A    
C17   H26   S    
C48   H15   S    
C30   O10   A    
O17   Zn4   S    
C10   H21   S    
O25   Zn2   S    
O29   Zn5   S    
C26   C31   S    
C32   O30   A    
C13   C14   D    
C31   O29   A    
C17   C33   S    
C20   H5    S    
C35   O6    A    
C32   O8    A    
C1    C19   S    
O8    Zn5   S    
C31   O11   A    
C34   C39   A    
O1    Zn1   S    
O27   Zn8   S    
C43   O24   S    
C42   O21   S    
C39   C40   A    
O12   Zn1   S    
C3    H1    S    
C11   H22   S    
C6    C8    S    
C2    H16   S    
C16   C29   S    
O23   Zn4   S    
C40   H11   S    
O27   Zn6   S    
O5    Zn8   S    
O10   Zn6   S    
C7    H12   S    
C12   C41   A    
C29   H10   S    
C36   O5    A    
C23   C34   A    
O13   Zn1   S    
C24   C37   S    
O1    Zn3   S    
C26   H8    S    
C38   C47   S    
O19   Zn1   S    
O28   Zn8   S    
C19   H4    S    
C6    H17   S    
C13   H23   S    
C22   C24   D    
C5    F2    S    
C36   C44   S    
O2    Zn7   S    
C41   H13   S    
O4    Zn4   S    
C1    O25   A    
C44   C45   A    
C28   O23   A    
C4    O13   A    
C45   C48   A    
C24   F1    S    
C15   C17   D    
C46   C47   A    
C40   C41   A    
C7    C32   S    
C37   O16   A    
O1    Zn2   S    
O6    Zn7   S    
C20   C22   S    
C3    C5    A    
C10   C13   S    
C21   H6    S    
C6    C7    D    
C21   C35   S    
C25   C27   S    
C5    C46   A    
O18   Zn3   S    
C8    H20   S    
C2    C48   A    
O15   Zn3   S    
C2    C3    A    
C25   C26   D    
O14   Zn2   S    
C27   H9    S    
C39   H3    S    
C38   O17   A    
C35   O3    A    
C37   O18   A    
C28   O15   A    
O7    Zn5   S    
O1    Zn4   S    
O11   Zn7   S    
C10   C11   D    
C23   C44   A    
H19   O24   S    
C20   C21   D    
C30   O28   A    
C16   O12   A    
C1    O4    A    
O26   Zn3   S    
C34   C47   A    
C14   C28   S    
C4    C9    S    
