data_mof_unit_40079.cif
_audit_creation_date              2013-03-05T15:56:27-0500
_audit_creation_method            fapswitch 2.2
_symmetry_space_group_name_H-M    P1
_symmetry_Int_Tables_number       1
_space_group_crystal_system       triclinic
_cell_length_a                    6.929613
_cell_length_b                    14.536709
_cell_length_c                    16.035579
_cell_angle_alpha                 90.21415
_cell_angle_beta                  89.907268
_cell_angle_gamma                 89.832021
_cell_volume                      1615.30391993

loop_
_atom_site_label
_atom_site_type_symbol
_atom_site_description
_atom_site_fract_x
_atom_site_fract_y
_atom_site_fract_z
_atom_type_partial_charge
O1    O     O_R   0.494400 0.415640 0.412830 -0.602945
O2    O     O_R   0.823920 0.405510 0.586560 -0.595427
O3    O     O_R   0.994250 0.584360 0.587170 -0.579947
C1    C     C_R   0.654920 0.383055 0.615091 0.972051
O4    O     O_R   0.824110 0.404610 0.413450 -0.605126
O5    O     O_R   0.994440 0.583460 0.412820 -0.588170
C2    C     C_R   0.655477 0.382338 0.384454 0.939119
O6    O     O_R   0.494210 0.416540 0.587180 -0.596314
O7    O     O_3   0.660810 0.558680 0.500000 -0.253873
V1    V     V_3+5 0.935650 0.489110 0.500000 1.204811
O8    O     O_R   0.324150 0.594490 0.413440 -0.602397
C3    C     C_R   0.155045 0.616751 0.384456 0.959543
O9    O     O_R   0.323970 0.595390 0.586550 -0.585542
C4    C     C_R   0.154781 0.617834 0.615362 0.933777
V2    V     V_3+5 0.435660 0.510890 0.500000 1.200058
O10   O     O_3   0.160630 0.441320 0.500000 -0.281175
C5    C     C_3   0.103282 0.640053 0.771988 -0.251298
H1    H     H_    0.234978 0.599403 0.787511 0.160283
C6    C     C_3   0.077079 0.713443 0.842486 -0.419312
H2    H     H_    0.175143 0.696615 0.895226 0.155803
H3    H     H_    0.927571 0.712596 0.868004 0.179058
H4    H     H_    0.838818 0.725453 0.670600 0.111954
H5    H     H_    0.826282 0.838094 0.766823 0.148853
C7    C     C_3   0.979966 0.761442 0.669437 0.280310
C8    C     C_3   0.338369 0.739649 0.696856 -0.309546
C9    C     C_3   0.142618 0.688201 0.685926 -0.180925
H6    H     H_    0.382669 0.774336 0.638414 0.213982
H7    H     H_    0.455359 0.689461 0.710696 0.198439
C10   C     C_3   0.122385 0.811406 0.809802 0.071466
C11   C     C_3   0.974715 0.835143 0.740252 -0.468471
C12   C     C_3   0.326931 0.810124 0.769214 -0.340379
H8    H     H_    0.437456 0.792065 0.816787 0.170333
H9    H     H_    0.362985 0.879743 0.745214 0.163047
H10   H     H_    0.005796 0.904989 0.715616 0.182704
C13   C     C_R   0.953205 0.774583 0.216518 -0.134219
H11   H     H_    0.812373 0.793350 0.192772 0.119814
C14   C     C_R   0.964206 0.711470 0.282159 -0.076359
H12   H     H_    0.831320 0.683420 0.306779 0.125028
C15   C     C_R   0.143882 0.684853 0.315355 -0.121427
C16   C     C_R   0.312222 0.723272 0.281102 -0.111158
H13   H     H_    0.453052 0.704516 0.304859 0.125295
C17   C     C_R   0.301220 0.786402 0.215475 -0.121675
H14   H     H_    0.434106 0.814488 0.190892 0.121898
C18   C     C_R   0.121562 0.812903 0.182178 -0.130300
C19   C     C_R   0.792290 0.251157 0.696976 -0.075429
H15   H     H_    0.917310 0.249556 0.656366 0.133337
C20   C     C_R   0.779915 0.187461 0.761970 -0.064379
H16   H     H_    0.895304 0.137674 0.769064 0.136782
C21   C     C_R   0.620693 0.187176 0.816667 -0.303028
C22   C     C_R   0.472940 0.253874 0.805161 0.357968
C23   C     C_R   0.483911 0.315101 0.737683 -0.223884
H17   H     H_    0.370988 0.366046 0.729758 0.187933
C24   C     C_R   0.643473 0.314991 0.683638 -0.224266
C25   C     C_R   0.790162 0.248993 0.301644 -0.110523
H18   H     H_    0.914182 0.246129 0.342582 0.130634
C26   C     C_R   0.775068 0.184666 0.236625 -0.062589
H19   H     H_    0.887253 0.133174 0.229982 0.160380
C27   C     C_R   0.616534 0.185365 0.181679 -0.310250
C28   C     C_R   0.470108 0.252813 0.194533 0.383828
C29   C     C_R   0.485750 0.315801 0.260782 -0.233780
H20   H     H_    0.372784 0.366701 0.269418 0.157254
C30   C     C_R   0.644545 0.314720 0.314864 -0.174251
O11   O     O_R   0.771300 0.080930 0.910090 -0.589227
O12   O     O_R   0.441270 0.092800 0.083770 -0.546916
O13   O     O_R   0.271080 0.913920 0.084380 -0.604302
C31   C     C_R   0.609244 0.116221 0.112320 0.984119
O14   O     O_R   0.441580 0.091910 0.910670 -0.573692
O15   O     O_R   0.271390 0.913020 0.910040 -0.610348
C32   C     C_R   0.610531 0.116036 0.883307 0.982720
O16   O     O_R   0.770990 0.081830 0.084440 -0.574332
O17   O     O_3   0.604750 0.938760 0.997250 -0.301976
V3    V     V_3+5 0.329850 0.008280 0.997210 1.246664
O18   O     O_R   0.941680 0.901940 0.910610 -0.605884
C33   C     C_R   0.110882 0.880948 0.880720 0.878812
O19   O     O_R   0.941370 0.902830 0.083720 -0.607149
C34   C     C_R   0.110445 0.880771 0.112868 0.921406
V4    V     V_3+5 0.829860 0.986420 0.997150 1.195300
O20   O     O_3   0.104830 0.056030 0.997180 -0.206673
C35   C     C_2   0.939219 0.571351 0.771787 1.010385
O21   O     O_2   0.772122 0.596675 0.762935 -0.684202
O22   O     O_R   0.980425 0.478177 0.783833 -0.759575
H21   H     H_    0.859858 0.438976 0.785453 0.343419
N1    N     N_R   0.998012 0.804411 0.586959 0.224049
O23   O     O_R   0.870351 0.786874 0.529682 -0.404750
O24   O     O_R   0.132180 0.864478 0.571534 -0.416287
N2    N     N_R   0.317757 0.264621 0.863872 0.241720
O25   O     O_R   0.354985 0.268638 0.943261 -0.329663
O26   O     O_R   0.146774 0.288181 0.838119 -0.379854
N3    N     N_R   0.307644 0.261455 0.139962 0.247784
O27   O     O_R   0.171757 0.200096 0.142510 -0.390190
O28   O     O_R   0.269067 0.341281 0.107457 -0.338737

loop_
_geom_bond_atom_site_label_1
_geom_bond_atom_site_label_2
_geom_bond_distance
_ccdc_geom_bond_type
C8    C12   1.546769 S    
C1    C24   1.483836 S    
O18   C33   1.301006 A    
C13   H11   1.082700 S    
C1    O6    1.295205 A    
O22   H21   1.013055 S    
C20   C21   1.408403 A    
V4    O20   2.160077 S    
C8    H7    1.112237 S    
C10   C11   1.553879 S    
O13   C34   1.297351 A    
N1    O23   1.301298 A    
C5    C9    1.573493 S    
C6    H3    1.113416 S    
C7    N1    1.470076 S    
C7    C9    1.571582 S    
O5    C3    1.297247 A    
N2    O26   1.300754 A    
O15   C33   1.295616 A    
V2    O10   2.160171 S    
C5    C35   1.515449 S    
C26   H19   1.082453 S    
C29   C30   1.402242 A    
O14   V3    2.004447 S    
C28   N3    1.432540 S    
C18   C34   1.490819 S    
V3    O20   1.704960 S    
O8    V2    2.002801 S    
C27   C31   1.497318 S    
O11   C32   1.298414 A    
C12   H9    1.113018 S    
O1    V2    2.004285 S    
N3    O28   1.301083 A    
O7    V1    2.153771 S    
C16   C17   1.400899 A    
C19   C24   1.402449 A    
C28   C29   1.404416 A    
C21   C32   1.491574 S    
O9    C4    1.299747 A    
O16   V4    2.007402 S    
C17   C18   1.408651 A    
C22   C23   1.405741 A    
C19   C20   1.399399 A    
C25   C26   1.402150 A    
C11   H10   1.112357 S    
C23   H17   1.083768 S    
H5    C11   1.113354 S    
C15   C16   1.406567 A    
O4    C2    1.299769 A    
N2    O25   1.300463 A    
C10   C33   1.520590 S    
C25   C30   1.402932 A    
C27   C28   1.423151 A    
C19   H15   1.083100 S    
C29   H20   1.083949 S    
C23   C24   1.403763 A    
O12   C31   1.297410 A    
O2    C1    1.299608 A    
O19   C34   1.301806 A    
C2    C30   1.486502 S    
C14   H12   1.082737 S    
C20   H16   1.083336 S    
O15   V3    2.006553 S    
C5    H1    1.114734 S    
C4    C9    1.524579 S    
C13   C18   1.406635 A    
O19   V4    2.002822 S    
O3    C4    1.296835 A    
C16   H13   1.082715 S    
N1    O24   1.301404 A    
O6    V2    2.003243 S    
O9    V2    2.003071 S    
H4    C7    1.110739 S    
C17   H14   1.082727 S    
C6    C10   1.552045 S    
O17   V4    1.708715 S    
C35   O22   1.397572 S    
O11   V4    2.003512 S    
C25   H18   1.083085 S    
C13   C14   1.400917 A    
O1    C2    1.296479 A    
C12   H8    1.113414 S    
O5    V1    2.004299 S    
O8    C3    1.301761 A    
C8    H6    1.109167 S    
O13   V3    2.004257 S    
C6    H2    1.113230 S    
C8    C9    1.560712 S    
O17   V3    2.153801 S    
C10   C12   1.558789 S    
O3    V1    2.006651 S    
V1    O10   1.704941 S    
C31   O16   1.303653 A    
C3    C15   1.490609 S    
C5    C6    1.561510 S    
C26   C27   1.409418 A    
O12   V3    2.007146 S    
O7    V2    1.709740 S    
C7    C11   1.558589 S    
C22   N2    1.435903 S    
C35   O21   1.222647 D    
O4    V1    2.007182 S    
C14   C15   1.408607 A    
C21   C22   1.420758 A    
O18   V4    2.003126 S    
O14   C32   1.299269 A    
N3    O27   1.299623 A    
O2    V1    2.004403 S    
