data_mof_unit_17651.cif
_audit_creation_date              2012-12-11T14:42:18-0500
_audit_creation_method            fapswitch 2.2
_symmetry_space_group_name_H-M    P1
_symmetry_Int_Tables_number       1
_space_group_crystal_system       triclinic
_cell_length_a                    18.996756
_cell_length_b                    10.978078
_cell_length_c                    18.955045
_cell_angle_alpha                 89.970274
_cell_angle_beta                  90.190897
_cell_angle_gamma                 90.072212
_cell_volume                      3953.00863987

loop_
_atom_site_label
_atom_site_type_symbol
_atom_type_description
_atom_site_fract_x
_atom_site_fract_y
_atom_site_fract_z
_atom_type_partial_charge
C1    C     C_R   0.726817 0.954954 0.853997 0.568791
C2    C     C_R   0.242620 0.415113 0.926574 -0.062804
C3    C     C_R   0.257356 0.915205 0.073419 -0.063370
C4    C     C_R   0.742621 0.915110 0.926573 -0.062804
C5    C     C_R   0.813670 0.369319 0.032129 0.127050
C6    C     C_R   0.186237 0.369413 0.967939 0.126601
C7    C     C_R   0.313668 0.869311 0.032131 0.127060
C8    C     C_R   0.686239 0.869407 0.967938 0.126605
C9    C     C_R   0.812453 0.385406 0.959347 0.067685
C10   C     C_R   0.187539 0.385602 0.040702 0.067968
C11   C     C_R   0.312452 0.885398 0.959349 0.067692
C12   C     C_R   0.273187 0.955041 0.145994 0.575006
C13   C     C_R   0.687540 0.885596 0.040700 0.067971
C14   C     C_R   0.747741 0.408361 0.925537 -0.026220
C15   C     C_R   0.252329 0.408451 0.074440 -0.025819
C16   C     C_R   0.247740 0.908358 0.925538 -0.026225
C17   C     C_R   0.752329 0.908450 0.074440 -0.025820
C18   C     C_R   0.459635 0.247326 0.546848 0.379495
C19   C     C_R   0.449269 0.253499 0.475327 0.354772
C20   C     C_R   0.959645 0.747352 0.546846 0.379489
C21   C     C_R   0.949284 0.753529 0.475326 0.354780
C22   C     C_R   0.484494 0.172395 0.430006 -0.058949
C23   C     C_R   0.226817 0.454955 0.853997 0.568796
C24   C     C_R   0.506060 0.161275 0.573585 -0.040044
C25   C     C_R   0.984494 0.672397 0.430007 -0.058982
C26   C     C_R   0.006052 0.661273 0.573587 -0.040089
C27   C     C_R   0.529120 0.083391 0.456613 0.344498
C28   C     C_R   0.539544 0.076700 0.528632 0.357400
C29   C     C_R   0.029101 0.583366 0.456618 0.344477
C30   C     C_R   0.039520 0.576672 0.528638 0.357400
C31   C     C_R   0.812655 0.391976 0.542428 0.341085
C32   C     C_R   0.219636 0.299806 0.473461 0.347346
C33   C     C_R   0.312655 0.891986 0.542430 0.341122
C34   C     C_R   0.773187 0.455042 0.145993 0.575008
C35   C     C_R   0.719622 0.799817 0.473459 0.347319
C36   C     C_R   0.820406 0.389845 0.470203 0.082849
C37   C     C_R   0.216677 0.316342 0.545722 0.099991
C38   C     C_R   0.320408 0.889860 0.470205 0.082863
C39   C     C_R   0.716666 0.816345 0.545721 0.099971
C40   C     C_R   0.525218 0.177400 0.845592 0.576925
C41   C     C_R   0.474808 0.177528 0.154433 0.582538
C42   C     C_R   0.025218 0.677401 0.845591 0.576917
C43   C     C_R   0.974809 0.677528 0.154435 0.582533
C44   C     C_R   0.761630 0.418728 0.426123 -0.080037
C45   C     C_R   0.693631 0.447166 0.039716 0.072946
C46   C     C_R   0.246798 0.421213 0.575582 -0.038049
C47   C     C_R   0.261631 0.918731 0.426124 -0.079983
C48   C     C_R   0.746802 0.921202 0.575585 -0.038079
C49   C     C_R   0.694467 0.426349 0.455493 0.434992
C50   C     C_R   0.282614 0.505632 0.532115 0.426291
C51   C     C_R   0.194468 0.926341 0.455493 0.435018
C52   C     C_R   0.782631 0.005608 0.532120 0.426318
C53   C     C_R   0.685996 0.408404 0.527516 0.358605
C54   C     C_R   0.284742 0.488825 0.459501 0.423762
C55   C     C_R   0.185996 0.908395 0.527514 0.358614
C56   C     C_R   0.306443 0.446960 0.960189 0.073362
C57   C     C_R   0.784757 0.988807 0.459506 0.423777
C58   C     C_R   0.745607 0.395930 0.571739 -0.044291
C59   C     C_R   0.252910 0.386444 0.429769 0.012970
C60   C     C_R   0.245607 0.895929 0.571739 -0.044251
C61   C     C_R   0.752911 0.886442 0.429770 0.012908
C62   C     C_R   0.738245 0.364095 0.853057 0.572100
C63   C     C_R   0.261776 0.364182 0.146936 0.575688
C64   C     C_R   0.238245 0.864095 0.853057 0.572102
C65   C     C_R   0.761776 0.864182 0.146935 0.575694
C66   C     C_R   0.727777 0.956534 0.647093 0.592693
C67   C     C_R   0.193630 0.947165 0.039717 0.072947
C68   C     C_R   0.273737 0.956060 0.353346 0.586579
C69   C     C_R   0.227776 0.456538 0.647092 0.592682
C70   C     C_R   0.773737 0.456059 0.353346 0.586551
C71   C     C_R   0.531149 0.175207 0.644395 0.613622
C72   C     C_R   0.467670 0.177109 0.356448 0.606479
C73   C     C_R   0.031148 0.675206 0.644395 0.613593
C74   C     C_R   0.967669 0.677110 0.356449 0.606450
C75   C     C_R   0.737925 0.358101 0.644807 0.602843
C76   C     C_R   0.261440 0.357370 0.355360 0.618743
C77   C     C_R   0.237925 0.858100 0.644807 0.602858
C78   C     C_R   0.806443 0.946961 0.960188 0.073367
C79   C     C_R   0.761441 0.857367 0.355361 0.618712
C80   C     C_2   0.485216 0.166876 0.909174 0.007256
C81   C     C_2   0.514829 0.167242 0.090859 0.006933
C82   C     C_2   0.985214 0.666876 0.909172 0.007257
C83   C     C_2   0.014829 0.667241 0.090860 0.006940
C84   C     C_2   0.481466 0.130339 0.033131 0.386394
C85   C     C_2   0.518636 0.130389 0.966949 0.388073
C86   C     C_2   0.981461 0.630354 0.033130 0.386390
C87   C     C_2   0.018633 0.630397 0.966949 0.388065
C88   C     C_R   0.688318 0.438048 0.966427 0.371978
C89   C     C_R   0.757357 0.415209 0.073418 -0.063366
C90   C     C_R   0.311794 0.437917 0.033481 0.371561
C91   C     C_R   0.188318 0.938049 0.966427 0.371981
C92   C     C_R   0.811793 0.937919 0.033481 0.371573
Cr1   Cr    Cr6+3 0.769270 0.163730 0.750710 1.178389
Cr2   Cr    Cr6+3 0.385840 0.322500 0.252290 1.205001
Cr3   Cr    Cr6+3 0.114160 0.822500 0.747710 1.194022
Cr4   Cr    Cr6+3 0.885840 0.822500 0.252290 1.205004
Cr5   Cr    Cr6+3 0.230730 0.163730 0.249290 1.176839
Cr6   Cr    Cr6+3 0.269270 0.663730 0.750710 1.178381
Cr7   Cr    Cr6+3 0.730730 0.663730 0.249290 1.176834
Cr8   Cr    Cr6+3 0.612620 0.009790 0.748780 1.165437
Cr9   Cr    Cr6+3 0.387380 0.009790 0.251220 1.145259
Cr10  Cr    Cr6+3 0.112620 0.509790 0.748780 1.165445
Cr11  Cr    Cr6+3 0.887380 0.509790 0.251220 1.145251
Cr12  Cr    Cr6+3 0.614160 0.322500 0.747710 1.194014
F1    F     F_    0.411113 0.105118 0.034172 -0.649835
F2    F     F_    0.317889 0.572005 0.418270 -0.546022
F3    F     F_    0.119584 0.902818 0.553540 -0.541435
F4    F     F_    0.817917 0.071975 0.418278 -0.545970
F5    F     F_    0.624300 0.453980 0.935706 -0.556742
F6    F     F_    0.375876 0.453671 0.064138 -0.556739
F7    F     F_    0.124300 0.953986 0.935706 -0.556738
F8    F     F_    0.875875 0.953677 0.064139 -0.556732
F9    F     F_    0.426613 0.328227 0.589708 -0.550131
F10   F     F_    0.405158 0.340010 0.450328 -0.565045
F11   F     F_    0.926638 0.828277 0.589704 -0.550083
F12   F     F_    0.589011 0.105686 0.965932 -0.648899
F13   F     F_    0.905194 0.840071 0.450324 -0.564950
F14   F     F_    0.563859 0.006103 0.412957 -0.561318
F15   F     F_    0.585750 0.992947 0.553524 -0.568020
F16   F     F_    0.063827 0.506054 0.412964 -0.561306
F17   F     F_    0.085706 0.492885 0.553533 -0.567955
F18   F     F_    0.870685 0.380329 0.584183 -0.550250
F19   F     F_    0.190643 0.196983 0.446208 -0.551919
F20   F     F_    0.370685 0.880347 0.584187 -0.550276
F21   F     F_    0.690606 0.697016 0.446203 -0.551858
F22   F     F_    0.911103 0.605158 0.034168 -0.649836
F23   F     F_    0.089011 0.605705 0.965935 -0.648899
F24   F     F_    0.637055 0.446714 0.414269 -0.508527
F25   F     F_    0.312618 0.607780 0.559072 -0.529154
F26   F     F_    0.137055 0.946698 0.414267 -0.508535
F27   F     F_    0.812651 0.107740 0.559080 -0.529082
F28   F     F_    0.619584 0.402832 0.553542 -0.541439
H1    H     H_    0.569051 0.198893 0.089632 0.099948
H2    H     H_    0.430960 0.198117 0.910367 0.098808
H3    H     H_    0.069057 0.698871 0.089637 0.099958
H4    H     H_    0.930956 0.698114 0.910361 0.098819
I1    I     I_    0.922079 0.324899 0.437740 0.171131
I2    I     I_    0.104199 0.253881 0.926351 -0.049314
I3    I     I_    0.395473 0.753689 0.073858 -0.043683
I4    I     I_    0.604205 0.753870 0.926348 -0.049320
I5    I     I_    0.910093 0.378259 0.902172 -0.158927
I6    I     I_    0.089937 0.378654 0.097971 -0.154078
I7    I     I_    0.410093 0.878246 0.902175 -0.158898
I8    I     I_    0.589937 0.878643 0.097968 -0.154046
I9    I     I_    0.163223 0.180469 0.605925 -0.016079
I10   I     I_    0.422087 0.824936 0.437745 0.171010
I11   I     I_    0.663195 0.680481 0.605917 -0.016072
I12   I     I_    0.600121 0.493039 0.095778 -0.088262
I13   I     I_    0.399990 0.492539 0.903977 -0.090070
I14   I     I_    0.100121 0.993038 0.095778 -0.088253
I15   I     I_    0.899991 0.992545 0.903978 -0.090056
I16   I     I_    0.895478 0.253700 0.073854 -0.043695
O1    O     O_R   0.784320 0.290430 0.830510 -0.496702
O2    O     O_R   0.456080 0.282180 0.333210 -0.427052
O3    O     O_R   0.043920 0.782180 0.666790 -0.413660
O4    O     O_R   0.956080 0.782180 0.333210 -0.427040
O5    O     O_R   0.679040 0.374160 0.674430 -0.469078
O6    O     O_R   0.320960 0.374160 0.325570 -0.437437
O7    O     O_R   0.179040 0.874160 0.674430 -0.469080
O8    O     O_R   0.820960 0.874160 0.325570 -0.437450
O9    O     O_3   0.665350 0.165340 0.749070 -0.328542
O10   O     O_3   0.334650 0.165340 0.250930 -0.334257
O11   O     O_3   0.165350 0.665340 0.749070 -0.328548
O12   O     O_R   0.215680 0.290430 0.169490 -0.497353
O13   O     O_3   0.834650 0.665340 0.250930 -0.334263
O14   O     O_R   0.762640 0.040960 0.825200 -0.487851
O15   O     O_R   0.237360 0.040960 0.174800 -0.485794
O16   O     O_R   0.262640 0.540960 0.825200 -0.487849
O17   O     O_R   0.737360 0.540960 0.174800 -0.485789
O18   O     O_R   0.667400 0.923970 0.829950 -0.473309
O19   O     O_R   0.332600 0.923970 0.170050 -0.467552
O20   O     O_R   0.167400 0.423970 0.829950 -0.473309
O21   O     O_R   0.832600 0.423970 0.170050 -0.467557
O22   O     O_R   0.553960 0.081340 0.821780 -0.464055
O23   O     O_R   0.284320 0.790430 0.830510 -0.496705
O24   O     O_R   0.446040 0.081340 0.178220 -0.458150
O25   O     O_R   0.053960 0.581340 0.821780 -0.464059
O26   O     O_R   0.946040 0.581340 0.178220 -0.458159
O27   O     O_R   0.543180 0.283240 0.826740 -0.454719
O28   O     O_R   0.456820 0.283240 0.173260 -0.455528
O29   O     O_R   0.043180 0.783240 0.826740 -0.454717
O30   O     O_R   0.956820 0.783240 0.173260 -0.455518
O31   O     O_R   0.678360 0.375140 0.822710 -0.433585
O32   O     O_R   0.321640 0.375140 0.177290 -0.430821
O33   O     O_R   0.178360 0.875140 0.822710 -0.433582
O34   O     O_R   0.715680 0.790430 0.169490 -0.497352
O35   O     O_R   0.821640 0.875140 0.177290 -0.430815
O36   O     O_R   0.785050 0.289380 0.670560 -0.398348
O37   O     O_R   0.214950 0.289380 0.329440 -0.429662
O38   O     O_R   0.285050 0.789380 0.670560 -0.398344
O39   O     O_R   0.714950 0.789380 0.329440 -0.429644
O40   O     O_R   0.763320 0.039990 0.676930 -0.438820
O41   O     O_R   0.236680 0.039990 0.323070 -0.417268
O42   O     O_R   0.263320 0.539990 0.676930 -0.438821
O43   O     O_R   0.736680 0.539990 0.323070 -0.417283
O44   O     O_R   0.668130 0.922920 0.670000 -0.454473
O45   O     O_R   0.554640 0.080370 0.673500 -0.460539
O46   O     O_R   0.331870 0.922920 0.330000 -0.507706
O47   O     O_R   0.168130 0.422920 0.670000 -0.454474
O48   O     O_R   0.831870 0.422920 0.330000 -0.507706
O49   O     O_R   0.445360 0.080370 0.326500 -0.492531
O50   O     O_R   0.054640 0.580370 0.673500 -0.460533
O51   O     O_R   0.945360 0.580370 0.326500 -0.492522
O52   O     O_R   0.543920 0.282180 0.666790 -0.413677

loop_
_geom_bond_atom_site_label_1
_geom_bond_atom_site_label_2
_ccdc_geom_bond_type
C44   C49   A    
Cr7   O39   S    
C65   O35   A    
C43   O26   A    
C8    C13   A    
C86   F22   S    
C45   I12   S    
C43   C83   S    
C41   O28   A    
C75   O36   A    
C42   C82   S    
Cr12  O5    S    
Cr6   O38   S    
C12   O15   A    
C87   F23   S    
Cr6   O11   S    
C7    C11   A    
C76   O6    A    
C29   C30   A    
C5    I16   S    
C18   C24   A    
C77   O38   A    
Cr12  O52   S    
C31   C58   A    
Cr9   O10   S    
C18   C19   A    
C3    C7    A    
C10   C15   A    
C31   C36   A    
C27   F14   S    
Cr12  O27   S    
C74   O51   A    
C42   O25   A    
C91   F7    S    
C82   C87   D    
C14   C62   S    
Cr7   O43   S    
C1    O18   A    
Cr11  O21   S    
C26   C73   S    
C80   H2    S    
Cr6   O42   S    
C68   O46   A    
C25   C74   S    
C10   I6    S    
C13   I8    S    
Cr5   O41   S    
C57   C61   A    
C35   F21   S    
C38   I10   S    
C46   C69   S    
C21   F13   S    
C76   O37   A    
C62   O31   A    
C57   F4    S    
C23   O20   A    
Cr10  O11   S    
Cr4   O35   S    
C58   C75   S    
C33   F20   S    
C40   C80   S    
C44   C70   S    
C68   O41   A    
C3    C12   S    
C5    C89   A    
C45   C89   A    
C36   I1    S    
Cr2   O10   S    
C83   H3    S    
C64   O33   A    
C4    C8    A    
Cr8   O45   S    
C75   O5    A    
Cr3   O3    S    
C56   C90   A    
Cr2   O6    S    
C79   O39   A    
C55   C60   A    
C67   I14   S    
C25   C29   A    
C32   F19   S    
C2    C6    A    
C17   C92   A    
Cr2   O32   S    
C18   F9    S    
C22   C72   S    
C51   F26   S    
C78   I15   S    
C71   O45   A    
C12   O19   A    
C54   C59   A    
Cr8   O44   S    
C42   O29   A    
Cr10  O20   S    
C71   O52   A    
C29   F16   S    
C60   C77   S    
C72   O2    A    
C54   F2    S    
Cr8   O18   S    
C19   C22   A    
C84   C85   S    
Cr12  O9    S    
C9    I5    S    
Cr9   O46   S    
C70   O43   A    
C47   C51   A    
C19   F10   S    
C78   C92   A    
Cr5   O15   S    
C55   F3    S    
C6    I2    S    
C35   C39   A    
C9    C14   A    
C5    C9    A    
C80   C85   D    
C50   F25   S    
Cr3   O11   S    
C40   O27   A    
C11   C16   A    
C30   F17   S    
Cr1   O9    S    
Cr2   O2    S    
Cr5   O12   S    
C41   C81   S    
C63   O12   A    
C73   O3    A    
Cr3   O29   S    
C67   C91   A    
C84   F1    S    
C74   O4    A    
C35   C61   A    
C53   F28   S    
C50   C54   A    
C32   C37   A    
C64   O23   A    
C66   O40   A    
C38   C47   A    
Cr8   O9    S    
C34   O17   A    
C77   O7    A    
C88   F5    S    
Cr4   O8    S    
C41   O24   A    
Cr1   O14   S    
Cr11  O13   S    
C33   C60   A    
C22   C27   A    
C45   C88   A    
Cr8   O22   S    
Cr3   O7    S    
C36   C44   A    
C90   F6    S    
C92   F8    S    
C47   C68   S    
C79   O8    A    
C81   C84   D    
Cr3   O33   S    
C2    C23   S    
Cr12  O31   S    
Cr1   O40   S    
C56   I13   S    
C49   F24   S    
C21   C25   A    
C65   O34   A    
C70   O48   A    
C63   O32   A    
C86   C87   S    
C52   F27   S    
C85   F12   S    
C3    C67   A    
C24   C28   A    
C31   F18   S    
Cr4   O30   S    
C28   F15   S    
C6    C10   A    
C20   F11   S    
C66   O44   A    
C53   C58   A    
C81   H1    S    
Cr7   O17   S    
C4    C78   A    
C73   O50   A    
C46   C50   A    
C43   O30   A    
C17   C65   S    
C33   C38   A    
C62   O1    A    
C13   C17   A    
C8    I4    S    
C1    C4    S    
C48   C66   S    
Cr11  O26   S    
Cr1   O1    S    
Cr10  O50   S    
C34   C89   S    
C14   C88   A    
C34   O21   A    
Cr9   O49   S    
Cr10  O47   S    
C15   C90   A    
C7    I3    S    
Cr6   O23   S    
Cr4   O4    S    
C20   C26   A    
C1    O14   A    
C61   C79   S    
C49   C53   A    
Cr5   O37   S    
C69   O42   A    
Cr9   O19   S    
C51   C55   A    
Cr11  O48   S    
C82   H4    S    
Cr11  O51   S    
Cr2   O28   S    
C52   C57   A    
C23   O16   A    
Cr1   O36   S    
C48   C52   A    
C83   C86   D    
C20   C21   A    
C40   O22   A    
C16   C91   A    
Cr5   O10   S    
C39   I11   S    
C27   C28   A    
C69   O47   A    
Cr10  O25   S    
C15   C63   S    
Cr4   O13   S    
C72   O49   A    
Cr9   O24   S    
C2    C56   A    
C16   C64   S    
C32   C59   A    
C37   I9    S    
C37   C46   A    
C11   I7    S    
C59   C76   S    
Cr7   O34   S    
Cr6   O16   S    
C24   C71   S    
C39   C48   A    
Cr7   O13   S    
C26   C30   A    
