data_mof_unit_32283.cif
_audit_creation_date              2012-10-26T18:27:30-0400
_audit_creation_method            fapswitch 2.2
_symmetry_space_group_name_H-M    P1
_symmetry_Int_Tables_number       1
_space_group_crystal_system       triclinic
_cell_length_a                    10.876168
_cell_length_b                    10.993301
_cell_length_c                    9.784501
_cell_angle_alpha                 108.822036
_cell_angle_beta                  99.655579
_cell_angle_gamma                 92.176806
_cell_volume                      1086.30796905

loop_
_atom_site_label
_atom_site_type_symbol
_atom_type_description
_atom_site_fract_x
_atom_site_fract_y
_atom_site_fract_z
_atom_type_partial_charge
C1    C     C_R   0.493720 0.254844 0.444288 0.548509
C2    C     C_2   0.571294 0.935558 0.488215 0.016394
C3    C     C_2   0.514051 0.507869 0.080857 -0.029776
C4    C     C_R   0.261754 0.484787 0.496744 0.567916
C5    C     C_2   0.494985 0.483722 0.918311 -0.027423
C6    C     C_R   0.515908 0.745401 0.556532 0.538396
C7    C     C_R   0.738898 0.506567 0.502421 0.535529
C8    C     C_R   0.153880 0.466484 0.750203 -0.100015
C9    C     C_R   0.128367 0.524766 0.889406 -0.111485
C10   C     C_R   0.028261 0.600386 0.906408 0.004056
C11   C     C_R   0.941398 0.597276 0.780669 -0.079542
C12   C     C_R   0.082046 0.486110 0.626726 -0.004391
C13   C     C_R   0.963206 0.529806 0.637723 0.003869
C14   C     C_3   0.019046 0.687804 0.057625 -0.262768
C15   C     C_3   0.055277 0.828988 0.074763 -0.291659
C16   C     C_3   0.076508 0.915810 0.235526 -0.453652
C17   C     C_3   0.612847 0.857838 0.346840 -0.235622
C18   C     C_3   0.710509 0.934325 0.300574 -0.305040
C19   C     C_3   0.726167 0.863219 0.144282 -0.470996
C20   C     C_R   0.126025 0.465715 0.493799 0.022801
C21   C     C_R   0.038540 0.444263 0.362820 0.064342
C22   C     C_R   0.913309 0.460872 0.369572 -0.155374
C23   C     C_R   0.874246 0.505980 0.505286 -0.035713
C24   C     C_2   0.498765 0.118110 0.422004 -0.122717
C25   C     C_2   0.566125 0.074316 0.522819 0.073156
C26   C     C_2   0.532923 0.883704 0.583422 -0.109398
Cu1   Cu    Cu3+1 0.521920 0.521810 0.644910 0.911606
Cu2   Cu    Cu3+1 0.478080 0.478190 0.355090 0.936447
H1    H     H_    0.451401 0.050205 0.316571 0.081786
H2    H     H_    0.511142 0.946543 0.685913 0.109680
H3    H     H_    0.026370 0.307958 0.163656 0.222990
H4    H     H_    0.045483 0.460958 0.164480 0.220425
H5    H     H_    0.994007 0.904336 0.284724 0.156590
H6    H     H_    0.160242 0.890840 0.299441 0.155974
H7    H     H_    0.092455 0.018305 0.242926 0.146765
H8    H     H_    0.143475 0.836574 0.033300 0.174864
H9    H     H_    0.980457 0.863728 0.008590 0.152888
H10   H     H_    0.922964 0.674186 0.076847 0.126724
H11   H     H_    0.083660 0.662031 0.142536 0.152032
H12   H     H_    0.429138 0.404008 0.845012 0.129526
H13   H     H_    0.753722 0.765763 0.136298 0.129465
H14   H     H_    0.636850 0.854985 0.066318 0.158804
H15   H     H_    0.799089 0.917646 0.114310 0.153940
H16   H     H_    0.683688 0.030937 0.302871 0.176202
H17   H     H_    0.801691 0.948184 0.377220 0.161723
H18   H     H_    0.658326 0.773111 0.361858 0.155663
H19   H     H_    0.528329 0.823191 0.258079 0.148594
H20   H     H_    0.699273 0.223230 0.644471 0.257079
H21   H     H_    0.576732 0.204477 0.728917 0.248641
H22   H     H_    0.588075 0.579682 0.153296 0.136187
H23   H     H_    0.619584 0.627141 0.934133 0.196706
H24   H     H_    0.375477 0.377574 0.065833 0.203115
H25   H     H_    0.230881 0.407423 0.739496 0.117333
H26   H     H_    0.191332 0.517220 0.983984 0.117296
H27   H     H_    0.862633 0.653929 0.796266 0.134805
H28   H     H_    0.846747 0.438748 0.267073 0.138538
N1    N     N_2   0.445130 0.445430 0.137370 -0.352389
N2    N     N_2   0.554930 0.554500 0.862630 -0.354748
N3    N     N_3   0.074774 0.398880 0.222071 -0.608538
N4    N     N_3   0.637529 0.156851 0.661864 -0.624538
O1    O     O_R   0.511700 0.332330 0.577400 -0.505920
O2    O     O_R   0.474680 0.295500 0.332650 -0.487648
O3    O     O_R   0.338160 0.518420 0.622400 -0.506263
O4    O     O_R   0.301140 0.481590 0.377650 -0.447539
O5    O     O_R   0.525320 0.704500 0.667350 -0.490266
O6    O     O_R   0.488300 0.667670 0.422600 -0.502185
O7    O     O_R   0.698860 0.518410 0.622350 -0.503849
O8    O     O_R   0.661840 0.481580 0.377600 -0.507906

loop_
_geom_bond_atom_site_label_1
_geom_bond_atom_site_label_2
_ccdc_geom_bond_type
C8    H25   S    
H24   N1    S    
Cu2   O6    S    
C26   H2    S    
Cu1   O5    S    
C25   N4    S    
C18   H16   S    
C16   H5    S    
C14   H10   S    
C17   H19   S    
C9    C10   A    
C4    O4    A    
C14   C15   S    
C19   H14   S    
C8    C12   A    
H20   N4    S    
C1    O2    A    
C12   C20   A    
C17   C18   S    
C7    O8    A    
C2    C26   D    
H23   N2    S    
Cu2   N1    S    
C24   C25   D    
C2    C17   S    
C12   C13   A    
C11   C13   A    
C4    O3    A    
C6    C26   S    
H21   N4    S    
Cu1   O3    S    
C5    N2    D    
C7    C23   S    
C3    N1    D    
C21   C22   A    
Cu2   O8    S    
C3    H22   S    
C19   H15   S    
C21   N3    S    
C2    C25   S    
C16   H7    S    
Cu1   O7    S    
C10   C11   A    
C7    O7    A    
C15   C16   S    
C4    C20   S    
C18   H17   S    
Cu2   O4    S    
C15   H8    S    
C6    O6    A    
C11   H27   S    
C17   H18   S    
C13   C23   A    
C1    C24   S    
C20   C21   A    
C18   C19   S    
C10   C14   S    
C5    H12   S    
H3    N3    S    
Cu1   Cu2   S    
C24   H1    S    
C15   H9    S    
C22   H28   S    
C9    H26   S    
Cu1   O1    S    
H4    N3    S    
C16   H6    S    
C14   H11   S    
C22   C23   A    
C6    O5    A    
C19   H13   S    
Cu2   O2    S    
C8    C9    A    
C3    C5    S    
Cu1   N2    S    
C1    O1    A    
