data_mof_unit_50906.cif
_audit_creation_date              2012-12-10T17:34:51-0500
_audit_creation_method            fapswitch 2.2
_symmetry_space_group_name_H-M    P1
_symmetry_Int_Tables_number       1
_space_group_crystal_system       triclinic
_cell_length_a                    11.977746
_cell_length_b                    12.886687
_cell_length_c                    15.728313
_cell_angle_alpha                 89.941859
_cell_angle_beta                  86.728354
_cell_angle_gamma                 93.240031
_cell_volume                      2419.86661235

loop_
_atom_site_label
_atom_site_type_symbol
_atom_type_description
_atom_site_fract_x
_atom_site_fract_y
_atom_site_fract_z
_atom_type_partial_charge
C1    C     C_R   0.521987 0.700468 0.499582 0.879992
C2    C     C_R   0.535161 0.811786 0.499309 -0.050155
C3    C     C_R   0.647929 0.969954 0.472624 -0.225859
C4    C     C_R   0.500525 0.499456 0.661737 0.908198
C5    C     C_R   0.639284 0.862580 0.477497 -0.209042
C6    C     C_R   0.440416 0.867632 0.518361 -0.284005
C7    C     C_R   0.448004 0.974270 0.512948 0.187137
C8    C     C_R   0.552466 0.025728 0.489577 0.187302
C9    C     C_R   0.559960 0.132319 0.483749 -0.280297
C10   C     C_R   0.361013 0.137424 0.524289 -0.209470
C11   C     C_R   0.352527 0.030068 0.529810 -0.228664
C12   C     C_3   0.450249 0.602193 0.050129 -0.439357
C13   C     C_R   0.954168 0.402409 0.421091 -0.348543
C14   C     C_R   0.837896 0.411758 0.428790 0.019820
C15   C     C_R   0.858480 0.542271 0.533914 -0.050495
C16   C     C_R   0.478036 0.299519 0.500730 0.881721
C17   C     C_R   0.975861 0.535615 0.528457 0.094329
C18   C     C_R   0.024165 0.464589 0.471250 0.098488
C19   C     C_R   0.141551 0.457849 0.465925 -0.049840
C20   C     C_R   0.162087 0.588446 0.570994 0.024632
C21   C     C_R   0.045842 0.597894 0.578537 -0.338316
C22   C     C_R   0.499495 0.500737 0.338303 0.907251
C23   C     C_3   0.500339 0.501912 0.082649 0.169612
C24   C     C_3   0.450002 0.600914 0.951631 0.369673
C25   C     C_3   0.623691 0.494928 0.945475 -0.412808
C26   C     C_3   0.623889 0.500675 0.044003 -0.226967
C27   C     C_1   0.498406 0.502734 0.249572 -0.179237
C28   C     C_3   0.502172 0.499987 0.917334 0.212384
C29   C     C_3   0.447515 0.752430 0.870107 0.087126
C30   C     C_3   0.520686 0.842332 0.830942 -0.814879
C31   C     C_R   0.694611 0.419763 0.083234 0.144308
C32   C     C_R   0.685180 0.313613 0.061450 -0.159549
C33   C     C_R   0.750165 0.241985 0.099807 -0.137790
C34   C     C_3   0.427401 0.406188 0.053063 0.365134
C35   C     C_R   0.825485 0.274989 0.160083 -0.124457
C36   C     C_R   0.836316 0.379815 0.181967 -0.135986
C37   C     C_R   0.771505 0.451751 0.143930 -0.137720
C38   C     C_3   0.262011 0.314113 0.100498 0.096085
C39   C     C_3   0.139396 0.325593 0.127664 -0.819858
C40   C     C_3   0.431306 0.404448 0.954374 -0.572596
C41   C     C_1   0.498612 0.503590 0.174295 -0.039081
C42   C     C_1   0.502280 0.498193 0.825845 -0.051418
C43   C     C_1   0.501783 0.498345 0.750548 -0.196843
C44   C     C_R   0.465034 0.188181 0.502074 -0.051833
H1    H     H_    0.499556 0.672087 0.071887 0.185497
H2    H     H_    0.360044 0.828299 0.536407 0.156262
H3    H     H_    0.180309 0.403722 0.422374 0.126176
H4    H     H_    0.216073 0.636484 0.609602 0.124544
H5    H     H_    0.988864 0.347194 0.376415 0.138359
H6    H     H_    0.011129 0.653264 0.623050 0.142571
H7    H     H_    0.783902 0.363826 0.390103 0.133350
H8    H     H_    0.819744 0.596418 0.577454 0.125761
H9    H     H_    0.660519 0.423189 0.920131 0.169973
H10   H     H_    0.677225 0.560941 0.916995 0.207306
H11   H     H_    0.664555 0.578250 0.058210 0.158620
H12   H     H_    0.360292 0.597959 0.934639 0.047873
H13   H     H_    0.344960 0.404277 0.931557 0.201279
H14   H     H_    0.467614 0.331390 0.931064 0.152775
H15   H     H_    0.379735 0.784565 0.911865 0.134410
H16   H     H_    0.410081 0.707225 0.817413 0.135465
H17   H     H_    0.588485 0.812085 0.788367 0.256226
H18   H     H_    0.469275 0.892234 0.793068 0.204203
H19   H     H_    0.558551 0.889854 0.881876 0.252231
H20   H     H_    0.628607 0.285590 0.014403 0.110461
H21   H     H_    0.742218 0.160709 0.082603 0.127039
H22   H     H_    0.875645 0.219377 0.189694 0.119883
H23   H     H_    0.363261 0.608878 0.077669 0.186862
H24   H     H_    0.894957 0.405441 0.228505 0.132064
H25   H     H_    0.780773 0.532514 0.162566 0.119131
H26   H     H_    0.301706 0.273601 0.152519 0.136505
H27   H     H_    0.266331 0.266171 0.041642 0.132687
H28   H     H_    0.097081 0.365289 0.076783 0.261085
H29   H     H_    0.096875 0.247688 0.139491 0.196864
H30   H     H_    0.132455 0.371880 0.187090 0.251897
H31   H     H_    0.464033 0.334846 0.076887 0.055472
H32   H     H_    0.640326 0.171587 0.465566 0.157847
H33   H     H_    0.287211 0.180509 0.538617 0.162715
H34   H     H_    0.728388 0.009147 0.454963 0.137304
H35   H     H_    0.272084 0.990891 0.547543 0.137437
H36   H     H_    0.713006 0.819514 0.462807 0.162070
N1    N     N_R   0.207800 0.519340 0.515510 -0.099685
N2    N     N_R   0.792190 0.480660 0.484490 -0.099192
O1    O     O_R   0.421690 0.658830 0.504140 -0.628235
O2    O     O_3   0.315085 0.413743 0.085986 -0.602316
O3    O     O_R   0.609320 0.646410 0.494190 -0.629187
O4    O     O_R   0.406150 0.506210 0.627840 -0.622953
O5    O     O_R   0.593770 0.493790 0.617880 -0.611632
O6    O     O_R   0.390680 0.353590 0.505810 -0.628627
O7    O     O_R   0.578310 0.341170 0.495860 -0.627216
O8    O     O_R   0.406230 0.506210 0.382120 -0.609770
O9    O     O_R   0.593850 0.493790 0.372160 -0.619368
O10   O     O_3   0.513792 0.689658 0.918096 -0.606913
Zn1   Zn    Zn3+2 0.374720 0.508290 0.506640 0.943099
Zn2   Zn    Zn3+2 0.625280 0.491710 0.493360 0.943668

loop_
_geom_bond_atom_site_label_1
_geom_bond_atom_site_label_2
_ccdc_geom_bond_type
C38   H26   S    
N2    Zn2   S    
C37   H25   S    
C35   C36   A    
C26   H11   S    
C33   H21   S    
C7    C8    A    
C4    O5    A    
C25   C28   S    
C7    C11   A    
C12   C23   S    
C13   C18   A    
C34   C40   S    
C36   C37   A    
C25   H9    S    
C18   C19   A    
C38   C39   S    
C19   H3    S    
C39   H30   S    
C4    O4    A    
C28   C40   S    
O1    Zn1   S    
O5    Zn2   S    
C1    C2    S    
C23   C26   S    
O7    Zn2   S    
C38   H27   S    
C29   H15   S    
C8    C9    A    
C39   H28   S    
C9    H32   S    
C16   C44   S    
C34   H31   S    
C16   O7    A    
C20   N1    A    
C2    C6    A    
C34   O2    S    
C30   H19   S    
C24   O10   S    
C21   H6    S    
C10   H33   S    
C15   N2    A    
C1    O3    A    
C12   H23   S    
C40   H14   S    
C10   C44   A    
C25   H10   S    
C32   H20   S    
C3    C8    A    
C35   H22   S    
C25   C26   S    
C17   C21   A    
C31   C37   A    
C29   C30   S    
O4    Zn1   S    
N1    Zn1   S    
O3    Zn2   S    
C27   C41   T    
C14   H7    S    
C29   H16   S    
C22   O9    A    
C23   C34   S    
C17   C18   A    
C22   O8    A    
C15   H8    S    
C5    H36   S    
C20   H4    S    
C11   H35   S    
C13   H5    S    
C22   C27   S    
C30   H18   S    
C2    C5    A    
C1    O1    A    
C42   C43   T    
C14   N2    A    
O8    Zn1   S    
C15   C17   A    
O6    Zn1   S    
C9    C44   A    
C40   H13   S    
C6    H2    S    
C38   O2    S    
C31   C32   A    
C24   C28   S    
C12   H1    S    
C3    C5    A    
C36   H24   S    
C6    C7    A    
C4    C43   S    
C24   H12   S    
C12   C24   S    
C23   C41   S    
C32   C33   A    
C19   N1    A    
O9    Zn2   S    
C28   C42   S    
C33   C35   A    
C39   H29   S    
C10   C11   A    
C26   C31   S    
C20   C21   A    
C30   H17   S    
C16   O6    A    
C13   C14   A    
C3    H34   S    
C29   O10   S    
