data_mof_unit_64132.cif
_audit_creation_date              2012-12-11T14:48:37-0500
_audit_creation_method            fapswitch 2.2
_symmetry_space_group_name_H-M    P1
_symmetry_Int_Tables_number       1
_space_group_crystal_system       triclinic
_cell_length_a                    7.226359
_cell_length_b                    18.970581
_cell_length_c                    19.101453
_cell_angle_alpha                 90.000029
_cell_angle_beta                  85.922176
_cell_angle_gamma                 90.000264
_cell_volume                      2611.95509999

loop_
_atom_site_label
_atom_site_type_symbol
_atom_type_description
_atom_site_fract_x
_atom_site_fract_y
_atom_site_fract_z
_atom_type_partial_charge
O1    O     O_R   0.350610 0.187000 0.656530 -0.520959
O2    O     O_R   0.649390 0.813000 0.343470 -0.520959
O3    O     O_R   0.149390 0.687000 0.343470 -0.520959
O4    O     O_R   0.850610 0.313000 0.656530 -0.520959
O5    O     O_R   0.655920 0.179060 0.799470 -0.538766
O6    O     O_R   0.344080 0.820940 0.200530 -0.538765
O7    O     O_R   0.844080 0.679060 0.200530 -0.538765
O8    O     O_R   0.155920 0.320940 0.799470 -0.538765
O9    O     O_R   0.826150 0.314000 0.799910 -0.539419
O10   O     O_R   0.173850 0.686000 0.200090 -0.539419
O11   O     O_R   0.673850 0.814000 0.200090 -0.539420
O12   O     O_R   0.326150 0.186000 0.799910 -0.539419
C1    C     C_R   0.484006 0.161313 0.822779 0.685160
C2    C     C_R   0.515994 0.838686 0.177221 0.685160
C3    C     C_R   0.015993 0.661313 0.177221 0.685162
C4    C     C_R   0.984007 0.338687 0.822779 0.685163
O13   O     O_R   0.680230 0.178680 0.657050 -0.521548
O14   O     O_R   0.319770 0.821320 0.342950 -0.521549
O15   O     O_R   0.819770 0.678680 0.342950 -0.521547
O16   O     O_R   0.180230 0.321320 0.657050 -0.521546
C5    C     C_R   0.517571 0.163162 0.632622 0.786054
C6    C     C_R   0.482429 0.836838 0.367378 0.786055
C7    C     C_R   0.982428 0.663162 0.367378 0.786050
C8    C     C_R   0.017572 0.336838 0.632621 0.786049
O17   O     O_3   0.504860 0.294770 0.728200 -0.373769
O18   O     O_3   0.495140 0.705230 0.271800 -0.373769
O19   O     O_3   0.995140 0.794770 0.271800 -0.373773
O20   O     O_3   0.004860 0.205230 0.728200 -0.373773
V1    V     V_3+5 0.779710 0.242290 0.728230 1.528724
V2    V     V_3+5 0.220290 0.757710 0.271770 1.528724
V3    V     V_3+5 0.720290 0.742290 0.271770 1.528729
V4    V     V_3+5 0.279710 0.257710 0.728230 1.528729
H1    H     H_    0.801144 0.448796 0.619534 0.179765
H2    H     H_    0.198856 0.551204 0.380465 0.179765
H3    H     H_    0.698815 0.948809 0.380452 0.179760
H4    H     H_    0.301185 0.051191 0.619548 0.179760
C9    C     C_1   0.031913 0.608845 0.120926 -0.148887
C10   C     C_1   0.968087 0.391155 0.879074 -0.148887
C11   C     C_1   0.468085 0.108845 0.879075 -0.148886
C12   C     C_1   0.531915 0.891155 0.120925 -0.148886
C13   C     C_2   0.070924 0.512214 0.017749 -0.125471
C14   C     C_2   0.929075 0.487786 0.982251 -0.125471
C15   C     C_2   0.429074 0.012216 0.982253 -0.125468
C16   C     C_2   0.570926 0.987784 0.017747 -0.125468
C17   C     C_1   0.953925 0.434990 0.926084 0.032600
C18   C     C_1   0.046075 0.565010 0.073916 0.032600
C19   C     C_1   0.546076 0.934989 0.073915 0.032601
C20   C     C_1   0.453924 0.065011 0.926085 0.032601
H5    H     H_    0.789865 0.507579 0.995268 0.140642
H6    H     H_    0.210135 0.492421 0.004732 0.140642
H7    H     H_    0.710139 0.007573 0.004726 0.140641
H8    H     H_    0.289861 0.992427 0.995274 0.140641
C21   C     C_R   0.027756 0.388753 0.574025 -0.170519
C22   C     C_R   0.972244 0.611247 0.425975 -0.170519
C23   C     C_R   0.472249 0.888753 0.425974 -0.170522
C24   C     C_R   0.527751 0.111247 0.574026 -0.170523
C25   C     C_R   0.807434 0.560862 0.530907 0.279244
C26   C     C_R   0.192566 0.439138 0.469093 0.279244
C27   C     C_R   0.692524 0.060874 0.469081 0.279229
C28   C     C_R   0.307476 0.939126 0.530919 0.279229
C29   C     C_R   0.831656 0.615740 0.481218 0.266917
C30   C     C_R   0.168344 0.384260 0.518782 0.266917
C31   C     C_R   0.668312 0.115748 0.518774 0.266916
C32   C     C_R   0.331688 0.884252 0.481226 0.266916
C33   C     C_R   0.093063 0.553463 0.423352 -0.174552
C34   C     C_R   0.906936 0.446537 0.576648 -0.174552
C35   C     C_R   0.406956 0.053456 0.576655 -0.174584
C36   C     C_R   0.593044 0.946544 0.423345 -0.174584
C37   C     C_R   0.072707 0.498291 0.473019 0.010916
C38   C     C_R   0.927293 0.501709 0.526981 0.010916
C39   C     C_R   0.427309 0.998286 0.526986 0.010914
C40   C     C_R   0.572691 0.001714 0.473014 0.010914
Br1   Br    Br    0.606285 0.567304 0.603084 -0.431485
Br2   Br    Br    0.393715 0.432696 0.396916 -0.431485
Br3   Br    Br    0.893621 0.067334 0.396886 -0.431476
Br4   Br    Br    0.106379 0.932666 0.603114 -0.431476
Br5   Br    Br    0.323227 0.301251 0.508506 -0.364627
Br6   Br    Br    0.676773 0.698749 0.491494 -0.364627
Br7   Br    Br    0.176823 0.801237 0.491503 -0.364623
Br8   Br    Br    0.823177 0.198763 0.508497 -0.364623

loop_
_geom_bond_atom_site_label_1
_geom_bond_atom_site_label_2
_ccdc_geom_bond_type
C26   C30   A    
C12   C19   T    
O1    C5    A    
O13   V1    S    
C13   C14   D    
C30   Br5   S    
O3    C7    A    
O15   V3    S    
C23   C36   A    
H4    C35   S    
C22   C33   A    
O20   V1    S    
O9    C4    A    
O10   C3    A    
O4    C8    A    
O11   C2    A    
C15   H8    S    
C25   Br1   S    
C3    C9    S    
C10   C17   T    
O16   C8    A    
O2    C6    A    
C13   C18   S    
O14   V2    S    
C25   C38   A    
C15   C20   S    
O5    C1    A    
O4    V1    S    
C16   C19   S    
O9    V1    S    
C27   C40   A    
O17   V4    S    
O7    C3    A    
O11   V3    S    
O18   V3    S    
O8    C4    A    
O12   V4    S    
O19   V2    S    
H2    C33   S    
H1    C34   S    
O5    V1    S    
C31   Br8   S    
O7    V3    S    
O8    V4    S    
C28   C39   A    
C8    C21   S    
C28   Br4   S    
O1    V4    S    
O13   C5    A    
O2    V3    S    
C14   C17   S    
O3    V2    S    
O15   C7    A    
C15   C16   D    
O6    C2    A    
C21   C30   A    
O10   V2    S    
C29   Br6   S    
C36   C40   A    
C23   C32   A    
C24   C31   A    
C21   C34   A    
C16   H7    S    
O6    V2    S    
C32   Br7   S    
C27   Br3   S    
C13   H6    S    
C26   Br2   S    
C7    C22   S    
O16   V4    S    
O14   C6    A    
C5    C24   S    
C26   C37   A    
C25   C29   A    
C6    C23   S    
C22   C29   A    
C24   C35   A    
C27   C31   A    
C28   C32   A    
C39   C40   A    
C34   C38   A    
H3    C36   S    
C33   C37   A    
C35   C39   A    
C37   C38   A    
C1    C11   S    
C14   H5    S    
C2    C12   S    
O12   C1    A    
C9    C18   T    
C4    C10   S    
C11   C20   T    
