data_mof_unit_24358.cif
_audit_creation_date              2013-03-05T15:47:07-0500
_audit_creation_method            fapswitch 2.2
_symmetry_space_group_name_H-M    P1
_symmetry_Int_Tables_number       1
_space_group_crystal_system       triclinic
_cell_length_a                    10.310647
_cell_length_b                    10.597943
_cell_length_c                    13.27137
_cell_angle_alpha                 93.413491
_cell_angle_beta                  101.1195
_cell_angle_gamma                 96.065782
_cell_volume                      1410.2389199

loop_
_atom_site_label
_atom_site_type_symbol
_atom_site_description
_atom_site_fract_x
_atom_site_fract_y
_atom_site_fract_z
_atom_type_partial_charge
O1    O     O_R   0.935190 0.693030 0.507870 -0.629776
O2    O     O_R   0.064810 0.306970 0.492130 -0.587476
O3    O     O_R   0.142080 0.658430 0.482770 -0.570520
O4    O     O_R   0.857920 0.341570 0.517230 -0.572385
C1    C     C_R   0.051560 0.733544 0.490483 0.839722
C2    C     C_R   0.945670 0.266216 0.503317 0.866906
O5    O     O_R   0.969700 0.527180 0.651960 -0.644775
O6    O     O_R   0.030300 0.472820 0.348040 -0.664068
O7    O     O_R   0.176600 0.492580 0.626860 -0.506284
O8    O     O_R   0.823400 0.507420 0.373140 -0.544495
C3    C     C_R   0.094354 0.517545 0.687202 0.917084
C4    C     C_R   0.904792 0.480529 0.312931 0.943078
Zn1   Zn    Zn3+2 0.861850 0.523100 0.516760 1.024596
Zn2   Zn    Zn3+2 0.138150 0.476900 0.483240 1.046133
C5    C     C_R   0.143632 0.537403 0.799294 -0.233888
C6    C     C_R   0.844924 0.438268 0.204974 -0.234612
C7    C     C_R   0.170665 0.665732 0.961066 -0.095928
C8    C     C_R   0.747429 0.245065 0.098060 -0.070038
C9    C     C_R   0.109142 0.640601 0.857463 -0.097299
C10   C     C_R   0.856254 0.313817 0.165974 -0.097652
C11   C     C_R   0.230538 0.455059 0.847458 0.289334
C12   C     C_R   0.737741 0.499806 0.159230 0.241591
C13   C     C_R   0.298098 0.485674 0.951520 -0.032515
C14   C     C_R   0.620313 0.425042 0.104881 0.005320
C15   C     C_R   0.274755 0.598960 0.005514 0.034378
C16   C     C_R   0.625632 0.295519 0.073108 0.064452
C17   C     C_R   0.397883 0.414491 0.000495 0.083455
C18   C     C_R   0.498095 0.476222 0.080130 0.117579
C19   C     C_R   0.470367 0.583046 0.136308 -0.096694
C20   C     C_R   0.399186 0.283656 0.976280 -0.179097
C21   C     C_R   0.358099 0.643167 0.102030 -0.045119
C22   C     C_R   0.509749 0.222126 0.014453 -0.040805
H1    H     H_    0.142110 0.744037 0.004161 0.238108
H2    H     H_    0.758770 0.151762 0.065899 0.232292
H3    H     H_    0.536234 0.620020 0.208194 0.176714
H4    H     H_    0.310953 0.226716 0.932332 0.180236
H5    H     H_    0.031812 0.106706 0.385906 0.211484
H6    H     H_    0.869307 0.867954 0.411432 0.235053
C23   C     C_2   0.075280 0.867833 0.472635 -0.259867
C24   C     C_2   0.908997 0.129582 0.494893 -0.212858
C25   C     C_2   0.966543 0.923646 0.434000 -0.015500
C26   C     C_2   0.967855 0.060113 0.432248 -0.065979
N1    N     N_2   0.322180 0.446120 0.460900 -0.203123
N2    N     N_2   0.677820 0.553880 0.539100 -0.236526
C27   C     C_2   0.433800 0.496134 0.523102 0.321537
C28   C     C_2   0.571464 0.470506 0.507967 0.280441
C29   C     C_2   0.341735 0.757348 0.166786 0.484273
H7    H     H_    0.364687 0.756601 0.250103 0.101107
O9    O     O_2   0.312867 0.855566 0.129324 -0.514941
C30   C     C_2   0.497122 0.081989 0.991003 0.497433
H8    H     H_    0.427792 0.037833 0.922776 0.093035
O10   O     O_2   0.556835 0.013671 0.049892 -0.486020
N3    N     N_R   0.755514 0.636735 0.157421 0.197002
O11   O     O_R   0.708634 0.688248 0.073417 -0.304685
O12   O     O_R   0.837893 0.707784 0.230673 -0.400724
N4    N     N_R   0.257431 0.347714 0.786444 0.191806
O13   O     O_R   0.375375 0.342439 0.766253 -0.311996
O14   O     O_R   0.160718 0.260832 0.743170 -0.419485
C31   C     C_2   0.981234 0.255243 0.193467 0.417972
H9    H     H_    0.074021 0.314372 0.223936 0.073975
O15   O     O_2   0.982639 0.140509 0.179247 -0.520932
C32   C     C_2   0.019094 0.731575 0.810276 0.479540
H10   H     H_    0.001461 0.741824 0.728213 0.061016
O16   O     O_2   0.965046 0.798926 0.863444 -0.506546
C33   C     C_2   0.816782 0.077339 0.559662 0.546466
H11   H     H_    0.787853 0.140417 0.616726 0.107607
O17   O     O_2   0.770412 0.965764 0.549660 -0.558661
C34   C     C_2   0.213647 0.934371 0.502233 0.497538
H12   H     H_    0.293530 0.882355 0.536859 0.145190
O18   O     O_2   0.240932 0.046102 0.488526 -0.511319
N5    N     N_R   0.587275 0.343486 0.472829 0.209590
O19   O     O_R   0.537911 0.247570 0.515971 -0.359229
O20   O     O_R   0.623859 0.322566 0.385463 -0.339618
N6    N     N_R   0.428427 0.570649 0.616023 0.220625
O21   O     O_R   0.507868 0.553367 0.701641 -0.360179
O22   O     O_R   0.371924 0.674566 0.610643 -0.382960
C35   C     C_2   0.664425 0.685355 0.555896 0.642143
H13   H     H_    0.735002 0.742998 0.616667 0.104995
O23   O     O_2   0.580878 0.735738 0.498815 -0.545488
C36   C     C_2   0.324431 0.380377 0.364870 0.563726
H14   H     H_    0.263510 0.289713 0.342317 0.088983
O24   O     O_2   0.388256 0.427797 0.305259 -0.613454

loop_
_geom_bond_atom_site_label_1
_geom_bond_atom_site_label_2
_geom_bond_distance
_ccdc_geom_bond_type
C15   C21   1.420395 A    
C35   H13   1.083605 S    
C16   C22   1.418211 A    
C25   C26   1.446512 S    
N3    O12   1.301035 A    
C8    C16   1.405418 A    
C29   O9    1.220361 D    
C27   C28   1.521106 S    
C5    C9    1.416379 A    
N6    O22   1.298580 A    
O1    C1    1.298825 A    
C12   C14   1.416453 A    
C18   C19   1.403350 A    
C14   C16   1.421610 A    
C9    C32   1.490161 S    
O4    Zn1   1.920392 S    
N4    O13   1.300786 A    
C23   C34   1.491695 S    
H5    C26   1.086611 S    
C32   O16   1.222165 D    
C3    C5    1.471069 S    
C4    C6    1.469144 S    
C34   H12   1.083322 S    
C33   O17   1.217284 D    
C30   O10   1.220692 D    
C13   C17   1.419362 A    
C6    C10   1.412690 A    
C24   C26   1.348204 D    
C31   H9    1.079521 S    
C21   C29   1.485461 S    
C17   C20   1.406625 A    
O2    C2    1.297469 A    
C7    H1    1.078211 S    
N2    C28   1.315663 D    
C12   N3    1.445571 S    
C35   O23   1.222585 D    
C31   O15   1.221393 D    
N6    O21   1.301177 A    
H6    C25   1.086865 S    
C23   C25   1.350663 D    
N5    O20   1.300598 A    
O6    Zn2   1.915437 S    
N1    C36   1.421021 S    
N3    O11   1.301905 A    
C27   N6    1.437738 S    
O5    C3    1.297165 A    
O7    Zn2   1.864043 S    
C32   H10   1.082980 S    
O7    C3    1.309410 A    
C29   H7    1.085915 S    
C5    C11   1.408484 A    
O6    C4    1.301033 A    
C30   H8    1.085841 S    
C10   C31   1.481114 S    
N1    C27   1.318880 D    
C22   C30   1.485921 S    
C28   N5    1.434265 S    
O3    Zn2   1.920392 S    
O8    C4    1.306164 A    
O4    C2    1.300011 A    
C24   C33   1.486644 S    
C11   C13   1.423231 A    
C2    C24   1.449473 S    
O1    Zn1   1.897608 S    
N2    C35   1.423302 S    
C6    C12   1.398527 A    
C14   C18   1.412829 A    
C36   H14   1.083084 S    
O3    C1    1.303622 A    
O8    Zn1   1.864041 S    
C11   N4    1.438866 S    
C19   H3    1.083630 S    
C20   H4    1.081372 S    
C7    C15   1.402346 A    
C1    C23   1.459558 S    
N5    O19   1.300976 A    
C19   C21   1.392886 A    
C20   C22   1.398250 A    
C8    H2    1.080298 S    
C7    C9    1.395737 A    
C36   O24   1.220551 D    
N4    O14   1.301571 A    
C8    C10   1.400430 A    
C13   C15   1.427591 A    
O2    Zn2   1.897608 S    
O5    Zn1   1.915437 S    
C34   O18   1.220389 D    
C33   H11   1.085529 S    
C17   C18   1.402211 A    
Zn1   N2    2.032481 S    
Zn2   N1    2.032481 S    
