data_mof_unit_16076.cif
_audit_creation_date              2012-12-10T19:46:51-0500
_audit_creation_method            fapswitch 2.2
_symmetry_space_group_name_H-M    P1
_symmetry_Int_Tables_number       1
_space_group_crystal_system       triclinic
_cell_length_a                    10.906268
_cell_length_b                    10.902156
_cell_length_c                    13.110403
_cell_angle_alpha                 90.822082
_cell_angle_beta                  90.82995
_cell_angle_gamma                 90.563933
_cell_volume                      1558.44825277

loop_
_atom_site_label
_atom_site_type_symbol
_atom_type_description
_atom_site_fract_x
_atom_site_fract_y
_atom_site_fract_z
_atom_type_partial_charge
C1    C     C_R   0.495555 0.259444 0.498955 0.818843
C2    C     C_R   0.505749 0.740503 0.501023 0.829783
C3    C     C_R   0.872809 0.493580 0.502095 -0.109607
C4    C     C_R   0.127058 0.503303 0.497472 -0.111629
C5    C     C_R   0.941109 0.465269 0.590788 0.024567
C6    C     C_R   0.058767 0.530913 0.408595 0.025223
C7    C     C_R   0.304029 0.188210 0.186005 -0.113698
C8    C     C_R   0.702719 0.806916 0.811590 -0.116591
C9    C     C_R   0.336485 0.145738 0.282499 -0.104732
C10   C     C_R   0.670213 0.850561 0.715481 -0.097149
C11   C     C_R   0.458201 0.113495 0.304943 0.116501
C12   C     C_R   0.549288 0.886550 0.694376 0.101828
C13   C     C_R   0.548809 0.125598 0.229049 0.182132
C14   C     C_R   0.459709 0.877581 0.771405 0.189073
C15   C     C_R   0.514047 0.168744 0.132330 -0.160745
C16   C     C_R   0.494232 0.832205 0.867412 -0.141194
C17   C     C_R   0.392525 0.199484 0.111031 -0.178094
C18   C     C_R   0.614964 0.797647 0.887359 -0.180191
C19   C     C_R   0.490609 0.931919 0.409427 -0.217109
C20   C     C_R   0.515825 0.068206 0.590072 -0.189964
C21   C     C_R   0.507398 0.873019 0.502517 -0.121475
C22   C     C_R   0.497536 0.127015 0.497171 -0.122686
C23   C     C_R   0.259522 0.503986 0.499102 0.834185
C24   C     C_R   0.740375 0.494568 0.500816 0.827773
C25   C     C_R   0.522008 0.941733 0.593998 -0.011508
C26   C     C_R   0.485426 0.058447 0.405389 0.008876
C27   C     C_1   0.500065 0.500053 0.173551 0.152086
C28   C     C_1   0.500012 0.499845 0.826451 0.151493
C29   C     C_1   0.500096 0.499982 0.050686 -0.024719
C30   C     C_1   0.500048 0.499832 0.949316 -0.026801
C31   C     C_R   0.220527 0.728934 0.216663 0.348876
C32   C     C_R   0.780227 0.267143 0.783146 0.346337
C33   C     C_R   0.172114 0.685091 0.307578 -0.211050
C34   C     C_R   0.826630 0.311737 0.691730 -0.212936
C35   C     C_R   0.115094 0.569289 0.311520 -0.062492
C36   C     C_R   0.884930 0.426923 0.687927 -0.061345
C37   C     C_R   0.106577 0.495373 0.221703 0.356156
C38   C     C_R   0.896330 0.499578 0.778267 0.353586
C39   C     C_R   0.152677 0.540580 0.130478 -0.170684
C40   C     C_R   0.851900 0.453773 0.869828 -0.171006
C41   C     C_R   0.206710 0.657186 0.125825 0.285631
C42   C     C_R   0.796977 0.337618 0.874360 0.286899
C43   C     C_R   0.932009 0.525254 0.412151 -0.233068
C44   C     C_R   0.067896 0.470730 0.587161 -0.228318
Cu1   Cu    Cu3+1 0.499990 0.499990 0.592680 0.979567
Cu2   Cu    Cu3+1 0.500010 0.500010 0.407320 0.977345
H1    H     H_    0.581078 0.178472 0.072939 0.161246
H2    H     H_    0.427438 0.823943 0.927206 0.160812
H3    H     H_    0.479565 0.879147 0.339122 0.187773
H4    H     H_    0.526789 0.121066 0.660261 0.193847
H5    H     H_    0.179799 0.741596 0.376136 0.166617
H6    H     H_    0.816941 0.256060 0.622841 0.164894
H7    H     H_    0.143864 0.485158 0.061441 0.193434
H8    H     H_    0.863078 0.508176 0.939220 0.193332
H9    H     H_    0.879328 0.548046 0.344302 0.175660
H10   H     H_    0.120662 0.447651 0.654895 0.177641
H11   H     H_    0.366948 0.232056 0.036139 0.148943
H12   H     H_    0.640507 0.763638 0.961785 0.146535
H13   H     H_    0.209791 0.210805 0.168787 0.187501
H14   H     H_    0.796430 0.781669 0.827868 0.188063
H15   H     H_    0.266185 0.135669 0.339409 0.129522
H16   H     H_    0.739904 0.858506 0.657822 0.128455
N1    N     N_1   0.500030 0.500030 0.268070 -0.138929
N2    N     N_1   0.499970 0.499970 0.731930 -0.138680
O1    O     O_R   0.499980 0.319630 0.578260 -0.582141
O2    O     O_R   0.500020 0.680370 0.421740 -0.580211
O3    O     O_R   0.500000 0.319650 0.421740 -0.572137
O4    O     O_R   0.500000 0.680350 0.578260 -0.576950
O5    O     O_R   0.319630 0.500000 0.578260 -0.582964
O6    O     O_R   0.680370 0.500000 0.421740 -0.588570
O7    O     O_R   0.319650 0.500020 0.421740 -0.572072
O8    O     O_R   0.680350 0.499980 0.578260 -0.571991
O9    O     O_3   0.241462 0.698004 0.031352 -0.740076
H17   H     H_    0.238335 0.788710 0.031457 0.325002
O10   O     O_3   0.764619 0.295748 0.969085 -0.739660
H18   H     H_    0.767667 0.205030 0.968098 0.323200
C45   C     C_3   0.681679 0.093052 0.248420 -0.442731
C46   C     C_3   0.749548 0.194492 0.308432 -0.726553
H19   H     H_    0.738571 0.284052 0.270094 0.270460
H20   H     H_    0.714857 0.201640 0.387303 0.232796
H21   H     H_    0.848776 0.173028 0.312888 0.233733
H22   H     H_    0.688417 0.005157 0.289735 0.202134
H23   H     H_    0.729323 0.079024 0.174799 0.207823
C47   C     C_3   0.327521 0.913544 0.753754 -0.418882
C48   C     C_3   0.297527 0.031574 0.811975 -0.831554
H24   H     H_    0.309224 0.018875 0.895455 0.248458
H25   H     H_    0.358184 0.107782 0.787577 0.248240
H26   H     H_    0.200840 0.056927 0.796067 0.254129
H27   H     H_    0.306466 0.926749 0.671594 0.209200
H28   H     H_    0.266275 0.838319 0.779461 0.226609
O11   O     O_3   0.280271 0.841030 0.220198 -0.753232
H29   H     H_    0.340462 0.843872 0.164467 0.317091
O12   O     O_3   0.719934 0.155354 0.779868 -0.753102
H30   H     H_    0.661137 0.152251 0.836621 0.319446
O13   O     O_3   0.052600 0.380202 0.218728 -0.744353
H31   H     H_    0.039415 0.351388 0.288943 0.327768
O14   O     O_3   0.952116 0.613866 0.781429 -0.743019
H32   H     H_    0.962380 0.644122 0.711275 0.329477

loop_
_geom_bond_atom_site_label_1
_geom_bond_atom_site_label_2
_ccdc_geom_bond_type
O12   H30   S    
C27   C29   S    
O9    H17   S    
C23   O5    A    
O13   H31   S    
C15   H1    S    
C16   H2    S    
O14   H32   S    
C24   O6    A    
C39   C41   A    
Cu1   Cu2   S    
C3    C43   A    
C42   O10   S    
C9    H15   S    
C19   C21   A    
Cu2   O2    S    
C2    O4    A    
C46   H20   S    
C20   C25   A    
C45   H23   S    
C5    C36   S    
C6    C35   S    
C37   O13   S    
C7    C9    A    
C19   C26   A    
C19   H3    S    
C20   H4    S    
C1    O3    A    
C18   H12   S    
C7    C17   A    
C1    O1    A    
C31   C33   A    
C14   C47   S    
C45   C46   S    
C40   C42   A    
C32   O12   S    
C1    C22   S    
Cu1   O8    S    
C3    C24   S    
C10   H16   S    
C47   H28   S    
C2    C21   S    
C38   O14   S    
C7    H13   S    
C48   H25   S    
C13   C45   S    
Cu1   O5    S    
C23   O7    A    
C47   C48   S    
C4    C6    A    
O11   H29   S    
C4    C23   S    
C46   H19   S    
C4    C44   A    
C11   C26   S    
C2    O2    A    
C48   H24   S    
C8    C18   A    
C40   H8    S    
C32   C34   A    
O10   H18   S    
C29   C30   T    
C44   H10   S    
Cu1   O4    S    
C16   C18   A    
C9    C11   A    
Cu2   O7    S    
C10   C12   A    
C28   N2    T    
C43   H9    S    
C5    C44   A    
C12   C14   A    
C31   O11   S    
C6    C43   A    
C13   C15   A    
Cu1   O1    S    
C14   C16   A    
C47   H27   S    
C24   O8    A    
C48   H26   S    
C15   C17   A    
C21   C25   A    
C31   C41   A    
C35   C37   A    
C20   C22   A    
C3    C5    A    
C33   H5    S    
C12   C25   S    
Cu1   N2    S    
C34   H6    S    
Cu2   N1    S    
C36   C38   A    
Cu2   O3    S    
C37   C39   A    
C8    H14   S    
C38   C40   A    
C11   C13   A    
C46   H21   S    
C39   H7    S    
C45   H22   S    
C28   C30   S    
C33   C35   A    
C34   C36   A    
Cu2   O6    S    
C41   O9    S    
C8    C10   A    
C22   C26   A    
C32   C42   A    
C27   N1    T    
C17   H11   S    
