data_mof_unit_49656.cif
_audit_creation_date              2012-12-11T17:37:56-0500
_audit_creation_method            fapswitch 2.2
_symmetry_space_group_name_H-M    P1
_symmetry_Int_Tables_number       1
_space_group_crystal_system       triclinic
_cell_length_a                    13.001413
_cell_length_b                    13.060817
_cell_length_c                    15.467231
_cell_angle_alpha                 117.740732
_cell_angle_beta                  63.47838
_cell_angle_gamma                 97.84722
_cell_volume                      2071.51846436

loop_
_atom_site_label
_atom_site_type_symbol
_atom_type_description
_atom_site_fract_x
_atom_site_fract_y
_atom_site_fract_z
_atom_type_partial_charge
C1    C     C_R   0.997797 0.832829 0.060021 -0.112622
C2    C     C_R   0.301204 0.590874 0.789832 -0.150935
C3    C     C_R   0.259425 0.416261 0.046243 -0.149704
C4    C     C_R   0.678654 0.477571 0.219270 -0.131866
C5    C     C_R   0.048141 0.275203 0.683326 -0.086231
C6    C     C_R   0.362122 0.433824 0.973187 0.141892
C7    C     C_R   0.034409 0.163620 0.675193 0.061781
C8    C     C_R   0.301250 0.554147 0.690387 0.068400
C9    C     C_R   0.007169 0.151055 0.041913 0.048917
C10   C     C_R   0.456211 0.860201 0.104807 -0.140041
C11   C     C_R   0.367087 0.862372 0.199588 -0.122637
C12   C     C_R   0.671655 0.558227 0.320133 0.035696
C13   C     C_R   0.284486 0.958798 0.274088 0.096930
C14   C     C_R   0.292799 0.052964 0.251412 -0.243882
C15   C     C_R   0.382482 0.051146 0.155674 0.005813
C16   C     C_R   0.754454 0.520922 0.895575 -0.181935
C17   C     C_R   0.464308 0.954012 0.082932 -0.172116
C18   C     C_R   0.163144 0.057935 0.476349 -0.204350
C19   C     C_R   0.084464 0.053435 0.573598 0.068215
C20   C     C_R   0.056312 0.942532 0.568610 0.027856
C21   C     C_R   0.091690 0.845744 0.468725 -0.230581
C22   C     C_R   0.136771 0.858894 0.374724 0.038036
C23   C     C_R   0.661954 0.459614 0.926772 0.159551
C24   C     C_R   0.191421 0.959674 0.375448 0.045774
C25   C     C_R   0.020310 0.907577 0.724048 -0.171812
C26   C     C_R   0.945277 0.886242 0.811096 -0.166476
C27   C     C_R   0.828280 0.876409 0.834292 -0.092522
C28   C     C_R   0.026302 0.695172 0.296706 -0.147826
C29   C     C_R   0.786414 0.887043 0.769745 -0.084710
C30   C     C_R   0.861077 0.908978 0.682837 -0.172058
C31   C     C_R   0.977935 0.921182 0.660932 0.112337
C32   C     C_R   0.864221 0.373501 0.359220 -0.057561
C33   C     C_R   0.747385 0.406801 0.403004 -0.115034
C34   C     C_R   0.092185 0.786924 0.294480 0.077874
C35   C     C_R   0.703401 0.521866 0.481343 0.093900
C36   C     C_R   0.773361 0.598922 0.524950 -0.118348
C37   C     C_R   0.890724 0.565968 0.478825 -0.091781
C38   C     C_R   0.936963 0.454920 0.392877 -0.137058
C39   C     C_R   0.499198 0.574986 0.594518 -0.240422
C40   C     C_R   0.676212 0.421337 0.990086 -0.129943
C41   C     C_R   0.388099 0.577060 0.603573 0.068952
C42   C     C_R   0.368248 0.584452 0.523287 0.026332
C43   C     C_R   0.462848 0.589863 0.435385 -0.248721
C44   C     C_R   0.574550 0.578095 0.422968 0.076767
C45   C     C_R   0.338471 0.515140 0.949517 -0.114858
C46   C     C_R   0.592158 0.566157 0.502002 0.013839
C47   C     C_R   0.247335 0.451866 0.440817 -0.157132
C48   C     C_R   0.140203 0.406805 0.458106 -0.205399
C49   C     C_R   0.040023 0.472080 0.550490 -0.059281
C50   C     C_R   0.047220 0.588018 0.618943 -0.188879
C51   C     C_R   0.155109 0.632738 0.602545 -0.145269
C52   C     C_R   0.103802 0.796366 0.205176 -0.137882
C53   C     C_R   0.256264 0.561682 0.517425 0.101012
C54   C     C_2   0.475541 0.392357 0.945025 -0.186782
C55   C     C_2   0.568068 0.438209 0.896532 -0.197265
C56   C     C_R   0.965976 0.178126 0.780475 -0.132120
C57   C     C_2   0.825174 0.957751 0.107730 -0.203585
C58   C     C_2   0.824603 0.047920 0.197407 -0.148114
C59   C     C_R   0.782732 0.577596 0.308851 -0.094765
C60   C     C_R   0.895192 0.747888 0.965520 -0.165595
C61   C     C_R   0.906487 0.852544 0.044285 0.120850
C62   C     C_2   0.390575 0.150286 0.131716 0.953410
C63   C     C_2   0.929663 0.417598 0.576953 0.994731
C64   C     C_R   0.206152 0.493593 0.690655 -0.141320
C65   C     C_R   0.052447 0.254800 0.085841 -0.131745
C66   C     C_R   0.949820 0.171577 0.993457 -0.123151
H1    H     H_    0.026962 0.893889 0.119163 0.101457
H2    H     H_    0.519402 0.785617 0.048195 0.117791
H3    H     H_    0.363029 0.788895 0.215242 0.115115
H4    H     H_    0.608253 0.440778 0.198686 0.107700
H5    H     H_    0.228846 0.126743 0.307790 0.153998
H6    H     H_    0.201180 0.137430 0.478193 0.119863
H7    H     H_    0.066485 0.762896 0.467003 0.123134
H8    H     H_    0.110440 0.916169 0.707274 0.122050
H9    H     H_    0.978478 0.878916 0.860743 0.136342
H10   H     H_    0.769582 0.860936 0.902186 0.091736
H11   H     H_    0.696128 0.878652 0.787266 0.112214
H12   H     H_    0.931392 0.115180 0.808894 0.131104
H13   H     H_    0.828079 0.917131 0.633023 0.124908
H14   H     H_    0.028678 0.431047 0.354090 0.121126
H15   H     H_    0.774693 0.554205 0.838461 0.151335
H16   H     H_    0.898978 0.286137 0.296359 0.115621
H17   H     H_    0.693321 0.346031 0.370150 0.117997
H18   H     H_    0.739873 0.687337 0.586353 0.109665
H19   H     H_    0.946189 0.627492 0.508065 0.121173
H20   H     H_    0.515258 0.562818 0.652397 0.132413
H21   H     H_    0.450069 0.592410 0.371713 0.132041
H22   H     H_    0.324454 0.395813 0.374983 0.152356
H23   H     H_    0.178674 0.452288 0.628127 0.128958
H24   H     H_    0.136193 0.318670 0.402586 0.184150
H25   H     H_    0.970914 0.640385 0.689839 0.166334
H26   H     H_    0.014308 0.651352 0.343936 0.099276
H27   H     H_    0.160966 0.716545 0.663191 0.122771
H28   H     H_    0.478540 0.345118 0.985927 0.153518
H29   H     H_    0.566402 0.481849 0.852258 0.127656
H30   H     H_    0.760194 0.960926 0.082961 0.140957
H31   H     H_    0.885282 0.050742 0.228753 0.138453
H32   H     H_    0.629241 0.358480 0.016506 0.121021
H33   H     H_    0.159574 0.850463 0.171388 0.114470
H34   H     H_    0.091031 0.274111 0.140169 0.110036
H35   H     H_    0.808465 0.641090 0.369375 0.114294
H36   H     H_    0.828389 0.731136 0.938739 0.104279
H37   H     H_    0.397430 0.552611 0.898745 0.090843
H38   H     H_    0.318873 0.304153 0.174704 0.306988
H39   H     H_    0.756007 0.439693 0.658009 0.321028
H40   H     H_    0.891620 0.115023 0.964415 0.117422
H41   H     H_    0.355758 0.651639 0.821735 0.097538
H42   H     H_    0.249022 0.362019 0.084332 0.103665
H43   H     H_    0.090690 0.297484 0.617561 0.098031
H44   H     H_    0.534255 0.950229 0.008773 0.140516
N1    N     N_R   0.037320 0.720000 0.995830 -0.045949
N2    N     N_R   0.824900 0.517970 0.936430 -0.039773
N3    N     N_R   0.003190 0.648180 0.211390 -0.041670
N4    N     N_R   0.774330 0.457010 0.995830 -0.043628
N5    N     N_R   0.053760 0.709130 0.151980 -0.042926
N6    N     N_R   0.853840 0.498830 0.211390 -0.042099
N7    N     N_R   0.974250 0.667320 0.936430 -0.039334
N8    N     N_R   0.225670 0.542990 0.004170 -0.045303
N9    N     N_R   0.946240 0.290870 0.848020 -0.043834
N10   N     N_R   0.146160 0.501170 0.788610 -0.042897
N11   N     N_R   0.025750 0.332680 0.063570 -0.039289
N12   N     N_R   0.962680 0.280000 0.004170 -0.043572
N13   N     N_R   0.209230 0.553860 0.848010 -0.038274
N14   N     N_R   0.175100 0.482030 0.063570 -0.041882
N15   N     N_R   0.996810 0.351820 0.788610 -0.044833
N16   N     N_R   0.790770 0.446140 0.151990 -0.042138
Ni1   Ni    Ni4+2 0.130310 0.630310 0.000000 0.212338
Ni2   Ni    Ni4+2 0.869690 0.369690 0.000000 0.228625
Ni3   Ni    Ni4+2 0.985660 0.509480 0.863750 0.223005
Ni4   Ni    Ni4+2 0.014340 0.490520 0.136250 0.214777
O1    O     O_2   0.475175 0.154373 0.055044 -0.677885
O2    O     O_R   0.301292 0.239449 0.196641 -0.849261
O3    O     O_2   0.929451 0.311797 0.533780 -0.658676
O4    O     O_R   0.825280 0.486982 0.649024 -0.833411

loop_
_geom_bond_atom_site_label_1
_geom_bond_atom_site_label_2
_ccdc_geom_bond_type
C45   N8    A    
C25   C31   A    
C49   C63   S    
C6    C45   A    
C27   C29   A    
C14   H5    S    
C35   C36   A    
N11   Ni4   S    
C3    C6    A    
C17   H44   S    
C4    H4    S    
C56   H12   S    
C39   C41   A    
C2    N13   A    
C26   C27   A    
C29   C30   A    
C5    H43   S    
C18   C24   A    
C63   O3    D    
C37   H19   S    
C36   C37   A    
C66   H40   S    
C18   C19   A    
C42   C53   S    
C40   H32   S    
C30   C31   A    
C10   C17   A    
H38   O2    S    
C23   C40   A    
C21   H7    S    
C2    H41   S    
N5    Ni1   S    
C25   H8    S    
C41   C42   A    
C9    C66   A    
C45   H37   S    
C1    H1    S    
C12   C59   A    
C40   N4    A    
C19   C20   A    
C59   N6    A    
C57   H30   S    
C66   N12   A    
C65   N11   A    
N2    Ni3   S    
C4    C12   A    
N7    Ni3   S    
N10   N13   A    
C47   C53   A    
N9    Ni2   S    
C28   C34   A    
C48   H24   S    
C13   C14   A    
C58   H31   S    
C7    C56   A    
C6    C54   S    
C60   H36   S    
N2    N4    A    
C44   C46   A    
C26   H9    S    
C18   H6    S    
C22   C34   S    
N3    Ni4   S    
N10   Ni3   S    
C59   H35   S    
C63   O4    S    
C62   O2    S    
C8    C41   S    
C55   H29   S    
C28   N3    A    
C5    C7    A    
C25   C26   A    
C13   C24   S    
C60   C61   A    
C51   C53   A    
N6    Ni4   S    
C43   C44   A    
C37   C38   A    
N4    Ni2   S    
N13   Ni1   S    
C47   C48   A    
C50   C51   A    
N14   Ni4   S    
C60   N7    A    
C28   H26   S    
N8    N14   A    
C57   C61   S    
C33   H17   S    
N11   N12   A    
C8    C64   A    
C39   C46   A    
C30   H13   S    
N9    N15   A    
C48   C49   A    
C51   H27   S    
C16   C23   A    
C32   C38   A    
N1    Ni1   S    
C56   N9    A    
C22   C24   A    
C42   C43   A    
C27   H10   S    
C3    N14   A    
C16   N2    A    
C52   N5    A    
C64   H23   S    
C15   C17   A    
C54   C55   D    
N16   Ni2   S    
C34   C52   A    
C62   O1    D    
C2    C8    A    
C65   H34   S    
C1    C61   A    
C11   H3    S    
C23   C55   S    
C10   H2    S    
C3    H42   S    
C32   H16   S    
C52   H33   S    
C7    C19   S    
C64   N10   A    
C4    N16   A    
N1    N7    A    
C43   H21   S    
C47   H22   S    
C12   C44   S    
C32   C33   A    
C11   C13   A    
C57   C58   D    
C38   H14   S    
C36   H18   S    
C16   H15   S    
C33   C35   A    
C15   C62   S    
N12   Ni2   S    
C9    C65   A    
C54   H28   S    
C10   C11   A    
N15   Ni3   S    
C50   H25   S    
C29   H11   S    
C20   C21   A    
C49   C50   A    
N8    Ni1   S    
C5    N15   A    
C14   C15   A    
N6    N16   A    
C39   H20   S    
C21   C22   A    
C35   C46   S    
C1    N1    A    
H39   O4    S    
N3    N5    A    
C20   C31   S    
