data_mof_unit_40948.cif
_audit_creation_date              2012-12-10T17:28:31-0500
_audit_creation_method            fapswitch 2.2
_symmetry_space_group_name_H-M    P1
_symmetry_Int_Tables_number       1
_space_group_crystal_system       triclinic
_cell_length_a                    10.64461
_cell_length_b                    12.007853
_cell_length_c                    12.837102
_cell_angle_alpha                 93.544354
_cell_angle_beta                  89.994291
_cell_angle_gamma                 86.477726
_cell_volume                      1634.57979318

loop_
_atom_site_label
_atom_site_type_symbol
_atom_type_description
_atom_site_fract_x
_atom_site_fract_y
_atom_site_fract_z
_atom_type_partial_charge
C1    C     C_R   0.496744 0.522194 0.700281 0.886832
C2    C     C_R   0.551980 0.545797 0.131123 0.572539
C3    C     C_R   0.466704 0.456414 0.975369 -0.023471
C4    C     C_R   0.533298 0.543584 0.024630 -0.023473
C5    C     C_R   0.382779 0.954317 0.402745 -0.354334
C6    C     C_R   0.617221 0.045683 0.597255 -0.354333
C7    C     C_R   0.393934 0.838196 0.411981 0.805737
C8    C     C_R   0.606066 0.161804 0.588019 0.805737
C9    C     C_R   0.550642 0.858506 0.541947 -0.113947
C10   C     C_R   0.449358 0.141494 0.458053 -0.113947
C11   C     C_R   0.542577 0.975810 0.535317 0.002136
C12   C     C_R   0.503256 0.477806 0.299719 0.886835
C13   C     C_R   0.457423 0.024190 0.464683 0.002136
C14   C     C_R   0.739084 0.500370 0.499810 0.853248
C15   C     C_R   0.260917 0.499630 0.500191 0.853253
C16   C     C_R   0.870224 0.493860 0.306668 -0.101791
C17   C     C_R   0.129777 0.506130 0.693333 -0.101792
C18   C     C_R   0.935951 0.489941 0.212458 -0.105700
C19   C     C_R   0.064051 0.510038 0.787543 -0.105695
C20   C     C_R   0.066599 0.488974 0.212558 -0.138882
C21   C     C_R   0.933403 0.511000 0.787444 -0.138882
C22   C     C_R   0.131536 0.491974 0.306867 -0.105975
C23   C     C_R   0.501673 0.463941 0.188475 -0.165159
C24   C     C_R   0.868466 0.508009 0.693135 -0.105973
C25   C     C_R   0.066030 0.496223 0.403424 0.070931
C26   C     C_R   0.933971 0.503770 0.596578 0.070926
C27   C     C_R   0.934808 0.497290 0.403323 0.049115
C28   C     C_R   0.065193 0.502704 0.596679 0.049111
C29   C     C_R   0.128632 0.498908 0.500102 -0.161121
C30   C     C_R   0.871369 0.501091 0.499900 -0.161124
C31   C     C_R   0.498328 0.536058 0.811524 -0.165160
C32   C     C_R   0.578617 0.627745 0.966791 -0.142305
C33   C     C_R   0.421386 0.372254 0.033209 -0.142308
C34   C     C_R   0.560946 0.623964 0.860036 -0.323568
C35   C     C_R   0.439055 0.376035 0.139964 -0.323570
C36   C     C_R   0.448021 0.454202 0.868877 0.572537
F1    F     F_    0.617129 0.628364 0.179298 -0.674359
F2    F     F_    0.382872 0.371635 0.820702 -0.674361
F3    F     F_    0.678754 0.228625 0.648054 -0.643992
F4    F     F_    0.321246 0.771375 0.351946 -0.643990
H1    H     H_    0.882145 0.514260 0.860543 0.147007
H2    H     H_    0.766948 0.509248 0.696742 0.133242
H3    H     H_    0.399477 0.313224 0.185068 0.185136
H4    H     H_    0.600525 0.686775 0.814932 0.185136
H5    H     H_    0.629214 0.695215 0.003396 0.212678
H6    H     H_    0.370789 0.304783 0.996604 0.212677
H7    H     H_    0.384422 0.180091 0.404106 0.153645
H8    H     H_    0.615578 0.819909 0.595893 0.153645
H9    H     H_    0.117857 0.485704 0.139459 0.147006
H10   H     H_    0.316365 0.989125 0.347722 0.175956
H11   H     H_    0.683634 0.010875 0.652278 0.175956
H12   H     H_    0.768838 0.493960 0.302963 0.148363
H13   H     H_    0.231163 0.506034 0.697038 0.148364
H14   H     H_    0.885325 0.487478 0.139276 0.151582
H15   H     H_    0.114677 0.512495 0.860725 0.151587
H16   H     H_    0.233054 0.490731 0.303260 0.133234
N1    N     N_R   0.523130 0.207800 0.519340 -0.151843
N2    N     N_R   0.476870 0.792200 0.480660 -0.151843
O1    O     O_R   0.506170 0.421700 0.658830 -0.516101
O2    O     O_R   0.493830 0.578300 0.341170 -0.516099
O3    O     O_R   0.491330 0.609310 0.646410 -0.651111
O4    O     O_R   0.508670 0.390690 0.353590 -0.651112
O5    O     O_R   0.690650 0.406190 0.506220 -0.576311
O6    O     O_R   0.309350 0.593810 0.493780 -0.576310
O7    O     O_R   0.675800 0.593810 0.493800 -0.620788
O8    O     O_R   0.324200 0.406190 0.506200 -0.620792
Zn1   Zn    Zn3+2 0.509910 0.374730 0.508290 1.022616
Zn2   Zn    Zn3+2 0.490090 0.625270 0.491710 1.022618

loop_
_geom_bond_atom_site_label_1
_geom_bond_atom_site_label_2
_ccdc_geom_bond_type
C18   C20   A    
C2    C4    A    
C15   O6    A    
C15   C29   S    
C20   H9    S    
C8    F3    S    
C17   H13   S    
C8    N1    A    
C25   C27   A    
C35   H3    S    
C32   H5    S    
C7    N2    A    
C5    C13   A    
C2    F1    S    
C22   H16   S    
C7    F4    S    
O7    Zn2   S    
O1    Zn1   S    
C17   C28   A    
C16   C27   A    
C36   F2    S    
O8    Zn1   S    
C31   C34   A    
C34   H4    S    
C27   C30   A    
C33   H6    S    
C9    C11   A    
O3    Zn2   S    
C4    C32   A    
C3    C36   A    
C14   C30   S    
C21   H1    S    
C14   O5    A    
C6    C8    A    
N2    Zn2   S    
C28   C29   A    
C33   C35   A    
C14   O7    A    
N1    Zn1   S    
C26   C30   A    
C18   H14   S    
C23   C35   A    
C1    O1    A    
C25   C29   A    
C6    H11   S    
O5    Zn1   S    
C5    H10   S    
C10   H7    S    
C11   C13   A    
O4    Zn1   S    
C12   O4    A    
C20   C22   A    
C6    C11   A    
C3    C4    A    
C12   O2    A    
O6    Zn2   S    
C1    C31   S    
C10   N1    A    
C24   H2    S    
O2    Zn2   S    
C9    H8    S    
C16   C18   A    
C9    N2    A    
C21   C24   A    
C19   H15   S    
C2    C23   A    
C5    C7    A    
C3    C33   A    
C31   C36   A    
C12   C23   S    
C17   C19   A    
C32   C34   A    
C15   O8    A    
C26   C28   A    
C10   C13   A    
C16   H12   S    
C24   C26   A    
C19   C21   A    
C22   C25   A    
C1    O3    A    
