data_mof_unit_57772.cif
_audit_creation_date              2013-03-05T16:00:02-0500
_audit_creation_method            fapswitch 2.2
_symmetry_space_group_name_H-M    P1
_symmetry_Int_Tables_number       1
_space_group_crystal_system       triclinic
_cell_length_a                    20.542653
_cell_length_b                    21.181648
_cell_length_c                    14.784756
_cell_angle_alpha                 89.996372
_cell_angle_beta                  127.987852
_cell_angle_gamma                 90.02555
_cell_volume                      5070.30925272

loop_
_atom_site_label
_atom_site_type_symbol
_atom_site_description
_atom_site_fract_x
_atom_site_fract_y
_atom_site_fract_z
_atom_type_partial_charge
O1    O     O_R   0.600040 0.935040 0.546740 -0.556734
O2    O     O_R   0.399960 0.064960 0.453260 -0.556945
O3    O     O_R   0.399960 0.935040 0.453260 -0.556937
O4    O     O_R   0.600040 0.064960 0.546740 -0.545899
O5    O     O_R   0.100040 0.435040 0.546740 -0.549228
O6    O     O_R   0.899960 0.564960 0.453260 -0.559495
O7    O     O_R   0.899960 0.435040 0.453260 -0.552031
O8    O     O_R   0.100040 0.564960 0.546740 -0.557029
O9    O     O_R   0.555010 0.935070 0.653220 -0.588628
O10   O     O_R   0.444990 0.064930 0.346780 -0.591598
O11   O     O_R   0.444990 0.935070 0.346780 -0.589145
O12   O     O_R   0.555010 0.064930 0.653220 -0.602361
O13   O     O_R   0.055010 0.435070 0.653220 -0.593971
O14   O     O_R   0.944990 0.564930 0.346780 -0.589829
O15   O     O_R   0.944990 0.435070 0.346780 -0.591564
O16   O     O_R   0.055010 0.564930 0.653220 -0.590320
C1    C     C_R   0.602125 0.912583 0.629883 0.843234
C2    C     C_R   0.398525 0.087757 0.371027 0.830578
C3    C     C_R   0.398325 0.912364 0.370677 0.842744
C4    C     C_R   0.603462 0.086602 0.631368 0.819859
C5    C     C_R   0.103141 0.413176 0.631053 0.837863
C6    C     C_R   0.898347 0.587636 0.370677 0.837562
C7    C     C_R   0.897257 0.412961 0.369497 0.835178
C8    C     C_R   0.102237 0.587358 0.630008 0.840190
Cu1   Cu    Cu3+1 0.526640 1.000000 0.436960 0.966136
Cu2   Cu    Cu3+1 0.473360 0.000000 0.563040 0.955089
Cu3   Cu    Cu3+1 0.026640 0.500000 0.436960 0.967569
Cu4   Cu    Cu3+1 0.973360 0.500000 0.563040 0.964676
C9    C     C_R   0.663437 0.137089 0.704295 -0.137125
C10   C     C_R   0.347202 0.856517 0.307257 -0.128851
C11   C     C_R   0.345714 0.142676 0.306422 -0.126744
C12   C     C_R   0.657758 0.859348 0.698199 -0.130199
C13   C     C_R   0.158269 0.640369 0.698772 -0.129551
C14   C     C_R   0.843032 0.358706 0.302959 -0.131226
C15   C     C_R   0.847286 0.643474 0.307201 -0.128287
C16   C     C_R   0.161778 0.361817 0.702926 -0.133262
C17   C     C_R   0.761144 0.219964 0.746017 0.293318
C18   C     C_R   0.288170 0.754758 0.297880 0.312864
C19   C     C_R   0.267976 0.236442 0.283312 0.295057
C20   C     C_R   0.732917 0.764171 0.720386 0.313596
C21   C     C_R   0.234794 0.734969 0.722179 0.312698
C22   C     C_R   0.767694 0.263631 0.281770 0.297319
C23   C     C_R   0.788710 0.745396 0.297917 0.312739
C24   C     C_R   0.257027 0.277296 0.743040 0.298860
C25   C     C_R   0.709466 0.169401 0.676652 0.132024
C26   C     C_R   0.325644 0.811956 0.355734 0.120979
C27   C     C_R   0.316420 0.183881 0.349492 0.125934
C28   C     C_R   0.687579 0.817965 0.656330 0.124129
C29   C     C_R   0.188860 0.681457 0.657563 0.124062
C30   C     C_R   0.809210 0.319517 0.341991 0.130209
C31   C     C_R   0.825932 0.688163 0.355702 0.121839
C32   C     C_R   0.207513 0.329045 0.675350 0.132762
C33   C     C_R   0.673290 0.153501 0.803414 -0.315014
C34   C     C_R   0.328044 0.844841 0.200692 -0.291390
C35   C     C_R   0.328000 0.154980 0.200974 -0.291309
C36   C     C_R   0.676612 0.848000 0.804881 -0.297025
C37   C     C_R   0.176851 0.651760 0.805297 -0.298357
C38   C     C_R   0.830816 0.343671 0.201903 -0.292024
C39   C     C_R   0.827943 0.654981 0.200475 -0.292559
C40   C     C_R   0.169815 0.344591 0.800417 -0.298249
C41   C     C_R   0.728889 0.200500 0.878273 0.050795
C42   C     C_R   0.295111 0.786861 0.144221 0.050292
C43   C     C_R   0.288402 0.210591 0.140109 0.051867
C44   C     C_R   0.724642 0.796120 0.872789 0.048518
C45   C     C_R   0.225328 0.703406 0.873662 0.048127
C46   C     C_R   0.793055 0.287117 0.143019 0.051961
C47   C     C_R   0.794922 0.712882 0.143766 0.050269
C48   C     C_R   0.223429 0.296450 0.873997 0.047537
C49   C     C_R   0.770350 0.235825 0.846075 0.001288
C50   C     C_R   0.273932 0.741765 0.193235 0.004979
C51   C     C_R   0.256157 0.250870 0.180640 0.002592
C52   C     C_R   0.751148 0.753029 0.827961 0.004646
C53   C     C_R   0.252751 0.746160 0.829574 0.004579
C54   C     C_R   0.760258 0.247105 0.183127 0.003261
C55   C     C_R   0.774321 0.758221 0.193136 0.005029
C56   C     C_R   0.264697 0.260843 0.841804 0.002264
C57   C     C_R   0.741606 0.214760 0.982192 0.107934
C58   C     C_R   0.283208 0.772595 0.040717 0.108160
C59   C     C_R   0.280689 0.227156 0.040473 0.105871
C60   C     C_R   0.743675 0.784563 0.981756 0.109924
C61   C     C_R   0.243950 0.715079 0.982359 0.109659
C62   C     C_R   0.787232 0.269494 0.045278 0.105157
C63   C     C_R   0.782446 0.726884 0.039762 0.108498
C64   C     C_R   0.234945 0.281776 0.977058 0.108898
C65   C     C_R   0.311177 0.813244 0.995189 -0.225155
C66   C     C_R   0.712365 0.174875 0.026834 -0.223670
C67   C     C_R   0.726467 0.829282 0.035474 -0.224243
C68   C     C_R   0.320018 0.192251 0.004791 -0.221943
C69   C     C_R   0.827361 0.303845 0.010278 -0.219739
C70   C     C_R   0.225856 0.670654 0.035483 -0.225055
C71   C     C_R   0.204803 0.321320 0.020943 -0.217298
C72   C     C_R   0.809247 0.685780 0.993260 -0.225401
C73   C     C_R   0.296469 0.800121 0.892463 -0.136615
C74   C     C_R   0.721963 0.190606 0.125302 -0.132796
C75   C     C_R   0.741525 0.816320 0.138566 -0.134405
C76   C     C_R   0.312381 0.208950 0.908229 -0.134795
C77   C     C_R   0.819472 0.287033 0.913568 -0.135308
C78   C     C_R   0.240681 0.683757 0.138411 -0.134951
C79   C     C_R   0.215345 0.306182 0.120292 -0.134019
C80   C     C_R   0.794152 0.698767 0.890246 -0.137770
H1    H     H_    0.318908 0.833592 0.862029 0.203188
H2    H     H_    0.699127 0.157621 0.155836 0.198999
H3    H     H_    0.727612 0.852855 0.175574 0.197603
H4    H     H_    0.344033 0.180095 0.885799 0.203057
H5    H     H_    0.851517 0.315574 0.891383 0.203287
H6    H     H_    0.226146 0.647439 0.175033 0.198055
H7    H     H_    0.192413 0.339264 0.150531 0.198038
H8    H     H_    0.815685 0.664930 0.859099 0.203070
H9    H     H_    0.340377 0.882452 0.164268 0.159389
H10   H     H_    0.634611 0.130021 0.819068 0.176215
H11   H     H_    0.650200 0.879622 0.831268 0.168674
H12   H     H_    0.346018 0.119635 0.168046 0.161613
H13   H     H_    0.851399 0.377777 0.170590 0.163236
H14   H     H_    0.149890 0.620382 0.831207 0.169366
H15   H     H_    0.131295 0.368528 0.815747 0.178713
H16   H     H_    0.840273 0.617300 0.164211 0.158561
H17   H     H_    0.346714 0.855338 0.037751 0.146933
H18   H     H_    0.684460 0.129525 0.990152 0.140322
H19   H     H_    0.703636 0.876049 0.002242 0.137062
H20   H     H_    0.360053 0.152659 0.051555 0.149749
H21   H     H_    0.867988 0.343122 0.057533 0.151734
H22   H     H_    0.202531 0.623993 0.001946 0.137600
H23   H     H_    0.175765 0.366223 0.983550 0.138981
H24   H     H_    0.844049 0.643354 0.035103 0.145855
N1    N     N_R   0.433280 1.000000 0.657760 -0.174205
N2    N     N_R   0.566720 0.000000 0.342240 -0.166287
N3    N     N_R   0.933280 0.500000 0.657760 -0.165900
N4    N     N_R   0.066720 0.500000 0.342240 -0.166724
C81   C     C_R   0.320757 0.003960 0.665745 -0.250229
C82   C     C_R   0.679187 0.996288 0.334103 -0.261335
C83   C     C_R   0.820718 0.501847 0.665775 -0.270861
C84   C     C_R   0.179296 0.500721 0.334207 -0.260391
C85   C     C_R   0.350870 0.002818 0.603197 0.094577
C86   C     C_R   0.649013 0.997455 0.396566 0.092722
C87   C     C_R   0.850862 0.501339 0.603264 0.084234
C88   C     C_R   0.149083 0.500811 0.396639 0.095166
C89   C     C_R   0.488663 0.998837 0.775440 0.023717
C90   C     C_R   0.511328 0.001221 0.224534 0.029840
C91   C     C_R   0.988701 0.499433 0.775465 0.035546
C92   C     C_R   0.011310 0.499676 0.224522 0.029217
C93   C     C_R   0.461892 0.000185 0.844833 -0.016796
C94   C     C_R   0.538098 0.000002 0.155098 -0.016591
C95   C     C_R   0.961919 0.500085 0.844870 -0.016225
C96   C     C_R   0.038119 0.499976 0.155126 -0.016428
C97   C     C_R   0.375662 0.002702 0.786150 0.168079
C98   C     C_R   0.624323 0.997517 0.213748 0.186312
C99   C     C_R   0.875641 0.501149 0.786174 0.178725
C100  C     C_R   0.124407 0.500169 0.213826 0.185417
C101  C     C_R   0.516576 0.999309 0.968874 0.096951
C102  C     C_R   0.483428 0.000918 0.031062 0.087554
C103  C     C_R   0.016623 0.499881 0.968921 0.095088
C104  C     C_R   0.983435 0.500193 0.031084 0.088113
C105  C     C_R   0.396857 0.003356 0.967052 -0.250732
C106  C     C_R   0.603157 0.996891 0.032886 -0.243626
C107  C     C_R   0.896813 0.501083 0.967051 -0.250919
C108  C     C_R   0.103263 0.499682 0.032971 -0.244111
C109  C     C_R   0.344486 0.004195 0.847584 -0.171346
C110  C     C_R   0.655522 0.996027 0.152345 -0.182471
C111  C     C_R   0.844430 0.501658 0.847581 -0.174386
C112  C     C_R   0.155647 0.499979 0.152447 -0.183858
H25   H     H_    0.278399 0.006139 0.802541 0.155307
H26   H     H_    0.721612 0.994058 0.197394 0.150205
H27   H     H_    0.778304 0.502552 0.802513 0.153538
H28   H     H_    0.221787 0.500090 0.197530 0.149406
H29   H     H_    0.446867 0.002796 0.186977 0.110603
H30   H     H_    0.553121 0.997191 0.812991 0.114264
H31   H     H_    0.946817 0.499165 0.186941 0.110070
H32   H     H_    0.053185 0.498547 0.813029 0.109531
H33   H     H_    0.691429 0.995731 0.489081 0.116975
H34   H     H_    0.308227 0.004281 0.510459 0.128541
H35   H     H_    0.191534 0.501871 0.489194 0.116551
H36   H     H_    0.808236 0.502230 0.510572 0.115821
H37   H     H_    0.254613 0.006040 0.620003 0.157641
H38   H     H_    0.745336 0.994106 0.379914 0.156806
H39   H     H_    0.754529 0.502899 0.619974 0.153220
H40   H     H_    0.245504 0.501271 0.380061 0.154177
H41   H     H_    0.367352 0.004733 0.007087 0.129293
H42   H     H_    0.632679 0.995561 0.992873 0.123723
H43   H     H_    0.867279 0.501671 0.007070 0.128728
H44   H     H_    0.132815 0.499593 0.992969 0.123684
N5    N     N_2   0.343059 0.824125 0.463385 -0.408641
H45   H     H_    0.367750 0.786338 0.519110 0.302300
C113  C     C_3   0.275919 0.853728 0.454489 -0.491475
H46   H     H_    0.223934 0.819989 0.418562 0.255780
H47   H     H_    0.253665 0.896241 0.398790 0.194557
H48   H     H_    0.298030 0.868742 0.541065 0.263908
N6    N     N_2   0.704604 0.150921 0.580071 -0.389136
H49   H     H_    0.692882 0.187568 0.526038 0.318341
C114  C     C_3   0.772533 0.111601 0.608750 -0.541400
H50   H     H_    0.831859 0.137737 0.663643 0.257466
H51   H     H_    0.762821 0.097395 0.529045 0.240576
H52   H     H_    0.776378 0.068428 0.654534 0.193443
N7    N     N_2   0.670394 0.829530 0.548708 -0.408091
H53   H     H_    0.647348 0.790957 0.494747 0.297634
C115  C     C_3   0.737342 0.859826 0.557904 -0.507203
H54   H     H_    0.790522 0.827117 0.596346 0.264278
H55   H     H_    0.757742 0.903044 0.611641 0.189866
H56   H     H_    0.715992 0.873490 0.471173 0.264063
N8    N     N_2   0.334051 0.171782 0.457482 -0.401553
H57   H     H_    0.286790 0.182692 0.461084 0.315203
C116  C     C_3   0.413541 0.194748 0.556136 -0.485185
H58   H     H_    0.414319 0.247124 0.558079 0.242719
H59   H     H_    0.463860 0.177956 0.554216 0.193148
H60   H     H_    0.425672 0.176939 0.635890 0.248764
N9    N     N_2   0.815557 0.336761 0.440229 -0.387275
H61   H     H_    0.833101 0.300508 0.497536 0.321797
C117  C     C_3   0.744791 0.371138 0.413440 -0.544853
H62   H     H_    0.688980 0.340612 0.365342 0.251036
H63   H     H_    0.733214 0.413684 0.361430 0.194823
H64   H     H_    0.756732 0.386571 0.494138 0.243090
N10   N     N_2   0.171707 0.669979 0.549926 -0.406650
H65   H     H_    0.149799 0.708816 0.496686 0.298264
C118  C     C_3   0.237995 0.638621 0.558927 -0.507498
H66   H     H_    0.292044 0.670545 0.598219 0.263448
H67   H     H_    0.216500 0.625136 0.472032 0.263848
H68   H     H_    0.257142 0.595176 0.611819 0.188777
N11   N     N_2   0.204598 0.348245 0.580642 -0.385588
H69   H     H_    0.193454 0.311953 0.526310 0.321732
C119  C     C_3   0.273629 0.387286 0.612501 -0.558627
H70   H     H_    0.332518 0.360723 0.668335 0.254403
H71   H     H_    0.277031 0.430225 0.658439 0.194473
H72   H     H_    0.265692 0.401944 0.534237 0.241106
N12   N     N_2   0.842925 0.675952 0.463048 -0.407625
H73   H     H_    0.868346 0.713527 0.519273 0.302102
C120  C     C_3   0.774923 0.647375 0.453293 -0.497967
H74   H     H_    0.723680 0.681778 0.417544 0.256890
H75   H     H_    0.796394 0.632352 0.539535 0.265915
H76   H     H_    0.751842 0.605050 0.397011 0.190864
N13   N     N_R   0.260798 0.778828 0.676352 0.090366
O17   O     O_R   0.208646 0.820068 0.600445 -0.402875
O18   O     O_R   0.338158 0.782012 0.719153 -0.387523
N14   N     N_R   0.733101 0.223983 0.321160 0.100666
O19   O     O_R   0.781274 0.190452 0.413773 -0.383470
O20   O     O_R   0.653384 0.218556 0.260908 -0.370125
N15   N     N_R   0.766488 0.790590 0.346776 0.089709
O21   O     O_R   0.822989 0.826310 0.431064 -0.401711
O22   O     O_R   0.689057 0.800793 0.298920 -0.390599
N16   N     N_R   0.300509 0.242387 0.712007 0.100161
O23   O     O_R   0.260214 0.205594 0.622645 -0.379561
O24   O     O_R   0.380685 0.245097 0.775995 -0.385056
N17   N     N_R   0.804953 0.254430 0.715037 0.102901
O25   O     O_R   0.764967 0.291018 0.625466 -0.389378
O26   O     O_R   0.885070 0.251075 0.778645 -0.364227
N18   N     N_R   0.265751 0.709699 0.346697 0.090306
O27   O     O_R   0.321940 0.673399 0.430020 -0.402360
O28   O     O_R   0.188316 0.700211 0.299642 -0.388491
N19   N     N_R   0.232455 0.275745 0.321784 0.099972
O29   O     O_R   0.279603 0.309249 0.414702 -0.392417
O30   O     O_R   0.152627 0.279084 0.262393 -0.358278
N20   N     N_R   0.758160 0.720062 0.673921 0.089805
O31   O     O_R   0.705022 0.679863 0.596270 -0.405845
O32   O     O_R   0.835565 0.715751 0.717329 -0.388168

loop_
_geom_bond_atom_site_label_1
_geom_bond_atom_site_label_2
_geom_bond_distance
_ccdc_geom_bond_type
C33   H10   1.076219 S    
O16   Cu4   1.930752 S    
C18   C50   1.413476 A    
C47   C63   1.425830 A    
C17   C49   1.411619 A    
C35   H12   1.075451 S    
O2    C2    1.291512 A    
C44   C60   1.425798 A    
C116  H58   1.109628 S    
C54   C74   1.397621 A    
C91   C95   1.432053 A    
N12   H73   1.030783 S    
C53   C73   1.395979 A    
Cu1   N2    2.014553 S    
C99   C111  1.397141 A    
C68   C76   1.382813 A    
O4    Cu1   1.946019 S    
C116  H59   1.110088 S    
N15   O21   1.300544 A    
C93   C101  1.445520 A    
C5    C16   1.479518 S    
C43   C59   1.425101 A    
N9    H61   1.030386 S    
C82   H38   1.083763 S    
C95   C99   1.414781 A    
C6    C15   1.472761 S    
C10   C34   1.391066 A    
O11   C3    1.300609 A    
C32   N11   1.423506 S    
C3    C10   1.472508 S    
C62   C69   1.414667 A    
N3    C91   1.373267 A    
C90   H29   1.076038 S    
C112  H28   1.084215 S    
C26   N5    1.423602 S    
C120  H75   1.108768 S    
O12   Cu2   1.930752 S    
N3    C87   1.355470 A    
C106  C110  1.392165 A    
C60   C67   1.413843 A    
C83   C87   1.393642 A    
N4    C88   1.354520 A    
C105  C109  1.392268 A    
C84   H40   1.083759 S    
C59   C64   1.420171 A    
C28   N7    1.423018 S    
C11   C35   1.390170 A    
C82   C98   1.403040 A    
O11   Cu1   1.930755 S    
N20   O32   1.300984 A    
C46   C54   1.419521 A    
C120  H76   1.111305 S    
C45   C53   1.419097 A    
N18   O27   1.300532 A    
C42   C50   1.419331 A    
C15   C39   1.391174 A    
N17   O25   1.300175 A    
C100  C112  1.397230 A    
C24   C56   1.412524 A    
C94   C98   1.414757 A    
C59   C68   1.415253 A    
C58   C65   1.414253 A    
C66   C74   1.384188 A    
C39   C47   1.402779 A    
O5    Cu3   1.946826 S    
C65   C73   1.382153 A    
C38   C46   1.400941 A    
O6    Cu4   1.946825 S    
C31   N12   1.423246 S    
C39   H16   1.075200 S    
N7    C115  1.445947 S    
C86   H33   1.079062 S    
C35   C43   1.399521 A    
C70   H22   1.076785 S    
C117  H64   1.109144 S    
C103  C104  1.442528 A    
C88   H35   1.079132 S    
O13   Cu4   1.931699 S    
O3    C3    1.293125 A    
C64   C71   1.414600 A    
O14   Cu3   1.931698 S    
C68   H20   1.076221 S    
C19   N19   1.435466 S    
C36   H11   1.075236 S    
C81   C97   1.403639 A    
C91   H32   1.076078 S    
C16   C32   1.415253 A    
Cu4   N3    2.014554 S    
C96   C100  1.414756 A    
C67   C75   1.383430 A    
C115  H56   1.108235 S    
C77   H5    1.082489 S    
C24   C32   1.409054 A    
C92   H31   1.076054 S    
O15   C7    1.303293 A    
N8    H57   1.030853 S    
O16   C8    1.301585 A    
C101  C106  1.410581 A    
C11   C27   1.414790 A    
O1    Cu1   1.946826 S    
N15   O22   1.300893 A    
C27   N8    1.426260 S    
C82   C86   1.393673 A    
C33   C41   1.401268 A    
C60   C63   1.422091 A    
C21   C29   1.406172 A    
C89   H30   1.076048 S    
C75   H3    1.082910 S    
O9    Cu2   1.931699 S    
N16   O24   1.301100 A    
C4    C9    1.479114 S    
N19   O30   1.301056 A    
C38   H13   1.075012 S    
C23   C55   1.413300 A    
O10   C2    1.301944 A    
C105  H41   1.077131 S    
C80   H8    1.082819 S    
C22   C54   1.413720 A    
C55   C75   1.396708 A    
C117  H62   1.110852 S    
C48   C64   1.424990 A    
C108  C112  1.392245 A    
C17   N17   1.435100 S    
O2    Cu2   1.946825 S    
C90   C94   1.432451 A    
C113  H48   1.109098 S    
C73   H1    1.082854 S    
C119  H70   1.110278 S    
C25   N6    1.423608 S    
C34   C42   1.402529 A    
N1    C89   1.373121 A    
N20   O31   1.300454 A    
N5    H45   1.030788 S    
C107  C111  1.392221 A    
C102  C105  1.410420 A    
O7    Cu4   1.946021 S    
C34   H9    1.075431 S    
C69   C77   1.382854 A    
C12   C36   1.394140 A    
N17   O26   1.301139 A    
Cu2   N1    2.014554 S    
C84   C100  1.403147 A    
C114  H52   1.111250 S    
C65   H17   1.076053 S    
C85   H34   1.081550 S    
C113  H46   1.111040 S    
C67   H19   1.076740 S    
N13   O17   1.300378 A    
C63   C72   1.414324 A    
C119  H71   1.111296 S    
C20   N20   1.432762 S    
Cu3   N4    2.014553 S    
O15   Cu3   1.930755 S    
N10   H65   1.031032 S    
C69   H21   1.076306 S    
C104  C107  1.410432 A    
C118  H66   1.110354 S    
C84   C88   1.393714 A    
C7    C14   1.476271 S    
O12   C4    1.304308 A    
N14   O20   1.300996 A    
C120  H74   1.110959 S    
O13   C5    1.303606 A    
C66   H18   1.078110 S    
C103  C108  1.410585 A    
C83   C99   1.403406 A    
C74   H2    1.082777 S    
C43   C51   1.419483 A    
C22   C30   1.409209 A    
C81   C85   1.393802 A    
C61   C70   1.414050 A    
O10   Cu1   1.931698 S    
O9    C1    1.301609 A    
N10   C118  1.445989 S    
C72   H24   1.075854 S    
C21   N13   1.432644 S    
C57   C66   1.413400 A    
C41   C57   1.423364 A    
C106  H42   1.077141 S    
C15   C31   1.410808 A    
C1    C12   1.475754 S    
C116  H60   1.110435 S    
C111  H27   1.084179 S    
C47   C55   1.419445 A    
C17   C25   1.408797 A    
C109  H25   1.084164 S    
C49   C77   1.396498 A    
C79   H7    1.082788 S    
C72   C80   1.382077 A    
C19   C27   1.410473 A    
C52   C80   1.395989 A    
C118  H68   1.111159 S    
N1    C85   1.356183 A    
C29   N10   1.423185 S    
C20   C28   1.406316 A    
C76   H4    1.082643 S    
C89   C93   1.431920 A    
N16   O23   1.300542 A    
N2    C90   1.373441 A    
C13   C37   1.394368 A    
C95   C103  1.445526 A    
C20   C52   1.411493 A    
C42   C58   1.425566 A    
O3    Cu2   1.946021 S    
C92   C96   1.432355 A    
C37   C45   1.403624 A    
C87   H36   1.080742 S    
C16   C40   1.394628 A    
C24   N16   1.435354 S    
C14   C30   1.413429 A    
N11   C119  1.446861 S    
N19   O29   1.300215 A    
N12   C120  1.445643 S    
C37   H14   1.075210 S    
C98   C110  1.397195 A    
C93   C97   1.414784 A    
C48   C56   1.418237 A    
C18   N18   1.432709 S    
C97   C109  1.397218 A    
O1    C1    1.293946 A    
C8    C13   1.475726 S    
C78   H6    1.082992 S    
C10   C26   1.411017 A    
C40   C48   1.400797 A    
C41   C49   1.417868 A    
C94   C102  1.445467 A    
C113  H47   1.111246 S    
Cu1   Cu2   2.680333 S    
C118  H67   1.108467 S    
C117  H63   1.111299 S    
C96   C104  1.445406 A    
C23   N15   1.432843 S    
C101  C102  1.442547 A    
C56   C76   1.396011 A    
C119  H72   1.108903 S    
C108  H44   1.077160 S    
C58   C61   1.421878 A    
O14   C6    1.300542 A    
C36   C44   1.403749 A    
C12   C28   1.412144 A    
C9    C33   1.394356 A    
C57   C62   1.419717 A    
C23   C31   1.407376 A    
O7    C7    1.292618 A    
C81   H37   1.083718 S    
C83   H39   1.083726 S    
N14   O19   1.300424 A    
O8    C8    1.293976 A    
N18   O28   1.300858 A    
N4    C92   1.373357 A    
C44   C52   1.419020 A    
C51   C79   1.396965 A    
C114  H50   1.110083 S    
N8    C116  1.448450 S    
N6    C114  1.446854 S    
N11   H69   1.030613 S    
C110  H26   1.084224 S    
C21   C53   1.411518 A    
C115  H54   1.110319 S    
O4    C4    1.293201 A    
C30   N9    1.423675 S    
C50   C78   1.396820 A    
N6    H49   1.030530 S    
C18   C26   1.407428 A    
C107  H43   1.077130 S    
N2    C86   1.354443 A    
N13   O18   1.300935 A    
N7    H53   1.030994 S    
O5    C5    1.294072 A    
C9    C25   1.415854 A    
Cu3   Cu4   2.680333 S    
C14   C38   1.391087 A    
O8    Cu3   1.946019 S    
C19   C51   1.415250 A    
C45   C61   1.425937 A    
C40   H15   1.075055 S    
C71   H23   1.077286 S    
C2    C11   1.472378 S    
C71   C79   1.384071 A    
N9    C117  1.446580 S    
C13   C29   1.412218 A    
C70   C78   1.383842 A    
C46   C62   1.424489 A    
N5    C113  1.445764 S    
C22   N14   1.434661 S    
C114  H51   1.108858 S    
C115  H55   1.111175 S    
O6    C6    1.293327 A    
