data_mof_unit_6390.cif
_audit_creation_date              2012-12-10T17:42:43-0500
_audit_creation_method            fapswitch 2.2
_symmetry_space_group_name_H-M    P1
_symmetry_Int_Tables_number       1
_space_group_crystal_system       triclinic
_cell_length_a                    9.878539
_cell_length_b                    10.725365
_cell_length_c                    13.093334
_cell_angle_alpha                 91.365339
_cell_angle_beta                  70.864986
_cell_angle_gamma                 88.875177
_cell_volume                      1309.67844671

loop_
_atom_site_label
_atom_site_type_symbol
_atom_type_description
_atom_site_fract_x
_atom_site_fract_y
_atom_site_fract_z
_atom_type_partial_charge
C1    C     C_R   0.499676 0.740501 0.495062 0.873432
C2    C     C_R   0.373326 0.466036 0.818700 -0.112520
C3    C     C_R   0.236068 0.896311 0.500065 -0.171920
C4    C     C_R   0.421802 0.490857 0.703364 0.860201
C5    C     C_R   0.105227 0.962110 0.540896 -0.149312
C6    C     C_R   0.097611 0.075908 0.595563 -0.161971
C7    C     C_R   0.223115 0.129519 0.599384 -0.158881
C8    C     C_R   0.358067 0.068581 0.548727 0.103917
C9    C     C_R   0.362506 0.943965 0.513737 0.096754
C10   C     C_R   0.493985 0.874803 0.493553 -0.126629
C11   C     C_R   0.620421 0.935166 0.487725 -0.221653
C12   C     C_R   0.429595 0.428343 0.982022 -0.049897
C13   C     C_R   0.619105 0.062075 0.500586 -0.223917
C14   C     C_R   0.489548 0.129445 0.527158 -0.130365
C15   C     C_R   0.795244 0.663181 0.643915 -0.146027
C16   C     C_R   0.495944 0.261321 0.511336 0.872638
C17   C     C_R   0.833366 0.739709 0.716753 -0.205551
C18   C     C_R   0.972845 0.736736 0.718088 -0.187239
C19   C     C_R   0.075351 0.658282 0.645697 -0.174665
C20   C     C_R   0.040204 0.578816 0.571513 0.139016
C21   C     C_R   0.895586 0.579866 0.571040 0.167449
C22   C     C_R   0.959364 0.422961 0.432772 -0.115759
C23   C     C_R   0.469408 0.417812 0.868880 0.027402
C24   C     C_R   0.102676 0.423009 0.432985 -0.068803
C25   C     C_R   0.578772 0.496280 0.295648 0.883200
C26   C     C_R   0.787536 0.373032 0.015044 -0.211307
C27   C     C_R   0.623697 0.468724 0.179562 -0.088064
C28   C     C_R   0.231282 0.497863 0.881160 -0.305874
C29   C     C_R   0.184568 0.482028 0.992015 -0.231132
C30   C     C_R   0.281506 0.444419 0.043197 0.525641
C31   C     C_3   0.210831 0.280404 0.151068 -0.351241
C32   C     C_R   0.539732 0.423826 0.028648 0.083033
C33   C     C_R   0.678811 0.377562 0.967723 0.181853
C34   C     C_R   0.706836 0.338878 0.860214 -0.253490
C35   C     C_R   0.603845 0.360077 0.810656 -0.171375
C36   C     C_R   0.517890 0.476250 0.130901 -0.207018
C37   C     C_R   0.759263 0.416744 0.121640 -0.207155
H1    H     H_    0.841526 0.407690 0.159202 0.162387
H2    H     H_    0.182275 0.359946 0.379247 0.172571
H3    H     H_    0.893524 0.335387 0.969955 0.138456
H4    H     H_    0.417842 0.525226 0.173593 0.202330
H5    H     H_    0.155442 0.532756 0.844044 0.185452
H6    H     H_    0.630433 0.328876 0.727158 0.175609
H7    H     H_    0.721918 0.884681 0.470833 0.171242
H8    H     H_    0.213799 0.218872 0.641676 0.153856
H9    H     H_    0.002562 0.797151 0.774213 0.154627
H10   H     H_    0.181244 0.663656 0.649118 0.210233
H11   H     H_    0.316888 0.230233 0.123430 0.179303
H12   H     H_    0.235708 0.811711 0.454099 0.175496
H13   H     H_    0.144553 0.249823 0.101129 0.161527
H14   H     H_    0.153741 0.252678 0.234765 0.173993
H15   H     H_    0.072592 0.498354 0.038516 0.166801
H16   H     H_    0.009278 0.923606 0.531579 0.147137
H17   H     H_    0.995354 0.124793 0.631441 0.132014
H18   H     H_    0.720355 0.107422 0.486884 0.166539
H19   H     H_    0.930435 0.360080 0.377982 0.145427
H20   H     H_    0.686487 0.673010 0.647549 0.207615
H21   H     H_    0.754159 0.802314 0.772080 0.151078
H22   H     H_    0.810438 0.298168 0.812994 0.139341
N1    N     N_R   0.856860 0.501200 0.500990 -0.125584
N2    N     N_R   0.142450 0.501280 0.501020 -0.131854
O1    O     O_R   0.385310 0.683220 0.500000 -0.648235
O2    O     O_R   0.614640 0.683250 0.500010 -0.633345
O3    O     O_R   0.328400 0.499950 0.653610 -0.641028
O4    O     O_R   0.557730 0.499970 0.653620 -0.637345
O5    O     O_R   0.385360 0.316750 0.499990 -0.618980
O6    O     O_R   0.614690 0.316780 0.500000 -0.629580
O7    O     O_R   0.442270 0.500030 0.346380 -0.603630
O8    O     O_R   0.671600 0.500050 0.346390 -0.605406
O9    O     O_3   0.227498 0.410958 0.149961 -0.631747
Zn1   Zn    Zn3+2 0.346880 0.499980 0.499990 0.925887
Zn2   Zn    Zn3+2 0.653120 0.500020 0.500010 0.925040

loop_
_geom_bond_atom_site_label_1
_geom_bond_atom_site_label_2
_ccdc_geom_bond_type
O8    Zn2   S    
C2    C4    S    
C32   C36   A    
C26   C37   A    
C29   C30   A    
C3    C9    A    
C14   C16   S    
C27   C36   A    
C25   C27   S    
O4    Zn2   S    
C35   H6    S    
C9    C10   A    
C4    O3    A    
C26   C33   A    
C23   C35   A    
C19   C20   A    
C15   C21   A    
C17   H21   S    
C3    C5    A    
C32   C33   A    
N2    Zn1   S    
C33   C34   A    
C3    H12   S    
C11   H7    S    
C16   O6    A    
C13   C14   A    
C1    O1    A    
C18   C19   A    
C15   H20   S    
C12   C23   A    
C26   H3    S    
C36   H4    S    
C6    C7    A    
C25   O7    A    
C6    H17   S    
O7    Zn1   S    
C18   H9    S    
C28   H5    S    
C28   C29   A    
C30   O9    S    
C37   H1    S    
C27   C37   A    
O1    Zn1   S    
C17   C18   A    
C22   C24   A    
C31   H11   S    
C24   N2    A    
C22   N1    A    
C5    C6    A    
C34   C35   A    
C19   H10   S    
C25   O8    A    
C10   C11   A    
N1    Zn2   S    
C31   H13   S    
C20   N2    A    
C22   H19   S    
C7    H8    S    
C11   C13   A    
C24   H2    S    
C16   O5    A    
O2    Zn2   S    
C21   N1    A    
O6    Zn2   S    
O3    Zn1   S    
C5    H16   S    
C2    C23   A    
C15   C17   A    
C7    C8    A    
C4    O4    A    
C1    O2    A    
C2    C28   A    
C8    C14   A    
C12   C30   A    
C20   C21   A    
C34   H22   S    
C31   O9    S    
C12   C32   A    
C1    C10   S    
O5    Zn1   S    
C31   H14   S    
C8    C9    A    
C13   H18   S    
C29   H15   S    
