data_mof_unit_15849.cif
_audit_creation_date              2012-12-10T20:36:41-0500
_audit_creation_method            fapswitch 2.2
_symmetry_space_group_name_H-M    P1
_symmetry_Int_Tables_number       1
_space_group_crystal_system       triclinic
_cell_length_a                    10.502679
_cell_length_b                    10.697954
_cell_length_c                    9.897187
_cell_angle_alpha                 89.018424
_cell_angle_beta                  89.054245
_cell_angle_gamma                 90.72267
_cell_volume                      1111.61284925

loop_
_atom_site_label
_atom_site_type_symbol
_atom_type_description
_atom_site_fract_x
_atom_site_fract_y
_atom_site_fract_z
_atom_type_partial_charge
C1    C     C_R   0.505238 0.259708 0.500506 0.911804
C2    C     C_R   0.555795 0.933040 0.614677 0.123990
C3    C     C_3   0.494116 0.919549 0.750944 -0.452505
C4    C     C_R   0.257502 0.502235 0.500714 0.921971
C5    C     C_3   0.492663 0.060742 0.752890 -0.469930
C6    C     C_R   0.399890 0.449614 0.074840 0.141562
C7    C     C_R   0.593182 0.559825 0.069003 -0.119981
C8    C     C_R   0.593265 0.559760 0.925322 -0.130711
C9    C     C_R   0.398843 0.449411 0.931893 0.160040
C10   C     C_3   0.358855 0.314018 0.937726 0.281284
C11   C     C_3   0.356922 0.318170 0.090277 -0.516144
C12   C     C_3   0.961700 0.486109 0.370424 -0.163632
C13   C     C_R   0.506014 0.739852 0.498732 0.862943
C14   C     C_R   0.742522 0.500382 0.498908 0.866011
C15   C     C_3   0.037407 0.519147 0.626590 -0.065320
C16   C     C_3   0.954985 0.407911 0.578967 -0.160417
C17   C     C_3   0.877386 0.501284 0.496702 -0.015474
C18   C     C_3   0.956967 0.612195 0.544375 -0.216593
C19   C     C_3   0.044473 0.596789 0.418847 -0.193378
C20   C     C_1   0.090749 0.275882 0.403353 0.166416
C21   C     C_3   0.041378 0.394492 0.453547 0.020036
C22   C     C_3   0.122408 0.503501 0.501170 -0.029033
C23   C     C_R   0.554898 0.060894 0.616347 0.113343
C24   C     C_R   0.529350 0.128255 0.498323 -0.102296
C25   C     C_R   0.534278 0.066674 0.373875 -0.200413
C26   C     C_R   0.534780 0.937421 0.372378 -0.213069
C27   C     C_R   0.531406 0.870825 0.495455 -0.098542
H1    H     H_    0.914490 0.330621 0.643238 0.160571
H2    H     H_    0.072163 0.537054 0.729575 0.203064
H3    H     H_    0.917172 0.701260 0.581289 0.147382
H4    H     H_    0.085474 0.673746 0.354515 0.159865
H5    H     H_    0.927076 0.471873 0.266321 0.167451
H6    H     H_    0.527721 0.116568 0.278466 0.167877
H7    H     H_    0.527059 0.890931 0.276410 0.176178
H8    H     H_    0.397186 0.876622 0.748179 0.220515
H9    H     H_    0.146536 0.207697 0.681119 0.365916
H10   H     H_    0.558897 0.877692 0.826544 0.202054
H11   H     H_    0.394600 0.098077 0.750443 0.256346
H12   H     H_    0.557270 0.099208 0.830104 0.195703
H13   H     H_    0.669843 0.606294 0.120766 0.148779
H14   H     H_    0.669893 0.606317 0.869195 0.155920
H15   H     H_    0.434400 0.254072 0.897984 0.070002
H16   H     H_    0.261084 0.311130 0.139316 0.251598
H17   H     H_    0.429842 0.257577 0.136257 0.176244
N1    N     N_R   0.499140 0.499140 0.142800 -0.103994
N2    N     N_R   0.499140 0.499180 0.857150 -0.136206
N3    N     N_1   0.129831 0.182396 0.363998 -0.187490
O1    O     O_R   0.500020 0.316790 0.614690 -0.598191
O2    O     O_2   0.112418 0.380037 0.913407 -0.326235
O3    O     O_3   0.212732 0.270057 0.704402 -0.578682
O4    O     O_R   0.500000 0.316760 0.385350 -0.628898
O5    O     O_R   0.313960 0.499990 0.614650 -0.569204
O6    O     O_R   0.313940 0.499950 0.385310 -0.622090
O7    O     O_R   0.500000 0.683240 0.614650 -0.626027
O8    O     O_R   0.499980 0.683210 0.385310 -0.624875
O9    O     O_R   0.686060 0.500050 0.614690 -0.628658
O10   O     O_R   0.686040 0.500010 0.385350 -0.630473
O11   O     O_2   0.158812 0.156834 0.932526 -0.312854
S1    S     S_3+6 0.204296 0.280214 0.873391 -0.005849
Zn1   Zn    Zn3+2 0.500010 0.500020 0.653130 0.979164
Zn2   Zn    Zn3+2 0.499990 0.499980 0.346870 0.953134

loop_
_geom_bond_atom_site_label_1
_geom_bond_atom_site_label_2
_ccdc_geom_bond_type
C12   C17   S    
C16   H1    S    
C15   C18   S    
C14   O9    A    
C7    H13   S    
C1    O1    A    
O10   Zn2   S    
C2    C27   A    
C18   H3    S    
C6    N1    A    
C4    O6    A    
C10   H15   S    
C4    C22   S    
C9    C10   S    
C5    C23   S    
C3    H8    S    
O2    S1    D    
C23   C24   A    
O1    Zn1   S    
C19   H4    S    
C3    C5    S    
C6    C9    A    
C2    C3    S    
C25   C26   A    
C24   C25   A    
C11   H17   S    
O7    Zn1   S    
C5    H11   S    
C12   H5    S    
C8    H14   S    
C1    O4    A    
C14   C17   S    
C26   C27   A    
C16   C21   S    
C4    O5    A    
C6    C11   S    
O3    S1    S    
C7    N1    A    
C12   C19   S    
N1    Zn2   S    
C15   H2    S    
C5    H12   S    
C8    N2    A    
C11   H16   S    
C20   N3    T    
C7    C8    A    
C10   C11   S    
C10   S1    S    
C15   C16   S    
O8    Zn2   S    
C9    N2    A    
C19   C22   S    
H9    O3    S    
C20   C21   S    
C3    H10   S    
C1    C24   S    
C17   C18   S    
C13   O7    A    
C2    C23   A    
C14   O10   A    
C18   C19   S    
O5    Zn1   S    
N2    Zn1   S    
O11   S1    D    
C21   C22   S    
O6    Zn2   S    
C12   C21   S    
C26   H7    S    
C15   C22   S    
C13   C27   S    
O9    Zn1   S    
C25   H6    S    
C16   C17   S    
C13   O8    A    
O4    Zn2   S    
