data_mof_unit_10434.cif
_audit_creation_date              2012-12-10T20:27:09-0500
_audit_creation_method            fapswitch 2.2
_symmetry_space_group_name_H-M    P1
_symmetry_Int_Tables_number       1
_space_group_crystal_system       triclinic
_cell_length_a                    10.577833
_cell_length_b                    10.689576
_cell_length_c                    9.861078
_cell_angle_alpha                 90.096982
_cell_angle_beta                  102.917437
_cell_angle_gamma                 89.840856
_cell_volume                      1086.79487293

loop_
_atom_site_label
_atom_site_type_symbol
_atom_type_description
_atom_site_fract_x
_atom_site_fract_y
_atom_site_fract_z
_atom_type_partial_charge
C1    C     C_R   0.495872 0.260438 0.499088 0.868455
C2    C     C_R   0.492815 0.128495 0.497618 -0.124886
C3    C     C_R   0.415699 0.062099 0.384553 0.422475
C4    C     C_R   0.424927 0.932952 0.383772 -0.149685
C5    C     C_R   0.502188 0.871166 0.497722 -0.070811
C6    C     C_R   0.584675 0.937795 0.601801 -0.134477
C7    C     C_3   0.612414 0.930191 0.757308 0.363514
C8    C     C_3   0.609684 0.073588 0.756665 0.257722
C9    C     C_R   0.442664 0.404750 0.057156 0.210785
C10   C     C_R   0.568058 0.586759 0.088508 -0.120578
C11   C     C_R   0.568366 0.586454 0.944573 -0.061169
C12   C     C_R   0.257937 0.506258 0.443125 0.953785
C13   C     C_R   0.443654 0.404274 0.914864 0.237994
C14   C     C_3   0.305321 0.366285 0.874065 -0.456937
C15   C     C_3   0.302967 0.368762 0.027381 -0.479772
C16   C     C_R   0.501770 0.739588 0.500280 0.945501
C17   C     C_R   0.742675 0.505111 0.557029 0.925157
C18   C     C_2   0.118763 0.524934 0.413590 -0.326160
C19   C     C_2   0.063836 0.604351 0.489944 -0.009208
C20   C     C_2   0.881270 0.532849 0.586473 -0.181657
C21   C     C_2   0.926721 0.588210 0.483985 -0.378284
C22   C     C_R   0.581148 0.065350 0.600870 -0.046708
H1    H     H_    0.862694 0.610238 0.384314 0.212469
H2    H     H_    0.703851 0.120651 0.800594 0.108492
H3    H     H_    0.620985 0.658222 0.155637 0.155677
H4    H     H_    0.622307 0.656879 0.903335 0.172000
H5    H     H_    0.244378 0.439274 0.811759 0.205163
H6    H     H_    0.293460 0.270938 0.827991 0.249049
H7    H     H_    0.239850 0.443779 0.054531 0.226324
H8    H     H_    0.288101 0.274725 0.068470 0.251974
H9    H     H_    0.059209 0.461263 0.340010 0.151222
H10   H     H_    0.363797 0.880739 0.299795 0.187558
N1    N     N_R   0.499160 0.499140 0.142600 -0.109314
N2    N     N_R   0.499160 0.499180 0.856960 -0.113273
O1    O     O_R   0.500020 0.316790 0.614700 -0.566788
O2    O     O_R   0.500000 0.316760 0.385350 -0.616427
O3    O     O_R   0.317820 0.500020 0.571850 -0.599769
O4    O     O_R   0.317800 0.499980 0.342510 -0.617526
O5    O     O_R   0.500000 0.683240 0.614650 -0.550292
O6    O     O_R   0.499980 0.683210 0.385300 -0.651544
O7    O     O_R   0.682200 0.500020 0.657490 -0.588413
O8    O     O_R   0.682180 0.499980 0.428150 -0.624897
Zn1   Zn    Zn3+2 0.500010 0.500020 0.653140 1.014243
Zn2   Zn    Zn3+2 0.499990 0.499980 0.346860 0.953693
C23   C     C_2   0.131508 0.708741 0.576280 0.465569
H11   H     H_    0.086458 0.752956 0.652804 0.058775
O9    O     O_2   0.233239 0.751096 0.558028 -0.544760
C24   C     C_2   0.964608 0.505051 0.725634 0.414094
H12   H     H_    0.059153 0.547454 0.758048 0.047971
O10   O     O_2   0.927456 0.435010 0.806276 -0.550713
O11   O     O_3   0.324958 0.117746 0.279383 -0.761844
H13   H     H_    0.298243 0.198809 0.312941 0.328606
O12   O     O_3   0.509953 0.875552 0.805405 -0.679291
H14   H     H_    0.528897 0.888980 0.907584 0.342326
C25   C     C_2   0.742587 0.872045 0.817945 0.249187
H15   H     H_    0.782121 0.801178 0.759957 0.074195
O13   O     O_2   0.802264 0.900638 0.934571 -0.563984
O14   O     O_3   0.504619 0.123048 0.804417 -0.706787
H16   H     H_    0.534691 0.130040 0.906892 0.331983

loop_
_geom_bond_atom_site_label_1
_geom_bond_atom_site_label_2
_ccdc_geom_bond_type
O3    Zn1   S    
C8    C22   S    
C25   H15   S    
C19   C23   S    
O4    Zn2   S    
C6    C7    S    
C14   H5    S    
O1    Zn1   S    
C14   C15   S    
C7    C25   S    
C1    O2    A    
C14   H6    S    
C2    C22   A    
C24   O10   D    
C2    C3    A    
C9    C15   S    
C13   N2    A    
C4    H10   S    
C13   C14   S    
C9    N1    A    
O7    Zn1   S    
C20   C24   S    
O8    Zn2   S    
C16   O6    A    
C10   H3    S    
C24   H12   S    
C8    H2    S    
C3    O11   S    
C15   H7    S    
C10   N1    A    
C25   O13   D    
C21   H1    S    
C12   O4    A    
C5    C6    A    
C17   O7    A    
O2    Zn2   S    
C7    C8    S    
C10   C11   A    
C7    O12   S    
C16   O5    A    
C3    C4    A    
C6    C22   A    
O6    Zn2   S    
C17   C20   S    
C20   C21   D    
C1    O1    A    
C15   H8    S    
C1    C2    S    
C23   O9    D    
C12   C18   S    
C12   O3    A    
C9    C13   A    
C17   O8    A    
C18   C19   D    
C5    C16   S    
O5    Zn1   S    
C18   H9    S    
C11   H4    S    
C8    O14   S    
O14   H16   S    
C23   H11   S    
N1    Zn2   S    
C11   N2    A    
N2    Zn1   S    
O11   H13   S    
O12   H14   S    
C4    C5    A    
C19   C21   S    
