data_mof_unit_46710.cif
_audit_creation_date              2012-12-10T22:11:14-0500
_audit_creation_method            fapswitch 2.2
_symmetry_space_group_name_H-M    P1
_symmetry_Int_Tables_number       1
_space_group_crystal_system       triclinic
_cell_length_a                    12.20964
_cell_length_b                    12.296687
_cell_length_c                    22.932346
_cell_angle_alpha                 90.558841
_cell_angle_beta                  90.631298
_cell_angle_gamma                 90.352008
_cell_volume                      3442.57931791

loop_
_atom_site_label
_atom_site_type_symbol
_atom_type_description
_atom_site_fract_x
_atom_site_fract_y
_atom_site_fract_z
_atom_type_partial_charge
C1    C     C_R   0.655043 0.997628 0.579949 0.883607
C2    C     C_R   0.091476 0.886708 0.833567 -0.165541
C3    C     C_R   0.909054 0.195814 0.126068 -0.201785
C4    C     C_R   0.090945 0.804186 0.873932 -0.201784
C5    C     C_R   0.175290 0.929056 0.290260 -0.216544
C6    C     C_R   0.824710 0.070944 0.709740 -0.216545
C7    C     C_R   0.256754 0.925756 0.332356 -0.210102
C8    C     C_R   0.743247 0.074244 0.667644 -0.210102
C9    C     C_R   0.812406 0.077215 0.287702 -0.227637
C10   C     C_R   0.187594 0.922785 0.712298 -0.227639
C11   C     C_R   0.724931 0.076542 0.325925 0.170347
C12   C     C_R   0.344957 0.002372 0.420051 0.883606
C13   C     C_R   0.275069 0.923457 0.674075 0.170349
C14   C     C_3   0.995146 0.005180 0.248564 -0.082621
C15   C     C_3   0.004853 0.994821 0.751436 -0.082621
C16   C     C_R   0.648655 0.001606 0.418163 0.879547
C17   C     C_R   0.351345 0.998394 0.581837 0.879547
C18   C     C_R   0.094728 0.011647 0.290580 0.090372
C19   C     C_R   0.905272 0.988354 0.709420 0.090372
C20   C     C_R   0.262338 0.006227 0.374993 -0.066073
C21   C     C_R   0.737661 0.993773 0.625007 -0.066073
C22   C     C_R   0.895281 0.997230 0.289141 0.043328
C23   C     C_R   0.900405 0.762335 0.153392 -0.204979
C24   C     C_R   0.104719 0.002770 0.710859 0.043329
C25   C     C_R   0.725982 0.000050 0.371033 -0.120171
C26   C     C_R   0.274018 0.999950 0.628967 -0.120170
C27   C     C_R   0.995048 0.102878 0.207279 0.112385
C28   C     C_R   0.004952 0.897122 0.792721 0.112385
C29   C     C_R   0.998597 0.266755 0.123546 -0.014690
C30   C     C_R   0.001403 0.733244 0.876454 -0.014691
C31   C     C_R   0.995337 0.908939 0.205413 0.115256
C32   C     C_R   0.004663 0.091061 0.794587 0.115256
C33   C     C_R   0.990568 0.750057 0.117243 -0.014693
C34   C     C_R   0.099595 0.237665 0.846608 -0.204979
C35   C     C_R   0.009432 0.249943 0.882757 -0.014693
C36   C     C_R   0.992592 0.662589 0.074730 0.860872
C37   C     C_R   0.007408 0.337411 0.925270 0.860872
C38   C     C_R   0.999184 0.351825 0.080560 0.860686
C39   C     C_R   0.000816 0.648175 0.919440 0.860686
C40   C     C_R   0.105058 0.097153 0.333756 0.196881
C41   C     C_R   0.894941 0.902847 0.666244 0.196881
C42   C     C_R   0.189985 0.092753 0.374453 -0.231172
C43   C     C_R   0.810015 0.907247 0.625547 -0.231172
C44   C     C_R   0.885455 0.911610 0.330977 0.194618
C45   C     C_R   0.082586 0.899267 0.165931 -0.165137
C46   C     C_R   0.114545 0.088390 0.669023 0.194618
C47   C     C_R   0.802356 0.916797 0.371517 -0.267026
C48   C     C_R   0.197644 0.083203 0.628483 -0.267026
C49   C     C_R   0.087264 0.172299 0.201966 -0.200746
C50   C     C_R   0.912736 0.827701 0.798034 -0.200745
C51   C     C_R   0.088173 0.254049 0.161005 -0.202422
C52   C     C_R   0.911827 0.745951 0.838995 -0.202423
C53   C     C_R   0.902066 0.841450 0.196673 -0.200074
C54   C     C_R   0.097934 0.158550 0.803327 -0.200073
C55   C     C_3   0.957006 0.811003 0.335013 -0.412501
C56   C     C_R   0.917414 0.100733 0.834069 -0.165137
C57   C     C_3   0.024164 0.809103 0.391815 -0.836394
C58   C     C_3   0.042995 0.188998 0.664987 -0.412502
C59   C     C_3   0.975836 0.190896 0.608185 -0.836394
C60   C     C_3   0.632814 0.157225 0.315770 -0.408064
C61   C     C_3   0.575737 0.136816 0.256949 -0.897093
C62   C     C_3   0.367185 0.842773 0.684230 -0.408064
C63   C     C_3   0.424263 0.863183 0.743050 -0.897096
C64   C     C_3   0.032125 0.196645 0.338962 -0.429962
C65   C     C_3   0.965977 0.196037 0.395292 -0.845651
C66   C     C_3   0.967874 0.803355 0.661038 -0.429963
C67   C     C_R   0.081168 0.819419 0.123150 -0.198168
C68   C     C_3   0.034023 0.803963 0.604708 -0.845652
C69   C     C_R   0.918832 0.180581 0.876850 -0.198169
C70   C     C_R   0.908524 0.113293 0.166433 -0.165541
H1    H     H_    0.198235 0.156661 0.407167 0.164698
H2    H     H_    0.160305 0.942709 0.833783 0.144339
H3    H     H_    0.173419 0.861064 0.260381 0.151041
H4    H     H_    0.826581 0.138936 0.739618 0.151041
H5    H     H_    0.815281 0.144920 0.258496 0.158621
H6    H     H_    0.184718 0.855080 0.741504 0.158620
H7    H     H_    0.797746 0.854611 0.404637 0.178152
H8    H     H_    0.202255 0.145389 0.595364 0.178153
H9    H     H_    0.159155 0.307052 0.158530 0.153204
H10   H     H_    0.840845 0.692948 0.841469 0.153204
H11   H     H_    0.829032 0.710075 0.148643 0.154197
H12   H     H_    0.801765 0.843339 0.592833 0.164698
H13   H     H_    0.170968 0.289925 0.851357 0.154197
H14   H     H_    0.150614 0.812566 0.094367 0.153477
H15   H     H_    0.849386 0.187434 0.905633 0.153477
H16   H     H_    0.840433 0.202520 0.095988 0.154291
H17   H     H_    0.159567 0.797480 0.904012 0.154291
H18   H     H_    0.314654 0.859304 0.332020 0.156035
H19   H     H_    0.685346 0.140697 0.667979 0.156035
H20   H     H_    0.062279 0.889596 0.400987 0.280816
H21   H     H_    0.971532 0.787450 0.429167 0.238285
H22   H     H_    0.089711 0.747249 0.388368 0.250349
H23   H     H_    0.160520 0.163424 0.228242 0.143268
H24   H     H_    0.903346 0.737609 0.333411 0.195798
H25   H     H_    0.011894 0.800244 0.297970 0.217040
H26   H     H_    0.028468 0.212550 0.570833 0.238284
H27   H     H_    0.937721 0.110403 0.599013 0.280816
H28   H     H_    0.910289 0.252750 0.611632 0.250349
H29   H     H_    0.988106 0.199756 0.702030 0.217040
H30   H     H_    0.096654 0.262391 0.666589 0.195798
H31   H     H_    0.632872 0.150188 0.220342 0.257549
H32   H     H_    0.543420 0.052199 0.254559 0.263066
H33   H     H_    0.506098 0.193780 0.251954 0.252049
H34   H     H_    0.839480 0.836576 0.771758 0.143268
H35   H     H_    0.568049 0.152808 0.348910 0.231603
H36   H     H_    0.666845 0.241260 0.317140 0.204257
H37   H     H_    0.456583 0.947799 0.745439 0.263067
H38   H     H_    0.367128 0.849813 0.779658 0.257549
H39   H     H_    0.493901 0.806217 0.748046 0.252050
H40   H     H_    0.333153 0.758738 0.682861 0.204256
H41   H     H_    0.431949 0.847188 0.651089 0.231604
H42   H     H_    0.925306 0.116200 0.401342 0.276835
H43   H     H_    0.019828 0.212860 0.433681 0.243521
H44   H     H_    0.902337 0.260077 0.393472 0.248232
H45   H     H_    0.828659 0.849850 0.222122 0.146085
H46   H     H_    0.084534 0.270919 0.338886 0.198474
H47   H     H_    0.975762 0.207022 0.301951 0.218607
H48   H     H_    0.980172 0.787139 0.566319 0.243522
H49   H     H_    0.074694 0.883799 0.598658 0.276835
H50   H     H_    0.097662 0.739922 0.606528 0.248231
H51   H     H_    0.024238 0.792978 0.698049 0.218607
H52   H     H_    0.915466 0.729081 0.661115 0.198474
H53   H     H_    0.171341 0.150150 0.777878 0.146085
H54   H     H_    0.152315 0.954054 0.168498 0.143262
H55   H     H_    0.847685 0.045947 0.831502 0.143262
H56   H     H_    0.839694 0.057291 0.166217 0.144339
O1    O     O_R   0.621380 0.090460 0.561410 -0.622272
O2    O     O_R   0.912410 0.372520 0.941210 -0.629950
O3    O     O_R   0.905660 0.383870 0.059980 -0.629905
O4    O     O_R   0.094340 0.616130 0.940020 -0.629905
O5    O     O_R   0.092570 0.390420 0.063230 -0.623826
O6    O     O_R   0.907430 0.609580 0.936770 -0.623826
O7    O     O_R   0.900680 0.620930 0.055550 -0.624109
O8    O     O_R   0.099320 0.379070 0.944450 -0.624108
O9    O     O_R   0.378620 0.909540 0.438590 -0.622271
O10   O     O_R   0.617150 0.909540 0.438590 -0.629459
O11   O     O_R   0.382850 0.090460 0.561410 -0.629459
O12   O     O_R   0.619720 0.093230 0.440890 -0.634242
O13   O     O_R   0.380280 0.906770 0.559110 -0.634243
O14   O     O_R   0.618800 0.906770 0.559110 -0.638943
O15   O     O_R   0.381200 0.093230 0.440890 -0.638942
O16   O     O_R   0.087590 0.627480 0.058790 -0.629950
Zn1   Zn    Zn3+2 0.501730 0.123520 0.501540 0.927908
Zn2   Zn    Zn3+2 0.498270 0.876480 0.498460 0.927908
Zn3   Zn    Zn3+2 0.125690 0.504390 0.002180 0.938995
Zn4   Zn    Zn3+2 0.874310 0.495610 0.997820 0.938995

loop_
_geom_bond_atom_site_label_1
_geom_bond_atom_site_label_2
_ccdc_geom_bond_type
C66   C68   S    
C54   H53   S    
C50   H34   S    
C64   H46   S    
C57   H22   S    
C65   H44   S    
C14   C18   S    
C2    C4    A    
C14   C31   S    
C36   O7    A    
C69   H15   S    
C15   C32   S    
C4    H17   S    
C1    C21   S    
C6    C19   A    
C17   C26   S    
C61   H33   S    
O12   Zn1   S    
O15   Zn1   S    
C68   H49   S    
C9    C22   A    
C39   O6    A    
C11   C25   A    
C33   C36   S    
C12   O15   A    
C23   C33   A    
C34   C35   A    
C48   H8    S    
C3    C29   A    
C36   O16   A    
C18   C40   A    
C68   H48   S    
C15   C19   S    
C28   C50   A    
C22   C44   A    
C13   C62   S    
C49   C51   A    
C12   O9    A    
C29   C38   S    
C45   C67   A    
C50   C52   A    
C66   H52   S    
C6    H4    S    
C14   C27   S    
C23   H11   S    
C25   C47   A    
C44   C47   A    
C26   C48   A    
C37   O2    A    
C70   H56   S    
C40   C42   A    
O11   Zn1   S    
C67   H14   S    
C21   C43   A    
C46   C58   S    
C3    H16   S    
C41   C43   A    
O16   Zn3   S    
C10   H6    S    
C55   H24   S    
C2    H2    S    
C32   C54   A    
C23   C53   A    
C45   H54   S    
C46   C48   A    
C57   H20   S    
C62   H41   S    
C38   O3    A    
O14   Zn2   S    
C1    O14   A    
C3    C70   A    
C58   H30   S    
C55   H25   S    
C5    C7    A    
C6    C8    A    
C5    C18   A    
C10   C24   A    
C58   C59   S    
C68   H50   S    
C7    C20   A    
C64   H47   S    
C60   C61   S    
C63   H39   S    
C61   H31   S    
C65   H42   S    
C62   C63   S    
O13   Zn2   S    
C7    H18   S    
C62   H40   S    
C12   C20   S    
C8    C21   A    
C66   H51   S    
C19   C41   A    
C17   O13   A    
O1    Zn1   S    
C56   H55   S    
C31   C53   A    
C9    C11   A    
O3    Zn4   S    
C27   C70   A    
O9    Zn2   S    
C34   C54   A    
C55   C57   S    
C31   C45   A    
C59   H27   S    
C13   C26   A    
C34   H13   S    
C47   H7    S    
C63   H37   S    
C11   C60   S    
C16   O10   A    
C60   H36   S    
C33   C67   A    
C29   C51   A    
C16   C25   S    
C43   H12   S    
O8    Zn3   S    
C30   C52   A    
C15   C24   S    
C57   H21   S    
C35   C37   S    
C65   H43   S    
C16   O12   A    
C58   H29   S    
C1    O1    A    
C10   C13   A    
C20   C42   A    
C41   C66   S    
C8    H19   S    
C39   O4    A    
C40   C64   S    
O6    Zn4   S    
C38   O5    A    
C14   C22   S    
C17   O11   A    
C61   H32   S    
C24   C46   A    
O10   Zn2   S    
C64   C65   S    
C44   C55   S    
O2    Zn4   S    
C15   C28   S    
C42   H1    S    
C30   C39   S    
O5    Zn3   S    
C5    H3    S    
C51   H9    S    
C27   C49   A    
C35   C69   A    
C56   C69   A    
C59   H26   S    
C59   H28   S    
C37   O8    A    
C2    C28   A    
O7    Zn4   S    
C9    H5    S    
C49   H23   S    
C63   H38   S    
C52   H10   S    
C32   C56   A    
C4    C30   A    
C60   H35   S    
C53   H45   S    
O4    Zn3   S    
