data_mof_unit_31447.cif
_audit_creation_date              2012-12-10T19:10:26-0500
_audit_creation_method            fapswitch 2.2
_symmetry_space_group_name_H-M    P1
_symmetry_Int_Tables_number       1
_space_group_crystal_system       triclinic
_cell_length_a                    10.758748
_cell_length_b                    10.155698
_cell_length_c                    15.767017
_cell_angle_alpha                 87.495136
_cell_angle_beta                  88.031606
_cell_angle_gamma                 91.69939
_cell_volume                      1719.24589929

loop_
_atom_site_label
_atom_site_type_symbol
_atom_type_description
_atom_site_fract_x
_atom_site_fract_y
_atom_site_fract_z
_atom_type_partial_charge
C1    C     C_R   0.258404 0.498507 0.509626 0.793730
C2    C     C_3   0.621576 0.464146 0.951094 -0.677217
C3    C     C_3   0.633440 0.479510 0.048989 0.294295
C4    C     C_1   0.489337 0.489677 0.827338 0.040400
C5    C     C_1   0.499662 0.512593 0.176650 -0.037209
C6    C     C_1   0.501388 0.509609 0.251523 -0.176772
C7    C     C_3   0.065728 0.634885 0.545028 0.019678
C8    C     C_3   0.052017 0.379475 0.565876 0.038740
C9    C     C_3   0.925608 0.640061 0.527815 -0.363110
C10   C     C_3   0.911052 0.394332 0.563603 -0.442023
C11   C     C_3   0.080568 0.492196 0.418908 -0.501632
C12   C     C_3   0.118631 0.500052 0.513856 0.111294
C13   C     C_3   0.876621 0.504442 0.499241 0.126261
C14   C     C_R   0.501074 0.502735 0.339729 0.889937
C15   C     C_3   0.938124 0.478120 0.412231 -0.438699
C16   C     C_3   0.374274 0.074851 0.480038 0.032656
C17   C     C_3   0.377978 0.917565 0.472784 0.053016
C18   C     C_3   0.589436 0.086442 0.432697 0.444521
C19   C     C_3   0.595542 0.927195 0.436721 0.499229
C20   C     C_3   0.542699 0.076465 0.580300 -0.150171
C21   C     C_3   0.541614 0.919369 0.581754 -0.069862
C22   C     C_R   0.740767 0.501991 0.496179 0.834690
C23   C     C_R   0.498775 0.497460 0.661217 0.866054
C24   C     C_3   0.450400 0.645480 0.045337 -0.081955
C25   C     C_3   0.400226 0.396657 0.062482 -0.122098
C26   C     C_3   0.387727 0.393786 0.963833 0.712136
C27   C     C_3   0.451908 0.639898 0.945178 0.759167
C28   C     C_1   0.493435 0.491765 0.751313 -0.225980
C29   C     C_3   0.495029 0.509236 0.085692 0.013501
C30   C     C_3   0.488020 0.495619 0.919988 -0.009462
H1    H     H_    0.911263 0.716403 0.476377 0.153968
H2    H     H_    0.870528 0.296522 0.547750 0.167357
H3    H     H_    0.114090 0.583195 0.382017 0.174235
H4    H     H_    0.125759 0.410283 0.387074 0.178513
H5    H     H_    0.906066 0.549207 0.362494 0.176949
H6    H     H_    0.912158 0.377005 0.393083 0.190086
H7    H     H_    0.313781 0.089660 0.536258 0.108830
H8    H     H_    0.308339 0.879456 0.521648 0.095885
H9    H     H_    0.642788 0.107617 0.583838 0.141807
H10   H     H_    0.642412 0.897180 0.586242 0.072293
H11   H     H_    0.684538 0.126900 0.443688 0.047355
H12   H     H_    0.690831 0.902614 0.456484 0.015367
H13   H     H_    0.444608 0.306770 0.081003 0.182964
H14   H     H_    0.523266 0.717292 0.061342 0.103435
H15   H     H_    0.691158 0.528567 0.914423 0.207663
H16   H     H_    0.647018 0.363784 0.933618 0.206935
H17   H     H_    0.109785 0.713901 0.501734 0.116206
H18   H     H_    0.072588 0.290384 0.530206 0.175500
H19   H     H_    0.868603 0.671373 0.582510 0.187663
H20   H     H_    0.868283 0.416974 0.626443 0.152784
N1    N     N_3   0.499750 0.138610 0.498180 -0.166458
N2    N     N_3   0.499750 0.861390 0.498180 -0.140022
O1    O     O_R   0.314910 0.616040 0.499980 -0.684188
O2    O     O_R   0.314910 0.383960 0.499980 -0.634217
O3    O     O_R   0.500120 0.616090 0.377110 -0.568701
O4    O     O_R   0.500120 0.383910 0.377110 -0.571213
O5    O     O_R   0.685320 0.616040 0.499960 -0.620938
O6    O     O_R   0.685320 0.383960 0.499960 -0.626696
O7    O     O_R   0.500110 0.615990 0.622830 -0.616028
O8    O     O_R   0.500110 0.384010 0.622830 -0.619973
Zn1   Zn    Zn3+2 0.500150 0.654960 0.499960 0.941081
Zn2   Zn    Zn3+2 0.500150 0.345040 0.499960 0.930198
F1    F     F_    0.335668 0.662957 0.913698 -0.635350
F2    F     F_    0.270381 0.434960 0.942627 -0.642825
C31   C     C_3   0.303630 0.142964 0.405340 -0.198770
C32   C     C_3   0.162878 0.108990 0.407421 -1.027554
H21   H     H_    0.131442 0.050907 0.465968 0.252310
H22   H     H_    0.107996 0.198652 0.403562 0.250569
H23   H     H_    0.138142 0.053356 0.351086 0.269267
H24   H     H_    0.315983 0.248637 0.399701 0.252435
H25   H     H_    0.343078 0.123448 0.343084 0.236191
C33   C     C_3   0.322288 0.856966 0.389751 -0.247165
C34   C     C_3   0.365591 0.897483 0.297389 -0.753794
H26   H     H_    0.440031 0.973587 0.289972 0.333079
H27   H     H_    0.401792 0.811032 0.264825 0.248244
H28   H     H_    0.285461 0.932292 0.260886 0.196282
H29   H     H_    0.332599 0.751822 0.391143 0.256622
H30   H     H_    0.219691 0.862518 0.394280 0.143676
F3    F     F_    0.564442 0.134067 0.351901 -0.660920
F4    F     F_    0.594164 0.873457 0.358121 -0.633201
C35   C     C_3   0.479710 0.130671 0.660619 -0.225740
C36   C     C_3   0.576467 0.178962 0.723618 -0.880612
H31   H     H_    0.627263 0.095755 0.752100 0.220519
H32   H     H_    0.647926 0.247658 0.692390 0.266390
H33   H     H_    0.530144 0.229978 0.775169 0.262347
H34   H     H_    0.411425 0.197984 0.640130 0.236546
H35   H     H_    0.410974 0.068185 0.696820 0.174097
C37   C     C_3   0.499929 0.854266 0.670554 -0.217915
C38   C     C_3   0.362456 0.815178 0.683055 -0.838704
H36   H     H_    0.300517 0.900010 0.680195 0.206436
H37   H     H_    0.336510 0.751576 0.632124 0.283089
H38   H     H_    0.345401 0.760463 0.745007 0.286255
H39   H     H_    0.564886 0.778254 0.691130 0.184074
H40   H     H_    0.525629 0.914346 0.723758 0.173549
C39   C     C_3   0.336516 0.712375 0.090205 -0.346583
C40   C     C_3   0.205617 0.696564 0.055609 -0.703976
H41   H     H_    0.192073 0.770535 0.003027 0.281548
H42   H     H_    0.185638 0.596953 0.033584 0.316932
H43   H     H_    0.135643 0.715930 0.106642 0.188462
H44   H     H_    0.330641 0.681708 0.158439 0.179740
H45   H     H_    0.356144 0.820694 0.090014 0.190228
C41   C     C_3   0.273572 0.383455 0.115487 -0.330979
C42   C     C_3   0.270778 0.270463 0.183310 -0.977347
H46   H     H_    0.278663 0.174215 0.152988 0.263680
H47   H     H_    0.348582 0.283083 0.226815 0.288666
H48   H     H_    0.181726 0.269613 0.221154 0.264212
H49   H     H_    0.254096 0.473899 0.149133 0.227855
H50   H     H_    0.193643 0.363874 0.074797 0.259975
C43   C     C_3   0.397750 0.247782 0.936047 -0.473234
C44   C     C_3   0.311529 0.213834 0.865472 -0.786034
H51   H     H_    0.212851 0.213231 0.888743 0.285535
H52   H     H_    0.325948 0.287903 0.812569 0.284128
H53   H     H_    0.331815 0.114635 0.842651 0.227108
H54   H     H_    0.493759 0.225284 0.916104 0.171150
H55   H     H_    0.370892 0.176168 0.989393 0.200430
C45   C     C_3   0.537207 0.750970 0.900317 -0.464168
C46   C     C_3   0.499670 0.890684 0.921314 -0.860387
H56   H     H_    0.398995 0.903768 0.911749 0.298796
H57   H     H_    0.521329 0.912861 0.987510 0.240139
H58   H     H_    0.552909 0.963565 0.878820 0.239301
H59   H     H_    0.636813 0.740607 0.911517 0.167942
H60   H     H_    0.529624 0.743487 0.831287 0.215749
C47   C     C_3   0.727750 0.599422 0.065266 -0.421073
C48   C     C_3   0.866326 0.581796 0.041866 -0.905338
H61   H     H_    0.911110 0.519735 0.091113 0.250462
H62   H     H_    0.879106 0.538253 0.978981 0.272437
H63   H     H_    0.916078 0.679411 0.039095 0.258062
H64   H     H_    0.705754 0.690358 0.029974 0.202898
H65   H     H_    0.721824 0.623057 0.133414 0.216007
C49   C     C_3   0.699244 0.355928 0.092567 -0.301303
C50   C     C_3   0.643971 0.214929 0.096384 -0.935812
H66   H     H_    0.575258 0.199138 0.150336 0.292526
H67   H     H_    0.605276 0.188091 0.035260 0.241038
H68   H     H_    0.719045 0.144927 0.109837 0.264753
H69   H     H_    0.789646 0.344659 0.058046 0.225735
H70   H     H_    0.721754 0.378761 0.158798 0.216060
C51   C     C_3   0.100276 0.676008 0.635733 -0.386551
C52   C     C_3   0.999672 0.670382 0.707675 -0.882039
H71   H     H_    0.939178 0.756872 0.701784 0.239909
H72   H     H_    0.940847 0.579162 0.708943 0.249593
H73   H     H_    0.045178 0.675171 0.769695 0.276545
H74   H     H_    0.179758 0.618213 0.657246 0.210138
H75   H     H_    0.131149 0.781246 0.629726 0.195351
C53   C     C_3   0.081181 0.346757 0.660061 -0.419997
C54   C     C_3   0.193801 0.266122 0.670009 -0.953328
H76   H     H_    0.201875 0.196951 0.618627 0.257608
H77   H     H_    0.274786 0.335302 0.671480 0.280620
H78   H     H_    0.183463 0.204363 0.729405 0.257809
H79   H     H_    0.089723 0.432730 0.699278 0.254412
H80   H     H_    0.003380 0.284514 0.690390 0.213428

loop_
_geom_bond_atom_site_label_1
_geom_bond_atom_site_label_2
_ccdc_geom_bond_type
O6    Zn2   S    
C14   O4    A    
C51   H74   S    
C3    C49   S    
C34   H26   S    
C32   H22   S    
C49   H69   S    
C16   N1    S    
C50   H68   S    
C25   H13   S    
C22   O5    A    
C35   C36   S    
C47   C48   S    
C2    H16   S    
C23   O7    A    
N1    Zn2   S    
C53   H79   S    
C45   H60   S    
C20   N1    S    
N2    Zn1   S    
C46   H57   S    
C5    C6    T    
C25   C41   S    
C32   H23   S    
C31   H24   S    
C40   H43   S    
C9    C13   S    
C45   C46   S    
O8    Zn2   S    
C18   C19   S    
C3    C29   S    
C1    O1    A    
C24   C29   S    
C33   H30   S    
C4    C28   T    
C44   H51   S    
O1    Zn1   S    
C19   N2    S    
C39   C40   S    
C16   C17   S    
C40   H42   S    
C53   H80   S    
C24   C27   S    
C41   H50   S    
C38   H37   S    
C35   H34   S    
C19   H12   S    
C16   H7    S    
C27   C45   S    
C14   O3    A    
C51   H75   S    
C21   C37   S    
C20   C35   S    
C47   H65   S    
C27   C30   S    
C34   H27   S    
C7    C12   S    
C1    C12   S    
C11   C15   S    
C17   N2    S    
C15   H5    S    
C54   H77   S    
C3    C47   S    
C18   N1    S    
C54   H76   S    
C5    C29   S    
C2    H15   S    
C25   C29   S    
C23   O8    A    
C37   H40   S    
O7    Zn1   S    
C45   H59   S    
C41   C42   S    
C11   H3    S    
C9    H19   S    
C42   H47   S    
C18   H11   S    
C7    C51   S    
C20   H9    S    
C43   H55   S    
C39   H44   S    
C18   F3    S    
O2    Zn2   S    
C25   C26   S    
C31   H25   S    
C52   H73   S    
C7    H17   S    
C1    O2    A    
C8    H18   S    
C33   H29   S    
C6    C14   S    
C26   C43   S    
C8    C12   S    
C40   H41   S    
C41   H49   S    
C8    C53   S    
C23   C28   S    
C20   C21   S    
C38   H38   S    
C44   H53   S    
C35   H35   S    
C27   F1    S    
C43   H54   S    
C48   H63   S    
C31   C32   S    
C36   H32   S    
C13   C15   S    
C24   H14   S    
C34   H28   S    
O4    Zn2   S    
C46   H58   S    
C50   H66   S    
C10   H20   S    
C15   H6    S    
C42   H46   S    
C54   H78   S    
C48   H62   S    
C7    C9    S    
C37   H39   S    
C11   H4    S    
C49   H70   S    
C33   C34   S    
C50   H67   S    
C10   C13   S    
C22   O6    A    
C11   C12   S    
O5    Zn1   S    
C52   H72   S    
C26   F2    S    
C36   H33   S    
C51   C52   S    
C2    C30   S    
C53   C54   S    
C49   C50   S    
C46   H56   S    
C24   C39   S    
C47   H64   S    
C21   H10   S    
O3    Zn1   S    
C13   C22   S    
C2    C3    S    
C42   H48   S    
C17   H8    S    
C19   F4    S    
C44   H52   S    
C52   H71   S    
C9    H1    S    
C10   H2    S    
C37   C38   S    
C17   C33   S    
C8    C10   S    
C36   H31   S    
C32   H21   S    
C16   C31   S    
C38   H36   S    
C43   C44   S    
C21   N2    S    
C4    C30   S    
C39   H45   S    
C48   H61   S    
C26   C30   S    
