data_mof_unit_19042.cif
_audit_creation_date              2012-12-10T17:46:20-0500
_audit_creation_method            fapswitch 2.2
_symmetry_space_group_name_H-M    P1
_symmetry_Int_Tables_number       1
_space_group_crystal_system       triclinic
_cell_length_a                    14.130021
_cell_length_b                    10.634212
_cell_length_c                    9.945955
_cell_angle_alpha                 89.853971
_cell_angle_beta                  90.615698
_cell_angle_gamma                 89.753562
_cell_volume                      1494.39035529

loop_
_atom_site_label
_atom_site_type_symbol
_atom_type_description
_atom_site_fract_x
_atom_site_fract_y
_atom_site_fract_z
_atom_type_partial_charge
C1    C     C_R   0.500246 0.260753 0.500109 0.875638
C2    C     C_R   0.424072 0.063437 0.449266 0.177554
C3    C     C_R   0.426627 0.934128 0.448936 -0.206271
C4    C     C_R   0.329371 0.499279 0.499561 0.885371
C5    C     C_R   0.505666 0.871290 0.499594 -0.139991
C6    C     C_R   0.325371 0.506423 0.117184 0.240944
C7    C     C_R   0.249132 0.443175 0.056316 -0.184003
C8    C     C_R   0.262474 0.378386 0.936031 -0.244904
C9    C     C_R   0.348041 0.390944 0.868346 -0.142337
C10   C     C_R   0.422660 0.458088 0.928137 0.142696
C11   C     C_R   0.417151 0.484484 0.067469 0.137925
C12   C     C_1   0.772155 0.499207 0.501770 -0.220550
C13   C     C_R   0.580124 0.522986 0.072698 -0.115957
C14   C     C_R   0.578676 0.530096 0.929563 -0.113523
C15   C     C_R   0.501353 0.739162 0.499846 0.873159
C16   C     C_R   0.670648 0.499898 0.500588 0.861681
C17   C     C_1   0.227881 0.497836 0.499055 -0.222216
C18   C     C_1   0.142590 0.497231 0.499384 -0.021928
C19   C     C_1   0.042686 0.497240 0.500281 0.000322
C20   C     C_1   0.957383 0.497675 0.501138 -0.000889
C21   C     C_1   0.857463 0.498481 0.501834 -0.018299
C22   C     C_3   0.336078 0.130656 0.398611 -0.883484
C23   C     C_R   0.666365 0.130905 0.595394 -0.158736
C24   C     C_3   0.302284 0.632703 0.177352 -0.857856
C25   C     C_R   0.745966 0.065504 0.642063 -0.132035
C26   C     C_R   0.746557 0.934694 0.642600 -0.138053
C27   C     C_R   0.667609 0.868944 0.596245 -0.163011
C28   C     C_R   0.586074 0.933992 0.549336 0.093320
C29   C     C_R   0.585150 0.065613 0.549096 0.051500
C30   C     C_R   0.503314 0.128061 0.500013 -0.117065
H1    H     H_    0.204159 0.328601 0.889347 0.163940
H2    H     H_    0.178168 0.453601 0.095022 0.158044
H3    H     H_    0.279386 0.063662 0.369482 0.233858
H4    H     H_    0.307894 0.192711 0.478561 0.221065
H5    H     H_    0.352896 0.188157 0.308759 0.259377
H6    H     H_    0.365882 0.679031 0.219790 0.267628
H7    H     H_    0.273873 0.695586 0.097075 0.220130
H8    H     H_    0.247236 0.623914 0.255369 0.233313
H9    H     H_    0.356174 0.344066 0.773294 0.188446
H10   H     H_    0.642287 0.556553 0.877241 0.147499
H11   H     H_    0.669624 0.232433 0.595008 0.138603
H12   H     H_    0.807549 0.116518 0.677170 0.137303
H13   H     H_    0.808576 0.883995 0.678138 0.137446
H14   H     H_    0.671479 0.767379 0.596379 0.133177
H15   H     H_    0.366273 0.881461 0.411349 0.143421
H16   H     H_    0.645231 0.542368 0.126672 0.153535
N1    N     N_R   0.499190 0.498800 0.142780 -0.113465
N2    N     N_R   0.499160 0.498720 0.857170 -0.106671
O1    O     O_R   0.500000 0.316780 0.614690 -0.627990
O2    O     O_R   0.499990 0.316750 0.385360 -0.596943
O3    O     O_R   0.373720 0.500010 0.614690 -0.606172
O4    O     O_R   0.373710 0.499990 0.385360 -0.592647
O5    O     O_R   0.500010 0.683250 0.614640 -0.599334
O6    O     O_R   0.500000 0.683220 0.385310 -0.618058
O7    O     O_R   0.626290 0.500010 0.614640 -0.611560
O8    O     O_R   0.626280 0.499990 0.385310 -0.595803
Zn1   Zn    Zn3+2 0.500010 0.500020 0.653130 0.935181
Zn2   Zn    Zn3+2 0.499990 0.499980 0.346870 0.937674

loop_
_geom_bond_atom_site_label_1
_geom_bond_atom_site_label_2
_ccdc_geom_bond_type
C25   H12   S    
C2    C22   S    
C24   H8    S    
C16   O8    A    
C6    C7    A    
O3    Zn1   S    
C5    C28   A    
C9    C10   A    
C11   N1    A    
C19   C20   T    
C23   H11   S    
C9    H9    S    
C2    C30   A    
C6    C24   S    
C23   C25   A    
C17   C18   T    
C16   O7    A    
N2    Zn1   S    
C13   C14   A    
N1    Zn2   S    
C22   H5    S    
C26   C27   A    
C24   H6    S    
O4    Zn2   S    
C4    O4    A    
C4    C17   S    
C15   O5    A    
C1    C30   S    
O8    Zn2   S    
C26   H13   S    
C24   H7    S    
C2    C3    A    
O7    Zn1   S    
C10   N2    A    
C13   H16   S    
C22   H4    S    
C5    C15   S    
C10   C11   A    
C4    O3    A    
C29   C30   A    
O2    Zn2   S    
C15   O6    A    
C23   C29   A    
C7    C8    A    
O1    Zn1   S    
C20   C21   S    
C18   C19   S    
C1    O2    A    
O6    Zn2   S    
C6    C11   A    
C13   N1    A    
C22   H3    S    
O5    Zn1   S    
C28   C29   A    
C14   N2    A    
C7    H2    S    
C3    C5    A    
C25   C26   A    
C27   H14   S    
C8    H1    S    
C14   H10   S    
C12   C21   T    
C3    H15   S    
C12   C16   S    
C8    C9    A    
C27   C28   A    
C1    O1    A    
