data_mof_unit_5462.cif
_audit_creation_date              2012-12-10T20:34:50-0500
_audit_creation_method            fapswitch 2.2
_symmetry_space_group_name_H-M    P1
_symmetry_Int_Tables_number       1
_space_group_crystal_system       triclinic
_cell_length_a                    10.698372
_cell_length_b                    10.655119
_cell_length_c                    9.91054
_cell_angle_alpha                 89.329879
_cell_angle_beta                  91.130045
_cell_angle_gamma                 91.23949
_cell_volume                      1129.17072654

loop_
_atom_site_label
_atom_site_type_symbol
_atom_type_description
_atom_site_fract_x
_atom_site_fract_y
_atom_site_fract_z
_atom_type_partial_charge
C1    C     C_R   0.495651 0.259626 0.500388 0.866749
C2    C     C_3   0.878546 0.499682 0.502502 -0.007463
C3    C     C_3   0.932256 0.633785 0.541536 -0.213258
C4    C     C_3   0.926009 0.456484 0.362834 -0.433905
C5    C     C_R   0.456869 0.060569 0.619971 0.121449
C6    C     C_R   0.471877 0.127445 0.499471 -0.105991
C7    C     C_R   0.455933 0.064981 0.375951 -0.234862
C8    C     C_R   0.452889 0.935146 0.375070 -0.231601
C9    C     C_R   0.465436 0.869521 0.497772 -0.105357
C10   C     C_R   0.452308 0.932392 0.618927 0.132926
C11   C     C_3   0.523858 0.921561 0.749304 -0.491380
C12   C     C_R   0.257948 0.497910 0.499379 0.896354
C13   C     C_3   0.531220 0.063301 0.749149 -0.505436
C14   C     C_R   0.452041 0.399766 0.070166 0.126429
C15   C     C_R   0.555388 0.595170 0.071936 -0.146317
C16   C     C_R   0.554366 0.595733 0.928218 -0.137000
C17   C     C_R   0.459799 0.396352 0.928511 0.169854
C18   C     C_3   0.335550 0.335406 0.911064 -0.558710
C19   C     C_3   0.319286 0.348102 0.061912 0.013564
C20   C     C_R   0.492697 0.739523 0.499200 0.895818
C21   C     C_R   0.742076 0.501060 0.500916 0.871197
C22   C     C_3   0.071711 0.392929 0.599293 0.058212
C23   C     C_3   0.927843 0.405018 0.613354 -0.004862
C24   C     C_3   0.077585 0.632865 0.536583 -0.011350
C25   C     C_3   0.067950 0.468687 0.358642 -0.466807
C26   C     C_3   0.121580 0.498002 0.500816 0.021582
H1    H     H_    0.114597 0.406727 0.700507 0.130729
H2    H     H_    0.884394 0.509435 0.276817 0.199114
H3    H     H_    0.106764 0.693411 0.449723 0.110753
H4    H     H_    0.456381 0.114979 0.280159 0.163238
H5    H     H_    0.452578 0.887693 0.278980 0.168966
H6    H     H_    0.465229 0.881419 0.831257 0.202093
H7    H     H_    0.616273 0.877921 0.739232 0.194882
H8    H     H_    0.481295 0.103053 0.834624 0.200182
H9    H     H_    0.626808 0.101157 0.735102 0.206930
H10   H     H_    0.598686 0.672971 0.125777 0.152882
H11   H     H_    0.596729 0.673999 0.874472 0.139044
H12   H     H_    0.274479 0.394182 0.846547 0.236054
H13   H     H_    0.339381 0.236311 0.880772 0.169134
H14   H     H_    0.306197 0.257256 0.116833 0.141770
H15   H     H_    0.910312 0.447412 0.713318 0.130591
H16   H     H_    0.904364 0.646390 0.647406 0.146073
H17   H     H_    0.095279 0.544713 0.286758 0.201914
H18   H     H_    0.106748 0.380119 0.321360 0.227271
H19   H     H_    0.897362 0.356758 0.346104 0.178820
N1    N     N_R   0.499150 0.499140 0.142800 -0.107745
N2    N     N_R   0.499150 0.499180 0.857150 -0.094982
O1    O     O_R   0.500020 0.316790 0.614690 -0.616575
O2    O     O_R   0.500000 0.316760 0.385350 -0.627580
O3    O     O_R   0.314800 0.500000 0.614670 -0.612287
O4    O     O_R   0.314790 0.499960 0.385330 -0.618294
O5    O     O_R   0.500000 0.683240 0.614650 -0.622235
O6    O     O_R   0.499980 0.683210 0.385310 -0.625229
O7    O     O_R   0.685210 0.500040 0.614670 -0.626088
O8    O     O_R   0.685200 0.500000 0.385330 -0.618834
Zn1   Zn    Zn3+2 0.500010 0.500020 0.653130 0.938698
Zn2   Zn    Zn3+2 0.499990 0.499980 0.346870 0.942779
C27   C     C_R   0.878225 0.746154 0.463439 0.141164
C28   C     C_R   0.815647 0.838812 0.534749 -0.167193
C29   C     C_R   0.770926 0.945881 0.468709 -0.117945
C30   C     C_R   0.786458 0.961835 0.330229 -0.107748
C31   C     C_R   0.849496 0.872047 0.258054 -0.162785
C32   C     C_R   0.896670 0.765962 0.324118 -0.136799
H20   H     H_    0.803804 0.829647 0.642533 0.101576
H21   H     H_    0.724312 0.016751 0.525009 0.138406
H22   H     H_    0.751122 0.044585 0.279276 0.123075
H23   H     H_    0.863975 0.885763 0.151051 0.122269
H24   H     H_    0.951075 0.703099 0.266122 0.111492
N3    N     N_2   0.105241 0.269348 0.549375 -0.291637
H25   H     H_    0.047476 0.226041 0.478680 0.256732
C33   C     C_3   0.174886 0.186987 0.637888 -0.801837
H26   H     H_    0.190153 0.096666 0.586582 0.241120
H27   H     H_    0.123948 0.167690 0.732325 0.245149
H28   H     H_    0.266881 0.231157 0.661463 0.255844
N4    N     N_2   0.223660 0.438796 0.089572 -0.259310
H29   H     H_    0.244726 0.529553 0.058739 0.240469
C34   C     C_3   0.097404 0.398284 0.050665 -0.854286
H30   H     H_    0.029809 0.471243 0.076543 0.235331
H31   H     H_    0.071650 0.308945 0.102949 0.248038
H32   H     H_    0.088098 0.383608 0.940573 0.231681
N5    N     N_2   0.864667 0.281985 0.611463 -0.282212
H33   H     H_    0.788655 0.268988 0.547280 0.214859
C35   C     C_3   0.852806 0.219924 0.741467 -0.806832
H34   H     H_    0.841360 0.117237 0.726936 0.233097
H35   H     H_    0.771193 0.257015 0.794552 0.240509
H36   H     H_    0.937313 0.236451 0.806003 0.239609
N6    N     N_2   0.143057 0.687426 0.654398 -0.283335
H37   H     H_    0.184009 0.774580 0.637051 0.224682
C36   C     C_3   0.098817 0.671480 0.790847 -0.793683
H38   H     H_    0.178489 0.685855 0.862848 0.240784
H39   H     H_    0.059135 0.576663 0.808712 0.225859
H40   H     H_    0.027491 0.742559 0.811672 0.221952

loop_
_geom_bond_atom_site_label_1
_geom_bond_atom_site_label_2
_ccdc_geom_bond_type
N6    H37   S    
C3    H16   S    
C18   H13   S    
C25   H17   S    
N5    H33   S    
C7    C8    A    
C14   N1    A    
C34   H30   S    
C28   H20   S    
C31   H23   S    
C24   C26   S    
C13   H9    S    
C5    C6    A    
C15   C16   A    
O2    Zn2   S    
C25   H18   S    
C18   C19   S    
N3    C33   S    
C24   H3    S    
C4    H2    S    
C30   H22   S    
C8    C9    A    
O4    Zn2   S    
C36   H39   S    
C9    C10   A    
C22   N3    S    
C5    C13   S    
C16   H11   S    
C28   C29   A    
C7    H4    S    
C14   C17   A    
C3    C24   S    
C30   C31   A    
C16   N2    A    
C5    C10   A    
N5    C35   S    
C4    C25   S    
C4    H19   S    
C34   H31   S    
O7    Zn1   S    
C1    C6    S    
C11   H7    S    
C19   H14   S    
C21   O8    A    
O6    Zn2   S    
C27   C28   A    
O3    Zn1   S    
C12   C26   S    
C29   C30   A    
C2    C4    S    
N4    H29   S    
C31   C32   A    
C9    C20   S    
C35   H34   S    
C2    C21   S    
C17   C18   S    
C25   C26   S    
C36   H40   S    
N4    C34   S    
C35   H35   S    
C11   H6    S    
C22   H1    S    
O8    Zn2   S    
N1    Zn2   S    
C15   H10   S    
C12   O4    A    
C33   H27   S    
C34   H32   S    
C27   C32   A    
O1    Zn1   S    
C32   H24   S    
C23   N5    S    
C8    H5    S    
C14   C19   S    
C17   N2    A    
C20   O6    A    
C29   H21   S    
C33   H28   S    
C12   O3    A    
C1    O1    A    
C6    C7    A    
C23   H15   S    
C19   N4    S    
C2    C3    S    
C18   H12   S    
C13   H8    S    
C20   O5    A    
C11   C13   S    
C21   O7    A    
N3    H25   S    
C24   N6    S    
C10   C11   S    
C3    C27   S    
C33   H26   S    
C35   H36   S    
C22   C26   S    
C2    C23   S    
N6    C36   S    
C22   C23   S    
C15   N1    A    
C36   H38   S    
C1    O2    A    
O5    Zn1   S    
N2    Zn1   S    
