data_mof_unit_27937.cif
_audit_creation_date              2013-03-05T16:05:15-0500
_audit_creation_method            fapswitch 2.2
_symmetry_space_group_name_H-M    P1
_symmetry_Int_Tables_number       1
_space_group_crystal_system       triclinic
_cell_length_a                    11.555827
_cell_length_b                    15.001194
_cell_length_c                    15.336196
_cell_angle_alpha                 81.581803
_cell_angle_beta                  89.792687
_cell_angle_gamma                 104.542515
_cell_volume                      2543.38215951

loop_
_atom_site_label
_atom_site_type_symbol
_atom_site_description
_atom_site_fract_x
_atom_site_fract_y
_atom_site_fract_z
_atom_type_partial_charge
O1    O     O_R   0.466720 0.383110 0.605620 -0.575437
O2    O     O_R   0.533280 0.616890 0.394380 -0.568995
O3    O     O_R   0.509090 0.531900 0.639510 -0.564836
O4    O     O_R   0.490910 0.468100 0.360490 -0.612064
C1    C     C_R   0.484189 0.440914 0.662874 0.929916
C2    C     C_R   0.520946 0.558928 0.337658 0.946150
O5    O     O_R   0.644370 0.425610 0.483050 -0.631984
O6    O     O_R   0.355630 0.574390 0.516950 -0.622301
O7    O     O_R   0.686740 0.574390 0.516930 -0.580935
O8    O     O_R   0.313260 0.425610 0.483070 -0.586183
C3    C     C_R   0.718044 0.501114 0.500061 0.904344
C4    C     C_R   0.281975 0.498950 0.499796 0.919749
Zn1   Zn    Zn3+2 0.471710 0.400660 0.477370 1.016664
Zn2   Zn    Zn3+2 0.528290 0.599340 0.522630 1.049800
C5    C     C_1   0.839236 0.502806 0.500302 -0.095535
C6    C     C_1   0.160820 0.497421 0.499236 -0.105076
C7    C     C_1   0.941087 0.501557 0.499962 0.058486
C8    C     C_1   0.059001 0.498779 0.499393 0.056494
C9    C     C_R   0.475591 0.401389 0.757415 -0.294824
C10   C     C_R   0.561739 0.595328 0.246022 -0.248327
C11   C     C_R   0.368770 0.288227 0.879111 -0.133300
C12   C     C_R   0.739602 0.656173 0.149600 -0.134123
C13   C     C_R   0.391893 0.316059 0.788821 0.237428
C14   C     C_R   0.677533 0.655575 0.227972 0.213214
C15   C     C_R   0.545583 0.452344 0.817644 0.274193
C16   C     C_R   0.504187 0.546422 0.180530 0.229588
C17   C     C_R   0.524823 0.421756 0.909740 -0.068038
C18   C     C_R   0.574530 0.534429 0.109671 -0.065886
C19   C     C_R   0.429160 0.342603 0.939670 -0.001798
C20   C     C_R   0.691372 0.593757 0.091657 0.000658
C21   C     C_R   0.588158 0.472680 0.973255 0.051602
C22   C     C_R   0.532055 0.464697 0.056476 0.061714
C23   C     C_R   0.440957 0.383894 0.086481 -0.228793
C24   C     C_R   0.706125 0.528680 0.958000 -0.209025
C25   C     C_R   0.392554 0.320500 0.029480 0.489764
C26   C     C_R   0.758820 0.588603 0.017002 0.484390
H1    H     H_    0.299223 0.225361 0.901315 0.242986
H2    H     H_    0.828155 0.702741 0.136436 0.248442
H3    H     H_    0.409205 0.368490 0.154866 0.152021
H4    H     H_    0.760038 0.523243 0.902339 0.188153
N1    N     N_R   0.566020 0.731700 0.552730 -0.125645
N2    N     N_R   0.433980 0.268300 0.447270 -0.117197
C27   C     C_R   0.680408 0.841209 0.637673 0.412407
C28   C     C_R   0.321428 0.159998 0.360425 0.389345
C29   C     C_R   0.652758 0.753655 0.610509 -0.027098
C30   C     C_R   0.350898 0.248068 0.386504 -0.105316
C31   C     C_R   0.508463 0.793527 0.513973 0.018971
C32   C     C_R   0.488179 0.205310 0.488160 0.039349
C33   C     C_R   0.536140 0.885082 0.533718 -0.080484
C34   C     C_R   0.460117 0.113813 0.468261 -0.081130
C35   C     C_R   0.616658 0.906540 0.602398 -0.032452
C36   C     C_R   0.381475 0.093100 0.398291 -0.019749
C37   C     C_R   0.485828 0.954808 0.487711 0.066909
C38   C     C_R   0.509116 0.043661 0.514951 0.064291
C39   C     C_R   0.577590 0.059031 0.589864 -0.262615
C40   C     C_R   0.417102 0.939287 0.412963 -0.268607
C41   C     C_R   0.631517 0.992795 0.632925 0.339578
C42   C     C_R   0.365082 0.006168 0.368789 0.337184
H5    H     H_    0.554015 0.229820 0.534378 0.149607
H6    H     H_    0.440595 0.768260 0.469393 0.150705
H7    H     H_    0.307981 0.301323 0.358238 0.164807
H8    H     H_    0.699841 0.702159 0.635679 0.195004
H9    H     H_    0.587708 0.121247 0.619362 0.187918
H10   H     H_    0.406033 0.876599 0.384081 0.184393
O9    O     O_3   0.304316 0.240298 0.058873 -0.701829
H11   H     H_    0.289156 0.235875 0.123224 0.365550
O10   O     O_3   0.874753 0.643412 0.002177 -0.714781
H12   H     H_    0.908656 0.631939 0.946621 0.361045
N3    N     N_R   0.374781 0.520197 0.180068 0.211288
O11   O     O_R   0.322109 0.528709 0.105526 -0.321444
O12   O     O_R   0.309492 0.503455 0.252792 -0.398381
N4    N     N_R   0.627580 0.540138 0.784878 0.192399
O13   O     O_R   0.607031 0.617320 0.802128 -0.371387
O14   O     O_R   0.719263 0.543187 0.733917 -0.432484
N5    N     N_R   0.735234 0.713769 0.289780 0.226375
O15   O     O_R   0.846896 0.719270 0.306771 -0.344120
O16   O     O_R   0.683981 0.773651 0.316166 -0.329862
N6    N     N_R   0.322625 0.259938 0.730074 0.229728
O17   O     O_R   0.370743 0.206085 0.690703 -0.354093
O18   O     O_R   0.206985 0.246953 0.731500 -0.330085
N7    N     N_R   0.693118 0.012425 0.711790 0.266321
O19   O     O_R   0.768249 0.092998 0.712768 -0.321104
O20   O     O_R   0.656406 0.958393 0.786254 -0.268702
N8    N     N_R   0.304250 0.986438 0.289665 0.268257
O21   O     O_R   0.226374 0.906987 0.289386 -0.301190
O22   O     O_R   0.344186 0.038422 0.214755 -0.287977
O23   O     O_3   0.771976 0.864750 0.694393 -0.665302
H13   H     H_    0.805911 0.810562 0.711997 0.362049
O24   O     O_3   0.231704 0.137645 0.302026 -0.686716
H14   H     H_    0.199027 0.192371 0.283808 0.337974

loop_
_geom_bond_atom_site_label_1
_geom_bond_atom_site_label_2
_geom_bond_distance
_ccdc_geom_bond_type
O23   H13   0.991989 S    
C17   C19   1.421336 A    
O7    Zn2   1.962893 S    
N7    O19   1.301278 A    
C26   O10   1.382888 S    
C31   C33   1.407899 A    
C37   C38   1.416791 A    
O5    C3    1.296014 A    
C34   C38   1.422094 A    
O1    C1    1.303819 A    
N8    O22   1.301554 A    
N6    O18   1.300761 A    
C25   O9    1.382829 S    
C12   H2    1.083575 S    
C29   H8    1.080305 S    
N2    C30   1.351028 A    
O4    Zn1   1.907666 S    
N3    O12   1.301144 A    
C31   H6    1.075484 S    
C3    C5    1.394345 S    
C23   H3    1.082423 S    
C4    C6    1.394537 S    
C33   C35   1.426437 A    
C39   H9    1.076373 S    
C34   C36   1.427146 A    
C40   H10   1.076516 S    
C35   C41   1.410428 A    
C28   C36   1.416978 A    
C32   C34   1.407862 A    
O2    C2    1.301220 A    
C9    C15   1.411853 A    
O8    C4    1.299470 A    
Zn1   N2    2.044677 S    
N7    O20   1.301489 A    
C28   C30   1.396835 A    
C11   C13   1.391082 A    
C30   H7    1.082237 S    
C17   C21   1.417845 A    
O10   H12   0.991685 S    
C10   C14   1.414458 A    
C18   C22   1.412664 A    
N8    O21   1.301256 A    
O4    C2    1.312057 A    
N6    O17   1.300922 A    
C11   C19   1.398424 A    
C9    C13   1.414337 A    
N5    O15   1.301908 A    
C39   C41   1.390514 A    
C42   N8    1.435660 S    
N5    O16   1.301287 A    
C21   C22   1.404941 A    
O6    C4    1.295932 A    
C7    C8    1.373675 S    
N1    C31   1.344301 A    
C21   C24   1.408487 A    
C15   N4    1.435607 S    
N2    C32   1.343493 A    
C27   C29   1.396829 A    
O3    Zn2   1.907668 S    
C36   C42   1.410859 A    
Zn2   N1    2.044675 S    
N4    O14   1.301772 A    
O7    C3    1.299369 A    
C12   C14   1.395188 A    
O1    Zn1   1.944516 S    
C32   H5    1.075228 S    
C37   C40   1.410997 A    
C5    C7    1.181824 T    
C38   C39   1.411284 A    
O6    Zn2   1.940203 S    
C12   C20   1.400739 A    
N4    O13   1.301623 A    
O3    C1    1.316423 A    
O8    Zn1   1.962893 S    
C14   N5    1.435190 S    
C1    C9    1.476927 S    
C15   C17   1.419680 A    
C2    C10   1.461731 S    
C19   C25   1.406260 A    
C16   C18   1.413637 A    
C20   C26   1.405012 A    
C27   O23   1.382022 S    
C22   C23   1.407692 A    
C18   C20   1.418911 A    
C27   C35   1.416361 A    
C10   C16   1.401744 A    
C33   C37   1.422037 A    
C23   C25   1.400446 A    
C40   C42   1.390588 A    
C24   C26   1.401746 A    
C13   N6    1.431813 S    
N3    O11   1.301917 A    
O2    Zn2   1.944516 S    
C41   N7    1.435820 S    
O5    Zn1   1.940203 S    
C11   H1    1.083789 S    
C6    C8    1.181887 T    
O9    H11   0.991366 S    
C16   N3    1.447911 S    
N1    C29   1.350711 A    
C24   H4    1.079585 S    
O24   H14   0.991922 S    
C28   O24   1.381899 S    
