data_mof_unit_50609.cif
_audit_creation_date              2013-03-05T15:54:20-0500
_audit_creation_method            fapswitch 2.2
_symmetry_space_group_name_H-M    P1
_symmetry_Int_Tables_number       1
_space_group_crystal_system       triclinic
_cell_length_a                    15.053296
_cell_length_b                    14.787575
_cell_length_c                    14.916138
_cell_angle_alpha                 109.552529
_cell_angle_beta                  109.331585
_cell_angle_gamma                 109.316686
_cell_volume                      2562.6954605

loop_
_atom_site_label
_atom_site_type_symbol
_atom_site_description
_atom_site_fract_x
_atom_site_fract_y
_atom_site_fract_z
_atom_type_partial_charge
C1    C     C_R   0.929723 0.744439 0.022461 -0.142893
N1    N     N_R   0.995640 0.706130 0.053910 -0.043978
C2    C     C_R   0.780241 0.253476 0.686527 -0.131655
H1    H     H_    0.803346 0.247873 0.624578 0.117958
N2    N     N_R   0.848310 0.293860 0.791110 -0.047907
C3    C     C_R   0.095764 0.593327 0.793618 -0.149904
H2    H     H_    0.158579 0.677435 0.829603 0.139321
N3    N     N_R   0.054010 0.556790 0.847890 -0.042012
C4    C     C_R   0.703556 0.409767 0.009123 -0.121823
H3    H     H_    0.648156 0.324325 0.978812 0.117623
N4    N     N_R   0.789940 0.443190 0.997130 -0.044109
C5    C     C_R   0.005032 0.410030 0.699706 -0.101893
N5    N     N_R   0.997630 0.443170 0.791110 -0.047211
C6    C     C_R   0.795170 0.592908 0.100933 -0.162230
H4    H     H_    0.827217 0.678618 0.158119 0.100446
N6    N     N_R   0.846320 0.556810 0.053910 -0.043265
C7    C     C_R   0.686169 0.249087 0.776114 -0.127394
H5    H     H_    0.621811 0.236371 0.795889 0.099041
N7    N     N_R   0.791080 0.293860 0.847890 -0.045124
C8    C     C_R   0.024703 0.749812 0.934364 -0.050409
H6    H     H_    0.056395 0.760965 0.881367 0.098869
N8    N     N_R   0.052880 0.706130 0.997130 -0.033144
C9    C     C_R   0.946321 0.773748 0.948007 0.047460
C10   C     C_R   0.677630 0.223156 0.673928 0.071016
C11   C     C_R   0.066427 0.503501 0.699832 0.072147
C12   C     C_R   0.705600 0.502490 0.075371 0.113857
C13   C     C_R   0.066463 0.592954 0.313387 -0.177969
H7    H     H_    0.124671 0.678287 0.374146 0.129747
N9    N     N_R   0.002370 0.556830 0.208890 -0.052271
C14   C     C_R   0.223539 0.406295 0.955619 0.298268
N10   N     N_R   0.153680 0.443190 0.946090 -0.065314
C15   C     C_R   0.294950 0.805004 0.202603 0.290418
N11   N     N_R   0.208920 0.706140 0.152110 -0.061333
C16   C     C_R   0.900879 0.193403 0.990417 -0.108526
H8    H     H_    0.831761 0.162499 0.000907 0.158184
N12   N     N_R   0.947120 0.293870 0.002870 -0.051522
C17   C     C_R   0.991578 0.192016 0.901014 -0.051733
H9    H     H_    0.003194 0.158452 0.832773 0.152678
N13   N     N_R   0.004360 0.293870 0.946090 -0.049236
C18   C     C_R   0.210741 0.805860 0.300378 -0.182636
H10   H     H_    0.182861 0.836046 0.355938 0.111649
N14   N     N_R   0.151690 0.706140 0.208890 -0.053252
C19   C     C_R   0.964781 0.408893 0.225755 0.333324
N15   N     N_R   0.945990 0.443210 0.152110 -0.064181
C20   C     C_R   0.314570 0.591782 0.059153 -0.131047
N16   N     N_R   0.210060 0.556810 0.002870 -0.051088
Ni1   Ni    Ni4+2 0.999010 0.630300 0.130220 0.215394
Ni2   Ni    Ni4+2 0.000990 0.369700 0.869780 0.237874
Ni3   Ni    Ni4+2 0.130280 0.630280 0.000000 0.264284
Ni4   Ni    Ni4+2 0.869720 0.369720 0.000000 0.245948
C21   C     C_R   0.045506 0.502212 0.327547 -0.008528
C22   C     C_R   0.326304 0.498818 0.033289 -0.022398
C23   C     C_R   0.301659 0.868395 0.298783 -0.002334
C24   C     C_R   0.928697 0.127996 0.928991 0.018177
C25   C     C_3   0.537262 0.403247 0.078494 0.195038
H11   H     H_    0.508737 0.325574 0.004310 0.100613
C26   C     C_3   0.436357 0.408411 0.076196 -0.397112
H12   H     H_    0.365008 0.326407 0.013587 0.201451
H13   H     H_    0.437644 0.421868 0.154559 0.237737
H14   H     H_    0.681020 0.618630 0.251196 0.236602
C27   C     C_3   0.636324 0.612656 0.171519 -0.417415
C28   C     C_3   0.546115 0.498422 0.965818 -0.483903
C29   C     C_3   0.609261 0.504494 0.075358 0.198400
H15   H     H_    0.595329 0.572129 0.963673 0.188068
H16   H     H_    0.528436 0.424018 0.894808 0.180046
C30   C     C_3   0.430819 0.503286 0.055140 0.228703
C31   C     C_3   0.530814 0.614997 0.156557 0.192416
C32   C     C_3   0.440154 0.493580 0.952215 -0.440556
H17   H     H_    0.435935 0.561990 0.938471 0.176391
H18   H     H_    0.689381 0.687055 0.173350 0.135177
H19   H     H_    0.534368 0.684472 0.141363 0.094485
C33   C     C_R   0.582374 0.102061 0.475393 0.151794
C34   C     C_R   0.579079 0.160737 0.568406 0.033579
C35   C     C_R   0.477716 0.141790 0.559491 -0.188186
H20   H     H_    0.472414 0.188866 0.628896 0.134610
C36   C     C_R   0.382326 0.051391 0.464740 -0.180252
H21   H     H_    0.305575 0.030978 0.463018 0.136409
C37   C     C_R   0.389187 0.980868 0.379745 0.053090
C38   C     C_R   0.489147 0.013250 0.383114 0.236123
C39   C     C_3   0.544413 0.946900 0.363105 -0.438209
C40   C     C_3   0.646740 0.044436 0.463894 -0.528043
H22   H     H_    0.513859 0.873092 0.372570 0.225038
H23   H     H_    0.550529 0.930982 0.287763 0.239393
H24   H     H_    0.675841 0.026417 0.531269 0.215542
H25   H     H_    0.709577 0.084487 0.445254 0.212857
C41   C     C_R   0.137312 0.610081 0.529206 0.150373
C42   C     C_R   0.093016 0.510231 0.434155 0.062889
C43   C     C_R   0.084618 0.417135 0.444701 -0.134297
C44   C     C_R   0.088563 0.416621 0.539635 -0.176457
H26   H     H_    0.067086 0.339978 0.541250 0.143916
C45   C     C_R   0.104873 0.510780 0.623904 0.034681
C46   C     C_R   0.143602 0.610409 0.623262 0.150367
C47   C     C_3   0.114592 0.699792 0.651917 -0.496738
C48   C     C_3   0.107557 0.699321 0.548644 -0.483159
H27   H     H_    0.034872 0.671594 0.648971 0.206739
H28   H     H_    0.182713 0.777851 0.727554 0.205446
H29   H     H_    0.023788 0.670607 0.486537 0.218620
H30   H     H_    0.171612 0.777257 0.565152 0.191751
C49   C     C_R   0.836754 0.868684 0.939202 0.166766
C50   C     C_R   0.895618 0.827321 0.899769 0.033911
C51   C     C_R   0.922102 0.857768 0.828279 -0.167473
H31   H     H_    0.959694 0.821824 0.788223 0.131872
C52   C     C_R   0.917897 0.949328 0.823354 -0.156700
H32   H     H_    0.953009 0.980346 0.780141 0.146565
C53   C     C_R   0.886258 0.009379 0.889219 0.030957
C54   C     C_R   0.831751 0.958314 0.933505 0.134282
C55   C     C_3   0.836865 0.004700 0.042126 -0.436026
C56   C     C_3   0.842698 0.907319 0.048721 -0.534981
H33   H     H_    0.912712 0.084152 0.106309 0.224471
H34   H     H_    0.760500 0.003747 0.034464 0.222975
H35   H     H_    0.921927 0.933119 0.116800 0.208805
H36   H     H_    0.769858 0.850387 0.045274 0.197225
H37   H     H_    0.870575 0.745409 0.047381 0.111483
Br1   Br    Br    0.187222 0.266799 0.843021 -0.679039
Br2   Br    Br    0.344215 0.861152 0.118913 -0.616550
Br3   Br    Br    0.863191 0.273357 0.203937 -0.597342
H38   H     H_    0.376821 0.677510 0.110301 0.160262
Br4   Br    Br    0.615699 0.392353 0.204779 -0.482330
Br5   Br    Br    0.524536 0.649925 0.292251 -0.579655
H39   H     H_    0.373224 0.415513 0.876913 0.233998
H40   H     H_    0.062930 0.341620 0.376385 0.167654
H41   H     H_    0.981976 0.325895 0.646560 0.109495

loop_
_geom_bond_atom_site_label_1
_geom_bond_atom_site_label_2
_geom_bond_distance
_ccdc_geom_bond_type
C27   H18   1.110479 S    
C30   C32   1.551119 S    
C42   C43   1.406736 A    
C47   C48   1.506165 S    
C13   N9    1.323555 A    
C34   C35   1.407948 A    
C26   C30   1.558488 S    
C19   N15   1.344105 A    
N12   Ni4   1.865775 S    
C20   N16   1.320603 A    
C49   C56   1.499264 S    
N16   Ni3   1.866755 S    
C51   H31   1.081658 S    
C35   C36   1.402941 A    
N9    Ni1   1.846701 S    
N11   N14   1.393757 A    
C17   H9    1.072441 S    
C36   C37   1.406603 A    
C16   H8    1.075624 S    
C33   C38   1.371363 A    
C14   N10   1.325251 A    
C10   C34   1.451170 S    
C26   H13   1.110402 S    
C3    C11   1.369506 A    
C54   C55   1.496704 S    
C48   H30   1.111879 S    
N15   Ni4   1.856486 S    
C1    N1    1.329345 A    
C27   C29   1.558214 S    
C50   C51   1.408125 A    
C28   H15   1.114735 S    
C41   C48   1.499033 S    
C32   H17   1.114507 S    
N10   N16   1.374336 A    
C25   C29   1.557355 S    
N1    N8    1.393880 A    
C55   C56   1.504588 S    
C44   C45   1.406066 A    
C4    H3    1.080357 S    
C16   N12   1.331070 A    
C33   C40   1.500943 S    
C28   H16   1.114859 S    
C18   N14   1.345234 A    
C30   C31   1.567728 S    
C51   C52   1.400988 A    
C55   H33   1.111974 S    
C2    C10   1.384002 A    
C1    H37   1.074778 S    
C39   H23   1.110233 S    
N6    Ni1   1.883357 S    
C13   C21   1.377841 A    
C4    C12   1.379319 A    
N2    Ni2   1.882914 S    
C11   C45   1.450369 S    
C7    C10   1.390431 A    
C35   H20   1.082490 S    
C36   H21   1.082151 S    
C39   H22   1.112093 S    
C21   C42   1.455655 S    
C45   C46   1.398352 A    
C41   C42   1.398724 A    
C33   C34   1.395870 A    
C3    N3    1.321848 A    
C20   C22   1.385878 A    
C56   H36   1.112055 S    
H14   C27   1.110835 S    
C12   C29   1.460222 S    
C28   C29   1.548669 S    
C19   Br3   1.915127 S    
N4    N6    1.374336 A    
C27   C31   1.542881 S    
C49   C50   1.402878 A    
C8    C9    1.394969 A    
C8    H6    1.079162 S    
C25   H11   1.111976 S    
C7    H5    1.080154 S    
C52   C53   1.409356 A    
C6    C12   1.369967 A    
C4    N4    1.324848 A    
N8    Ni3   1.865776 S    
C17   C24   1.378219 A    
C18   H10   1.081113 S    
C8    N8    1.340453 A    
C1    C9    1.384861 A    
C47   H28   1.111798 S    
N10   Ni2   1.883354 S    
C25   C26   1.535662 S    
N9    N15   1.374337 A    
C55   H34   1.111731 S    
C6    N6    1.322354 A    
C2    H1    1.078094 S    
C15   C23   1.374188 A    
C13   H7    1.076444 S    
C40   H24   1.112587 S    
C22   C30   1.470784 S    
C14   Br1   1.924034 S    
C20   H38   1.077325 S    
C49   C54   1.380878 A    
C14   C22   1.399794 A    
C24   C53   1.465605 S    
C37   C38   1.397560 A    
N12   N13   1.393881 A    
C39   C40   1.502926 S    
C2    N2    1.324171 A    
N5    Ni2   1.846701 S    
C16   C24   1.370810 A    
C3    H2    1.080835 S    
N2    N7    1.393758 A    
N1    Ni1   1.846437 S    
C53   C54   1.400931 A    
C48   H29   1.112512 S    
C56   H35   1.112203 S    
C28   C32   1.513598 S    
C5    C11   1.384426 A    
C15   N11   1.321501 A    
C23   C37   1.453618 S    
C17   N13   1.342546 A    
N4    Ni4   1.866755 S    
C41   C46   1.372757 A    
C32   H39   1.105789 S    
N7    Ni4   1.856671 S    
C19   C21   1.397476 A    
C26   H12   1.101118 S    
C31   Br5   1.957444 S    
C46   C47   1.499241 S    
C7    N7    1.339031 A    
C9    C50   1.464879 S    
C31   H19   1.112297 S    
N14   Ni1   1.882915 S    
C15   Br2   1.922759 S    
C38   C39   1.500749 S    
N3    N5    1.374336 A    
C5    H41   1.081114 S    
C43   C44   1.400222 A    
C47   H27   1.112513 S    
C18   C23   1.388455 A    
C52   H32   1.080869 S    
C6    H4    1.079887 S    
C5    N5    1.341984 A    
C44   H26   1.081965 S    
N11   Ni3   1.856670 S    
N3    Ni3   1.856487 S    
C40   H25   1.111987 S    
C43   H40   1.081132 S    
N13   Ni2   1.846436 S    
C25   Br4   1.955712 S    
