data_mof_unit_14618.cif
_audit_creation_date              2012-12-10T16:44:18-0500
_audit_creation_method            fapswitch 2.2
_symmetry_space_group_name_H-M    P1
_symmetry_Int_Tables_number       1
_space_group_crystal_system       triclinic
_cell_length_a                    7.455165
_cell_length_b                    8.73103
_cell_length_c                    13.391743
_cell_angle_alpha                 94.689004
_cell_angle_beta                  77.475962
_cell_angle_gamma                 103.248146
_cell_volume                      827.826098471

loop_
_atom_site_label
_atom_site_type_symbol
_atom_type_description
_atom_site_fract_x
_atom_site_fract_y
_atom_site_fract_z
_atom_type_partial_charge
C1    C     C_R   0.542704 0.799562 0.507874 0.830642
C2    C     C_R   0.337020 0.496317 0.806655 -0.099049
C3    C     C_2   0.561470 0.966016 0.523349 -0.211827
C4    C     C_R   0.399678 0.497985 0.694422 0.779901
C5    C     C_2   0.433589 0.032616 0.497068 -0.391350
C6    C     C_R   0.454162 0.200142 0.499222 0.878404
C7    C     C_R   0.602127 0.513873 0.305937 0.795039
C8    C     C_R   0.877399 0.685861 0.052875 -0.218954
C9    C     C_R   0.664490 0.544342 0.195799 -0.105130
C10   C     C_R   0.153416 0.416285 0.848125 -0.172569
C11   C     C_R   0.099384 0.387929 0.951997 -0.144400
C12   C     C_R   0.416599 0.512953 0.976082 0.084490
C13   C     C_R   0.229549 0.432036 0.015174 -0.184289
C14   C     C_1   0.991656 0.684669 0.209909 0.250129
C15   C     C_1   0.019182 0.644976 0.601589 0.571148
C16   C     C_1   0.714987 0.050494 0.571432 0.306532
C17   C     C_R   0.464003 0.557929 0.872580 0.076897
C18   C     C_R   0.557964 0.551997 0.036170 0.075486
C19   C     C_R   0.736029 0.647672 0.995345 0.134596
C20   C     C_R   0.770501 0.707095 0.898056 -0.218498
C21   C     C_R   0.635956 0.664619 0.837998 -0.194190
C22   C     C_R   0.528546 0.497632 0.135302 -0.242180
C23   C     C_R   0.843197 0.635556 0.152891 -0.038116
Cu1   Cu    Cu3+1 0.321300 0.483160 0.488710 0.981330
Cu2   Cu    Cu3+1 0.678700 0.516840 0.511290 0.966415
H1    H     H_    0.314398 0.962081 0.467823 0.183980
H2    H     H_    0.990102 0.383169 0.419469 0.223124
H3    H     H_    0.902643 0.786615 0.868053 0.167760
H4    H     H_    0.013824 0.757820 0.020365 0.147015
H5    H     H_    0.398662 0.419530 0.168352 0.153105
H6    H     H_    0.052654 0.371355 0.799683 0.171008
H7    H     H_    0.177646 0.404527 0.094640 0.133747
H8    H     H_    0.956831 0.326980 0.983372 0.152375
H9    H     H_    0.667285 0.719471 0.764934 0.167175
N1    N     N_2   0.947230 0.542220 0.528320 -0.188781
N2    N     N_2   0.052770 0.457780 0.471680 -0.217100
N3    N     N_1   0.110985 0.723962 0.255336 -0.274422
N4    N     N_1   0.077096 0.731670 0.663095 -0.382103
N5    N     N_1   0.837074 0.116883 0.609775 -0.274336
O1    O     O_R   0.383920 0.714220 0.492660 -0.581659
O2    O     O_R   0.685730 0.742660 0.511730 -0.598141
O3    O     O_R   0.275440 0.478800 0.636790 -0.583007
O4    O     O_R   0.577250 0.507240 0.655860 -0.596669
O5    O     O_R   0.314270 0.257340 0.488270 -0.571023
O6    O     O_R   0.616080 0.285780 0.507340 -0.580739
O7    O     O_R   0.422750 0.492760 0.344140 -0.574819
O8    O     O_R   0.724560 0.521200 0.363210 -0.586944

loop_
_geom_bond_atom_site_label_1
_geom_bond_atom_site_label_2
_ccdc_geom_bond_type
C14   C23   S    
C12   C17   A    
C1    O2    A    
C2    C4    S    
Cu1   Cu2   S    
C15   N4    T    
C6    O6    A    
H2    N2    S    
Cu1   O3    S    
Cu2   O8    S    
C13   H7    S    
C20   H3    S    
N1    N2    D    
C3    C5    D    
Cu1   O7    S    
Cu2   O4    S    
C6    O5    A    
C12   C13   A    
C2    C17   A    
C11   C13   A    
Cu1   N2    S    
C4    O3    A    
Cu2   N1    S    
C8    H4    S    
C15   N1    S    
C4    O4    A    
C1    C3    S    
C5    C6    S    
Cu1   O5    S    
C9    C22   A    
C8    C19   A    
C10   C11   A    
C16   N5    T    
C12   C18   A    
C5    H1    S    
C2    C10   A    
C7    O7    A    
Cu2   O6    S    
C11   H8    S    
C8    C23   A    
C20   C21   A    
C18   C19   A    
Cu2   O2    S    
C7    C9    S    
C9    C23   A    
C21   H9    S    
C22   H5    S    
C1    O1    A    
Cu1   O1    S    
C18   C22   A    
C10   H6    S    
C17   C21   A    
C3    C16   S    
C19   C20   A    
C14   N3    T    
C7    O8    A    
