data_mof_unit_18242.cif
_audit_creation_date              2012-12-10T16:37:58-0500
_audit_creation_method            fapswitch 2.2
_symmetry_space_group_name_H-M    P1
_symmetry_Int_Tables_number       1
_space_group_crystal_system       triclinic
_cell_length_a                    28.164119
_cell_length_b                    18.439524
_cell_length_c                    16.999103
_cell_angle_alpha                 90.205786
_cell_angle_beta                  61.022741
_cell_angle_gamma                 90.297019
_cell_volume                      7722.90117887

loop_
_atom_site_label
_atom_site_type_symbol
_atom_type_description
_atom_site_fract_x
_atom_site_fract_y
_atom_site_fract_z
_atom_type_partial_charge
C1    C     C_R   0.700936 0.266194 0.677001 0.898905
C2    C     C_R   0.293944 0.722886 0.326754 0.898678
C3    C     C_R   0.295902 0.272986 0.324511 0.882625
C4    C     C_R   0.701220 0.733306 0.677025 0.915566
C5    C     C_R   0.206060 0.777516 0.672996 0.902768
C6    C     C_R   0.793691 0.222305 0.327129 0.903343
C7    C     C_R   0.798936 0.766430 0.322994 0.877024
C8    C     C_R   0.200902 0.234247 0.676809 0.911662
C9    C     C_R   0.920535 0.501291 0.433915 0.070526
C10   C     C_R   0.097557 0.500860 0.501743 0.063289
C11   C     C_R   0.420423 0.001192 0.435416 0.067567
C12   C     C_R   0.598463 0.000738 0.500451 0.064559
C13   C     C_R   0.114805 0.375625 0.451759 -0.248726
C14   C     C_R   0.923860 0.632618 0.430712 -0.240395
C15   C     C_R   0.928334 0.370920 0.412885 -0.250337
C16   C     C_R   0.080657 0.628143 0.542516 -0.238523
C17   C     C_R   0.618597 0.877291 0.443675 -0.242276
C18   C     C_R   0.422626 0.132500 0.436305 -0.235466
C19   C     C_R   0.429857 0.871396 0.409272 -0.244099
C20   C     C_R   0.579495 0.126699 0.547477 -0.257260
C21   C     C_R   0.709368 0.242868 0.964469 -0.054599
C22   C     C_R   0.276357 0.730659 0.048072 -0.047981
C23   C     C_R   0.285815 0.259197 0.036661 -0.050782
C24   C     C_R   0.718730 0.737987 0.956740 -0.053066
C25   C     C_R   0.220503 0.771645 0.953354 -0.047503
C26   C     C_R   0.769017 0.210821 0.055496 -0.056543
C27   C     C_R   0.782389 0.759515 0.043219 -0.052046
C28   C     C_R   0.230533 0.222297 0.940998 -0.055159
C29   C     C_R   0.759701 0.206340 0.918652 -0.064002
C30   C     C_R   0.220633 0.751506 0.097078 -0.083939
C31   C     C_R   0.237804 0.217950 0.077625 -0.079914
C32   C     C_R   0.767122 0.779247 0.913594 -0.079390
C33   C     C_R   0.277010 0.756602 0.904953 -0.087156
C34   C     C_R   0.714170 0.233659 0.105653 -0.064531
C35   C     C_R   0.734144 0.717830 0.086405 -0.064824
C36   C     C_R   0.273551 0.273131 0.904252 -0.082497
C37   C     C_R   0.792352 0.199216 0.961569 0.100959
C38   C     C_R   0.191826 0.768054 0.048861 0.087053
C39   C     C_R   0.217074 0.188780 0.023450 0.080950
C40   C     C_R   0.800782 0.785557 0.954654 0.084924
C41   C     C_R   0.303779 0.730396 0.952520 0.084960
C42   C     C_R   0.686748 0.257539 0.057803 0.103937
C43   C     C_R   0.700524 0.711432 0.045087 0.105233
C44   C     C_R   0.306497 0.281686 0.946401 0.085612
C45   C     C_R   0.634692 0.308470 0.958374 0.098915
C46   C     C_R   0.358721 0.682588 0.048049 0.104296
C47   C     C_R   0.363413 0.313940 0.042631 0.094152
C48   C     C_R   0.638866 0.684324 0.955293 0.097072
C49   C     C_R   0.137682 0.813222 0.951763 0.103421
C50   C     C_R   0.855030 0.175155 0.050585 0.100758
C51   C     C_R   0.861734 0.814676 0.044802 0.095587
C52   C     C_R   0.160690 0.149725 0.930026 0.084666
C53   C     C_R   0.612352 0.338537 0.905216 -0.134991
C54   C     C_R   0.384350 0.656570 0.097926 -0.137156
C55   C     C_R   0.387057 0.340400 0.095110 -0.137228
C56   C     C_R   0.613682 0.659339 0.904293 -0.136215
C57   C     C_R   0.113098 0.841025 0.901991 -0.136978
C58   C     C_R   0.883301 0.154920 0.098376 -0.143196
C59   C     C_R   0.886580 0.840432 0.095895 -0.137989
C60   C     C_R   0.126450 0.139236 0.890504 -0.130422
C61   C     C_R   0.632628 0.318162 0.816649 -0.308423
C62   C     C_R   0.362913 0.673425 0.187272 -0.307544
C63   C     C_R   0.365251 0.322092 0.184401 -0.309359
C64   C     C_R   0.633031 0.681215 0.816578 -0.306686
C65   C     C_R   0.135371 0.825625 0.812054 -0.300004
C66   C     C_R   0.863077 0.174347 0.186767 -0.307002
C67   C     C_R   0.867152 0.818874 0.183739 -0.310383
C68   C     C_R   0.136925 0.174845 0.812764 -0.310669
C69   C     C_R   0.676739 0.272819 0.775432 -0.093217
C70   C     C_R   0.312035 0.702990 0.233443 -0.083272
C71   C     C_R   0.315963 0.287020 0.228564 -0.081530
C72   C     C_R   0.678340 0.724786 0.774818 -0.097125
C73   C     C_R   0.186852 0.797416 0.766325 -0.090278
C74   C     C_R   0.811214 0.200782 0.234607 -0.081831
C75   C     C_R   0.822207 0.774635 0.225189 -0.085039
C76   C     C_R   0.180166 0.221726 0.772692 -0.097788
C77   C     C_R   0.701088 0.243521 0.826165 0.003355
C78   C     C_R   0.280145 0.714267 0.189309 -0.016140
C79   C     C_R   0.287043 0.267652 0.180578 0.000327
C80   C     C_R   0.705027 0.750062 0.824109 -0.002712
C81   C     C_R   0.218438 0.788740 0.811035 -0.018998
C82   C     C_R   0.777341 0.206335 0.193266 -0.005146
C83   C     C_R   0.795952 0.748613 0.175667 0.003485
C84   C     C_R   0.209035 0.243766 0.819246 0.000195
C85   C     C_R   0.691517 0.129091 0.533091 0.884479
C86   C     C_R   0.309139 0.870393 0.463318 0.895542
C87   C     C_R   0.308510 0.129360 0.465273 0.919198
C88   C     C_R   0.696541 0.872027 0.517424 0.913801
C89   C     C_R   0.191547 0.629118 0.532806 0.901541
C90   C     C_R   0.809016 0.370463 0.463528 0.920621
C91   C     C_R   0.808659 0.629501 0.464531 0.907771
C92   C     C_R   0.196015 0.372043 0.518791 0.897382
C93   C     C_R   0.681801 0.265178 0.916264 0.070473
C94   C     C_R   0.305185 0.709916 0.094947 0.068886
C95   C     C_R   0.312431 0.279375 0.086545 0.063764
C96   C     C_R   0.687698 0.723923 0.911845 0.066069
C97   C     C_R   0.192207 0.790637 0.905541 0.067985
C98   C     C_R   0.800582 0.198348 0.099561 0.069518
C99   C     C_R   0.813109 0.774608 0.088183 0.067799
C100  C     C_R   0.199978 0.205563 0.896847 0.064169
C101  C     C_R   0.611912 0.319591 0.051889 -0.223405
C102  C     C_R   0.384044 0.680635 0.953793 -0.229786
C103  C     C_R   0.388356 0.321729 0.948013 -0.216984
C104  C     C_R   0.616435 0.673493 0.048755 -0.214322
C105  C     C_R   0.109150 0.805209 0.045053 -0.234822
C106  C     C_R   0.879030 0.172987 0.956256 -0.213804
C107  C     C_R   0.884450 0.824904 0.951270 -0.216804
C108  C     C_R   0.157966 0.106108 0.000411 -0.220429
C109  C     C_R   0.638028 0.297096 0.099204 -0.152236
C110  C     C_R   0.356842 0.701689 0.907760 -0.176459
C111  C     C_R   0.359555 0.309303 0.901673 -0.158394
C112  C     C_R   0.646754 0.685872 0.092224 -0.145030
C113  C     C_R   0.134884 0.779488 0.091675 -0.174337
C114  C     C_R   0.848463 0.184691 0.912929 -0.150223
C115  C     C_R   0.854483 0.811391 0.907527 -0.160674
C116  C     C_R   0.183705 0.127219 0.048790 -0.162700
C117  C     C_R   0.742456 0.190896 0.791989 -0.285852
C118  C     C_R   0.224441 0.729789 0.235987 -0.263848
C119  C     C_R   0.233121 0.240069 0.221976 -0.280814
C120  C     C_R   0.746601 0.802875 0.791609 -0.259219
C121  C     C_R   0.275166 0.782978 0.765034 -0.261280
C122  C     C_R   0.720747 0.214798 0.242729 -0.277058
C123  C     C_R   0.755618 0.694287 0.207378 -0.292771
C124  C     C_R   0.246486 0.302120 0.791411 -0.265698
C125  C     C_R   0.774259 0.175771 0.833307 0.506772
C126  C     C_R   0.196432 0.754277 0.192665 0.503999
C127  C     C_R   0.209390 0.213621 0.172116 0.492787
C128  C     C_R   0.776972 0.817992 0.834907 0.488654
C129  C     C_R   0.304518 0.771198 0.810629 0.496749
C130  C     C_R   0.689068 0.230280 0.201232 0.513685
C131  C     C_R   0.723816 0.679314 0.165544 0.511698
C132  C     C_R   0.279167 0.316059 0.831261 0.501236
C133  C     C_R   0.079030 0.092547 0.929446 0.925556
C134  C     C_R   0.927476 0.897781 0.063972 0.908209
C135  C     C_R   0.927660 0.102577 0.063750 0.923817
C136  C     C_R   0.070798 0.896041 0.937179 0.884368
C137  C     C_R   0.572560 0.602217 0.936069 0.911302
C138  C     C_R   0.428580 0.396710 0.062891 0.909446
C139  C     C_R   0.427899 0.602859 0.063583 0.903367
C140  C     C_R   0.572359 0.397418 0.936161 0.906071
C141  C     C_R   0.540293 0.129123 0.519798 0.117970
C142  C     C_R   0.478603 0.872520 0.413171 0.113936
C143  C     C_R   0.462172 0.132338 0.462763 0.116460
C144  C     C_R   0.572738 0.875376 0.432113 0.106386
C145  C     C_R   0.042473 0.630546 0.512589 0.101848
C146  C     C_R   0.975447 0.371267 0.421116 0.117109
C147  C     C_R   0.964369 0.632949 0.455222 0.101681
C148  C     C_R   0.068086 0.373357 0.443265 0.101270
C149  C     C_R   0.514828 0.194553 0.520740 -0.220192
C150  C     C_R   0.510688 0.810205 0.394961 -0.199708
C151  C     C_R   0.477799 0.196736 0.488346 -0.185289
C152  C     C_R   0.558051 0.812111 0.402510 -0.203597
C153  C     C_R   0.018979 0.696425 0.508629 -0.179581
C154  C     C_R   0.004224 0.307180 0.411946 -0.228307
C155  C     C_R   0.981750 0.697964 0.476533 -0.179834
C156  C     C_R   0.050663 0.308417 0.421877 -0.230871
C157  C     C_R   0.485420 0.066409 0.465886 0.033251
C158  C     C_R   0.540951 0.937682 0.450466 0.030995
C159  C     C_R   0.527038 0.065527 0.488835 0.041844
C160  C     C_R   0.495335 0.937041 0.437039 0.030058
C161  C     C_R   0.986554 0.566935 0.461465 0.030379
C162  C     C_R   0.038505 0.436944 0.455799 0.035413
C163  C     C_R   0.027982 0.566269 0.484986 0.030719
C164  C     C_R   0.993473 0.436492 0.441027 0.031029
C165  C     C_R   0.967352 0.501610 0.444044 -0.054197
C166  C     C_R   0.054447 0.501271 0.481531 -0.051378
C167  C     C_R   0.467417 0.001534 0.445078 -0.055700
C168  C     C_R   0.555213 0.001139 0.480720 -0.053466
C169  C     C_R   0.897363 0.434791 0.427941 0.055151
C170  C     C_R   0.112178 0.565134 0.530465 0.059720
C171  C     C_R   0.127315 0.436821 0.489850 0.054262
C172  C     C_R   0.895880 0.567472 0.433661 0.053863
C173  C     C_R   0.397790 0.934751 0.427723 0.054372
C174  C     C_R   0.612144 0.064455 0.531760 0.064227
C175  C     C_R   0.629202 0.937337 0.485983 0.050474
C176  C     C_R   0.395311 0.067369 0.436685 0.051036
C177  C     C_R   0.843912 0.435097 0.438654 -0.121091
C178  C     C_R   0.159380 0.564387 0.541790 -0.114637
C179  C     C_R   0.168242 0.436869 0.516706 -0.099656
C180  C     C_R   0.843391 0.565722 0.440497 -0.116174
C181  C     C_R   0.344123 0.934993 0.438879 -0.116070
C182  C     C_R   0.659555 0.064077 0.542213 -0.110138
C183  C     C_R   0.669332 0.936978 0.514509 -0.103050
C184  C     C_R   0.343162 0.065586 0.442175 -0.117960
C185  C     C_R   0.819481 0.500213 0.439604 -0.297375
C186  C     C_R   0.183034 0.499864 0.542781 -0.313485
C187  C     C_R   0.319522 0.000108 0.440466 -0.299204
C188  C     C_R   0.683629 0.999679 0.542045 -0.312671
H1    H     H_    0.072519 0.258379 0.414180 0.164245
H2    H     H_    0.964655 0.749436 0.472530 0.139910
H3    H     H_    0.990842 0.256228 0.397193 0.138395
H4    H     H_    0.030415 0.746806 0.528092 0.138953
H5    H     H_    0.582154 0.763456 0.388171 0.127548
H6    H     H_    0.459638 0.248081 0.487090 0.135247
H7    H     H_    0.499170 0.760100 0.375084 0.135354
H8    H     H_    0.525042 0.244357 0.543264 0.130682
H9    H     H_    0.778915 0.499883 0.447481 0.196181
H10   H     H_    0.216121 0.499503 0.558359 0.194346
H11   H     H_    0.279048 0.999772 0.447951 0.197783
H12   H     H_    0.716568 0.999275 0.557984 0.192562
H13   H     H_    0.140961 0.329278 0.425302 0.177177
H14   H     H_    0.914757 0.684040 0.411255 0.177684
H15   H     H_    0.917150 0.320713 0.393133 0.173576
H16   H     H_    0.084476 0.675998 0.575808 0.176258
H17   H     H_    0.645666 0.831697 0.417178 0.180869
H18   H     H_    0.414080 0.184321 0.417024 0.180615
H19   H     H_    0.418377 0.821410 0.389462 0.172700
H20   H     H_    0.583514 0.173881 0.581662 0.173611
H21   H     H_    0.615570 0.341520 0.777390 0.189986
H22   H     H_    0.385051 0.659704 0.222551 0.187931
H23   H     H_    0.385465 0.339675 0.221684 0.189685
H24   H     H_    0.614012 0.660828 0.778582 0.190751
H25   H     H_    0.113572 0.839636 0.776317 0.190486
H26   H     H_    0.886954 0.164690 0.220149 0.187224
H27   H     H_    0.885818 0.839904 0.221987 0.190511
H28   H     H_    0.112912 0.162726 0.780080 0.189202
H29   H     H_    0.572782 0.344072 0.092084 0.174795
H30   H     H_    0.425876 0.664629 0.913287 0.170931
H31   H     H_    0.430494 0.336912 0.907911 0.166534
H32   H     H_    0.574591 0.657983 0.090955 0.165756
H33   H     H_    0.065790 0.814405 0.082112 0.158411
H34   H     H_    0.922158 0.164808 0.914346 0.164168
H35   H     H_    0.926235 0.840795 0.909311 0.169628
H36   H     H_    0.136800 0.054886 0.019274 0.185503
H37   H     H_    0.619991 0.314893 0.167932 0.189709
H38   H     H_    0.378152 0.691861 0.836459 0.210462
H39   H     H_    0.380349 0.317900 0.829778 0.193387
H40   H     H_    0.626285 0.678354 0.164181 0.178740
H41   H     H_    0.107943 0.766764 0.160846 0.218263
H42   H     H_    0.870219 0.185466 0.840397 0.182525
H43   H     H_    0.875161 0.818517 0.835519 0.201340
H44   H     H_    0.178536 0.093928 0.104756 0.185506
H45   H     H_    0.748934 0.157611 0.735549 0.187642
H46   H     H_    0.200443 0.723562 0.307829 0.207910
H47   H     H_    0.205845 0.241583 0.293024 0.199300
H48   H     H_    0.754475 0.837382 0.735498 0.197314
H49   H     H_    0.298223 0.793506 0.693646 0.197835
H50   H     H_    0.699880 0.204557 0.314100 0.190578
H51   H     H_    0.751242 0.658796 0.260680 0.188182
H52   H     H_    0.249694 0.340109 0.740830 0.190777
O1    O     O_R   0.746490 0.236330 0.638080 -0.639115
O2    O     O_R   0.253510 0.763670 0.361920 -0.645054
O3    O     O_R   0.253510 0.236330 0.361920 -0.654424
O4    O     O_R   0.746490 0.763670 0.638080 -0.632488
O5    O     O_R   0.246490 0.736330 0.638080 -0.632058
O6    O     O_R   0.753510 0.263670 0.361920 -0.641968
O7    O     O_R   0.753510 0.736330 0.361920 -0.656582
O8    O     O_R   0.246490 0.263670 0.638080 -0.630336
O9    O     O_R   0.674170 0.186160 0.516270 -0.654361
O10   O     O_R   0.325830 0.813840 0.483730 -0.641290
O11   O     O_R   0.325830 0.186160 0.483730 -0.639326
O12   O     O_R   0.674170 0.813840 0.516270 -0.643701
O13   O     O_R   0.174170 0.686160 0.516270 -0.647915
O14   O     O_R   0.825830 0.313840 0.483730 -0.631527
O15   O     O_R   0.825830 0.686160 0.483730 -0.636918
O16   O     O_R   0.174170 0.313840 0.516270 -0.649917
O17   O     O_R   0.739960 0.127620 0.525000 -0.630806
O18   O     O_R   0.260040 0.872380 0.475000 -0.626750
O19   O     O_R   0.260040 0.127620 0.475000 -0.622520
O20   O     O_R   0.739960 0.872380 0.525000 -0.632345
O21   O     O_R   0.239960 0.627620 0.525000 -0.620918
O22   O     O_R   0.760040 0.372380 0.475000 -0.620696
O23   O     O_R   0.760040 0.627620 0.475000 -0.631724
O24   O     O_R   0.239960 0.372380 0.525000 -0.633764
O25   O     O_R   0.680700 0.294870 0.629350 -0.626039
O26   O     O_R   0.319300 0.705130 0.370650 -0.633497
O27   O     O_R   0.319300 0.294870 0.370650 -0.633423
O28   O     O_R   0.680700 0.705130 0.629350 -0.617195
O29   O     O_R   0.180700 0.794870 0.629350 -0.632463
O30   O     O_R   0.819300 0.205130 0.370650 -0.633313
O31   O     O_R   0.819300 0.794870 0.370650 -0.632715
O32   O     O_R   0.180700 0.205130 0.629350 -0.618278
O33   O     O_R   0.062020 0.072840 0.007170 -0.633158
O34   O     O_R   0.937980 0.927160 0.992830 -0.623623
O35   O     O_R   0.937980 0.072840 0.992830 -0.617615
O36   O     O_R   0.062020 0.927160 0.007170 -0.630184
O37   O     O_R   0.562020 0.572840 0.007170 -0.622422
O38   O     O_R   0.437980 0.427160 0.992830 -0.620595
O39   O     O_R   0.437980 0.572840 0.992830 -0.621432
O40   O     O_R   0.562020 0.427160 0.007170 -0.626011
O41   O     O_R   0.947860 0.073950 0.109290 -0.608081
O42   O     O_R   0.052140 0.926050 0.890710 -0.624340
O43   O     O_R   0.052140 0.073950 0.890710 -0.624243
O44   O     O_R   0.947860 0.926050 0.109290 -0.620767
O45   O     O_R   0.447860 0.573950 0.109290 -0.618516
O46   O     O_R   0.552140 0.426050 0.890710 -0.621047
O47   O     O_R   0.552140 0.573950 0.890710 -0.619938
O48   O     O_R   0.447860 0.426050 0.109290 -0.619911
Zn1   Zn    Zn3+2 0.792340 0.208750 0.507670 0.925202
Zn2   Zn    Zn3+2 0.207660 0.791250 0.492330 0.932901
Zn3   Zn    Zn3+2 0.207660 0.208750 0.492330 0.943153
Zn4   Zn    Zn3+2 0.792340 0.791250 0.507670 0.947786
Zn5   Zn    Zn3+2 0.292340 0.708750 0.507670 0.950493
Zn6   Zn    Zn3+2 0.707660 0.291250 0.492330 0.922307
Zn7   Zn    Zn3+2 0.707660 0.708750 0.492330 0.924267
Zn8   Zn    Zn3+2 0.292340 0.291250 0.507670 0.947784
Zn9   Zn    Zn3+2 0.505960 0.500000 0.080520 0.929853
Zn10  Zn    Zn3+2 0.494040 0.500000 0.919480 0.934921
Zn11  Zn    Zn3+2 0.005960 0.000000 0.080520 0.932667
Zn12  Zn    Zn3+2 0.994040 0.000000 0.919480 0.936023
O49   O     O_3   0.813017 0.121241 0.799410 -0.635647
C189  C     C_3   0.849266 0.131364 0.706772 -0.379338
H53   H     H_    0.859788 0.189532 0.688778 0.167947
H54   H     H_    0.832612 0.106734 0.665505 0.178787
H55   H     H_    0.887593 0.102655 0.689632 0.192968
O50   O     O_3   0.145440 0.782266 0.247256 -0.632318
C190  C     C_3   0.150777 0.856974 0.259538 -0.340631
H56   H     H_    0.169848 0.886548 0.194280 0.170098
H57   H     H_    0.174304 0.866327 0.295701 0.175185
H58   H     H_    0.109685 0.879929 0.301484 0.190592
O51   O     O_3   0.156186 0.189442 0.218265 -0.628294
C191  C     C_3   0.121927 0.244290 0.216401 -0.333085
H59   H     H_    0.128151 0.253585 0.147541 0.178975
H60   H     H_    0.127661 0.296264 0.244302 0.170954
H61   H     H_    0.079281 0.226326 0.257883 0.195892
O52   O     O_3   0.814542 0.873683 0.800577 -0.643452
C192  C     C_3   0.790039 0.937968 0.847631 -0.268369
H62   H     H_    0.774681 0.932242 0.921235 0.166020
H63   H     H_    0.756720 0.955182 0.834463 0.169124
H64   H     H_    0.821185 0.981472 0.823270 0.242271
O53   O     O_3   0.360273 0.777987 0.761166 -0.629542
C193  C     C_3   0.374638 0.849774 0.769859 -0.316852
H65   H     H_    0.362689 0.862928 0.841014 0.168084
H66   H     H_    0.356489 0.889422 0.742858 0.167294
H67   H     H_    0.419399 0.855360 0.729898 0.200361
O54   O     O_3   0.632842 0.228909 0.252449 -0.604251
C194  C     C_3   0.614809 0.278056 0.325333 -0.359154
H68   H     H_    0.637835 0.330211 0.306158 0.149016
H69   H     H_    0.616622 0.253039 0.383077 0.187359
H70   H     H_    0.571680 0.291123 0.348114 0.192279
O55   O     O_3   0.689976 0.618660 0.190614 -0.602343
C195  C     C_3   0.656993 0.613761 0.284919 -0.370152
H71   H     H_    0.644336 0.667737 0.317930 0.142279
H72   H     H_    0.678015 0.582474 0.314591 0.178789
H73   H     H_    0.619494 0.583496 0.299417 0.188183
O56   O     O_3   0.314261 0.374677 0.800666 -0.625489
C196  C     C_3   0.286797 0.436267 0.851522 -0.319569
H74   H     H_    0.273682 0.428728 0.924170 0.171865
H75   H     H_    0.251333 0.449910 0.842337 0.160255
H76   H     H_    0.315092 0.483192 0.827515 0.199565

loop_
_geom_bond_atom_site_label_1
_geom_bond_atom_site_label_2
_ccdc_geom_bond_type
C193  H66   S    
C154  H3    S    
C85   C182  S    
C112  H40   S    
C6    O30   A    
C9    C169  A    
C34   C42   A    
C196  H76   S    
C196  H74   S    
C181  C187  A    
O49   C189  S    
O9    Zn6   S    
C27   C99   A    
O39   Zn10  S    
C170  C178  A    
C139  O39   A    
C42   C109  A    
C24   C96   A    
C149  H8    S    
C108  H36   S    
O1    Zn1   S    
C137  O47   A    
C30   C38   A    
O27   Zn8   S    
O54   C194  S    
C147  C155  A    
C88   O12   A    
O45   Zn9   S    
C143  C151  A    
C90   C177  S    
C11   C167  A    
C82   C98   A    
C76   C84   A    
C73   C81   A    
C161  C163  A    
C132  O56   S    
C162  C164  A    
O3    Zn3   S    
C84   C100  A    
C5    O5    A    
C57   C65   A    
C37   C114  A    
C27   C35   A    
C10   C171  A    
C133  O43   A    
C21   C29   A    
O6    Zn6   S    
C81   C121  A    
O52   C192  S    
C23   C31   A    
C192  H64   S    
C24   C32   A    
C65   H25   S    
C131  O55   S    
C146  C154  A    
O50   C190  S    
C92   O24   A    
C119  H47   S    
C63   C71   A    
C36   C44   A    
C89   O21   A    
O36   Zn11  S    
C91   O23   A    
C194  H69   S    
C176  C184  A    
C48   C96   A    
C26   C34   A    
C6    O6    A    
O56   C196  S    
C15   H15   S    
O44   Zn11  S    
C148  C162  A    
C183  C188  A    
C108  C116  A    
O38   Zn10  S    
C21   C93   A    
C78   C94   A    
C7    O31   A    
C23   C95   A    
C135  O35   A    
C49   C97   A    
C21   C42   A    
C22   C41   A    
C51   C107  A    
O53   C193  S    
C24   C43   A    
C64   H24   S    
C193  H67   S    
C185  H9    S    
C16   H16   S    
C82   C122  A    
C161  C165  A    
C17   C175  A    
C18   C176  A    
O20   Zn4   S    
C85   O9    A    
O47   Zn10  S    
C29   C125  A    
C140  O40   A    
C69   C77   A    
C31   C127  A    
C45   C93   A    
C174  C182  A    
O30   Zn1   S    
C71   C79   A    
O17   Zn1   S    
C179  C186  A    
C87   O11   A    
C62   C70   A    
C11   C176  A    
C91   O15   A    
O26   Zn5   S    
O11   Zn8   S    
C151  H6    S    
C105  C113  A    
C18   C143  A    
C78   C118  A    
C149  C151  A    
C188  H12   S    
C66   C74   A    
C7    O7    A    
C8    C76   S    
C49   C57   A    
C191  H59   S    
C124  C132  A    
C52   C60   A    
C59   C67   A    
C53   C61   A    
C141  C159  A    
C20   C174  A    
C55   C63   A    
C86   C181  S    
C56   C64   A    
C35   C43   A    
C125  O49   S    
C156  H1    S    
C90   O14   A    
C45   C53   A    
O10   Zn5   S    
C130  O54   S    
C116  H44   S    
C22   C94   A    
C171  C179  A    
C169  C177  A    
C123  H51   S    
C189  H54   S    
C50   C98   A    
C133  O33   A    
C195  H71   S    
C110  H38   S    
C104  C112  A    
C145  C163  A    
C146  C164  A    
C14   C147  A    
C52   C100  A    
C134  O44   A    
C16   C145  A    
C178  C186  A    
C129  O53   S    
C25   C38   A    
C54   C139  S    
C46   C94   A    
C117  H45   S    
C27   C40   A    
C10   C166  A    
C91   C180  S    
C62   H22   S    
C182  C188  A    
C89   C178  S    
C2    O2    A    
C60   C68   A    
C25   C97   A    
C67   C75   A    
C136  O42   A    
C22   C30   A    
C20   C141  A    
C63   H23   S    
C15   C146  A    
C113  H41   S    
C58   C135  S    
C68   C76   A    
O24   Zn8   S    
C59   C134  S    
C184  C187  A    
C190  H58   S    
C85   O17   A    
C32   C128  A    
C17   H17   S    
C72   C80   A    
C56   C137  S    
O18   Zn2   S    
C122  H50   S    
C105  H33   S    
C14   H14   S    
C5    C73   S    
C90   O22   A    
C150  H7    S    
C102  H30   S    
C13   C171  A    
C31   C39   A    
O23   Zn7   S    
C140  O46   A    
C117  C125  A    
C4    O4    A    
O16   Zn3   S    
C25   C33   A    
C119  C127  A    
O12   Zn7   S    
O13   Zn2   S    
C195  H73   S    
C157  C167  A    
C30   C126  A    
C158  C168  A    
C164  C165  A    
O21   Zn5   S    
O32   Zn3   S    
C124  H52   S    
O2    Zn2   S    
C40   C115  A    
C101  C109  A    
C177  C185  A    
C103  C111  A    
C192  H63   S    
C86   O18   A    
C162  C166  A    
C79   C119  A    
O48   Zn9   S    
O22   Zn6   S    
C153  C155  A    
C154  C156  A    
C172  C180  A    
C193  H65   S    
C173  C181  A    
C157  C159  A    
C83   C99   A    
C158  C160  A    
O40   Zn9   S    
C74   C82   A    
C196  H75   S    
C6    C74   S    
C47   C103  A    
C141  C149  A    
C190  H56   S    
C50   C58   A    
C163  C166  A    
C3    O27   A    
C147  C161  A    
C38   C113  A    
C49   C105  A    
C54   C62   A    
C28   C39   A    
C1    C69   S    
C23   C44   A    
C187  H11   S    
C66   H26   S    
C3    C71   S    
O55   C195  S    
O33   Zn11  S    
C79   C95   A    
C92   C179  S    
O34   Zn12  S    
C137  O37   A    
C46   C54   A    
C61   H21   S    
C45   C101  A    
C92   O16   A    
C19   C142  A    
C17   C144  A    
C102  C110  A    
C87   O19   A    
C35   C131  A    
O31   Zn4   S    
C4    C72   S    
O35   Zn12  S    
C33   C129  A    
C36   C132  A    
C123  C131  A    
C121  C129  A    
C120  C128  A    
C26   C37   A    
C10   C170  A    
C5    O29   A    
C33   C41   A    
C142  C150  A    
C9    C165  A    
C194  H68   S    
C75   C83   A    
C77   C93   A    
C191  H60   S    
C68   H28   S    
C88   O20   A    
C44   C111  A    
C16   C170  A    
C28   C36   A    
C8    O32   A    
C39   C116  A    
C29   C37   A    
C50   C106  A    
C186  H10   S    
C9    C172  A    
C148  C156  A    
C83   C123  A    
C2    C70   S    
C60   C133  S    
C144  C152  A    
C103  H31   S    
C2    O26   A    
C86   O10   A    
O51   C191  S    
C80   C120  A    
O7    Zn7   S    
C70   C78   A    
C53   C140  S    
C67   H27   S    
C135  O41   A    
O41   Zn11  S    
C139  O45   A    
C19   C173  A    
O42   Zn12  S    
C46   C102  A    
C189  H55   S    
O8    Zn8   S    
C55   C138  S    
C152  H5    S    
C106  C114  A    
C155  H2    S    
C195  H72   S    
C126  O50   S    
C77   C117  A    
C48   C104  A    
C138  O48   A    
C65   C73   A    
C159  C168  A    
C15   C169  A    
C160  C167  A    
C104  H32   S    
C12   C174  A    
O43   Zn12  S    
O4    Zn4   S    
O5    Zn5   S    
C57   C136  S    
C80   C96   A    
O14   Zn1   S    
C115  H43   S    
C145  C153  A    
C28   C100  A    
C32   C40   A    
C52   C108  A    
C89   O13   A    
C8    O8    A    
C19   H19   S    
C136  O36   A    
C58   C66   A    
C143  C157  A    
C107  H35   S    
C51   C99   A    
C11   C173  A    
C14   C172  A    
C87   C184  S    
C109  H37   S    
C88   C183  S    
C7    C75   S    
C128  O52   S    
C190  H57   S    
O15   Zn4   S    
C118  H46   S    
O19   Zn3   S    
C3    O3    A    
C107  C115  A    
C1    O1    A    
C26   C98   A    
C12   C175  A    
O37   Zn9   S    
C41   C110  A    
C134  O34   A    
C150  C152  A    
C51   C59   A    
C43   C112  A    
C20   H20   S    
C144  C158  A    
C47   C55   A    
C61   C69   A    
C48   C56   A    
C189  H53   S    
C175  C183  A    
C4    O28   A    
C142  C160  A    
C114  H42   S    
C194  H70   S    
C84   C124  A    
C127  O51   S    
C18   H18   S    
C111  H39   S    
O28   Zn7   S    
O29   Zn2   S    
C120  H48   S    
C106  H34   S    
C81   C97   A    
C121  H49   S    
O25   Zn6   S    
C191  H61   S    
C13   H13   S    
C64   C72   A    
C192  H62   S    
C180  C185  A    
C101  H29   S    
C1    O25   A    
C34   C130  A    
C12   C168  A    
C47   C95   A    
O46   Zn10  S    
C118  C126  A    
C13   C148  A    
C122  C130  A    
C138  O38   A    
C153  H4    S    
