data_mof_unit_61661.cif
_audit_creation_date              2012-12-10T19:34:16-0500
_audit_creation_method            fapswitch 2.2
_symmetry_space_group_name_H-M    P1
_symmetry_Int_Tables_number       1
_space_group_crystal_system       triclinic
_cell_length_a                    23.450453
_cell_length_b                    23.65725
_cell_length_c                    16.391324
_cell_angle_alpha                 89.826498
_cell_angle_beta                  94.998915
_cell_angle_gamma                 90.068341
_cell_volume                      9058.83389081

loop_
_atom_site_label
_atom_site_type_symbol
_atom_type_description
_atom_site_fract_x
_atom_site_fract_y
_atom_site_fract_z
_atom_type_partial_charge
C1    C     C_R   0.422250 0.074721 0.487388 0.854066
C2    C     C_R   0.462140 0.015569 0.150025 -0.175002
C3    C     C_2   0.124666 0.496687 0.139564 0.940972
C4    C     C_R   0.037907 0.482298 0.849318 -0.173191
C5    C     C_R   0.963474 0.518742 0.150022 -0.175899
C6    C     C_R   0.485866 0.985888 0.884184 0.013755
C7    C     C_R   0.515449 0.014305 0.116085 0.014624
C8    C     C_R   0.984942 0.485920 0.884056 0.015244
C9    C     C_R   0.016461 0.512867 0.116053 0.014144
C10   C     C_R   0.434460 0.991548 0.831742 -0.085009
C11   C     C_R   0.566416 0.007519 0.169038 -0.088967
C12   C     C_R   0.934044 0.495083 0.831711 -0.085485
C13   C     C_R   0.577901 0.925415 0.512669 0.858573
C14   C     C_R   0.066702 0.502176 0.168954 -0.090009
C15   C     C_R   0.438252 0.998186 0.747026 -0.048499
C16   C     C_R   0.561986 0.000716 0.253568 -0.053199
C17   C     C_R   0.938257 0.501534 0.747054 -0.054513
C18   C     C_R   0.061799 0.496102 0.253464 -0.058534
C19   C     C_2   0.485201 0.982354 0.974856 -0.114415
C20   C     C_2   0.516677 0.017569 0.025504 -0.094918
C21   C     C_2   0.984067 0.482611 0.974739 -0.116061
C22   C     C_2   0.017987 0.515662 0.025504 -0.096171
C23   C     C_R   0.366843 0.897152 0.476162 -0.036103
C24   C     C_R   0.575587 0.077169 0.512019 0.858205
C25   C     C_R   0.611915 0.127036 0.518769 -0.043557
C26   C     C_R   0.632328 0.896060 0.524276 -0.039789
C27   C     C_R   0.368043 0.104318 0.475922 -0.036995
C28   C     C_R   0.866836 0.397165 0.476019 -0.035274
C29   C     C_R   0.111887 0.627139 0.518744 -0.044009
C30   C     C_R   0.112528 0.373586 0.519415 -0.035558
C31   C     C_R   0.888265 0.626945 0.480777 -0.044843
C32   C     C_R   0.325483 0.909434 0.530416 -0.202691
C33   C     C_R   0.643581 0.141778 0.453387 -0.199643
C34   C     C_R   0.674394 0.908557 0.471145 -0.193883
C35   C     C_R   0.421854 0.925649 0.487448 0.855973
C36   C     C_R   0.325001 0.090051 0.526608 -0.190534
C37   C     C_R   0.826027 0.408201 0.531590 -0.199968
C38   C     C_R   0.142847 0.642355 0.452837 -0.199827
C39   C     C_R   0.145871 0.360559 0.455323 -0.196334
C40   C     C_R   0.853809 0.639476 0.543786 -0.193939
C41   C     C_R   0.271270 0.886086 0.518228 -0.145105
C42   C     C_R   0.670757 0.193702 0.452856 -0.137551
C43   C     C_R   0.728222 0.884535 0.484007 -0.141476
C44   C     C_R   0.271367 0.114508 0.513652 -0.143832
C45   C     C_R   0.771760 0.385055 0.519327 -0.144031
C46   C     C_R   0.924477 0.577148 0.487830 0.857077
C47   C     C_R   0.170006 0.694286 0.452432 -0.137841
C48   C     C_R   0.173661 0.309064 0.454542 -0.133248
C49   C     C_R   0.826441 0.691206 0.544855 -0.135183
C50   C     C_R   0.258199 0.849302 0.452483 0.186524
C51   C     C_R   0.666069 0.231830 0.517453 0.191965
C52   C     C_R   0.740108 0.846686 0.549112 0.183684
C53   C     C_R   0.260605 0.154116 0.450585 0.185110
C54   C     C_R   0.758170 0.349345 0.452457 0.188064
C55   C     C_R   0.165984 0.732050 0.517656 0.192213
C56   C     C_R   0.167784 0.269556 0.517433 0.186622
C57   C     C_R   0.075658 0.422953 0.512207 0.864657
C58   C     C_R   0.833816 0.731345 0.483299 0.188227
C59   C     C_R   0.298280 0.839524 0.395539 -0.146861
C60   C     C_R   0.637065 0.215918 0.584924 -0.168609
C61   C     C_R   0.699223 0.836507 0.604860 -0.144957
C62   C     C_R   0.302586 0.166291 0.397305 -0.153775
C63   C     C_R   0.797620 0.340958 0.394187 -0.149460
C64   C     C_R   0.137709 0.715654 0.585619 -0.169915
C65   C     C_R   0.137253 0.283854 0.583989 -0.169567
C66   C     C_R   0.865780 0.717711 0.417971 -0.164030
C67   C     C_R   0.352626 0.863377 0.407380 -0.118617
C68   C     C_R   0.075569 0.577214 0.512015 0.860641
C69   C     C_R   0.609778 0.163743 0.585517 -0.158665
C70   C     C_R   0.645315 0.861148 0.592458 -0.117247
C71   C     C_R   0.356416 0.141585 0.410160 -0.159961
C72   C     C_R   0.851930 0.364926 0.405846 -0.122101
C73   C     C_R   0.110502 0.663399 0.586145 -0.155096
C74   C     C_R   0.109438 0.335709 0.584930 -0.136148
C75   C     C_R   0.893286 0.665729 0.416873 -0.160296
C76   C     C_2   0.207990 0.812754 0.450564 -0.231719
C77   C     C_2   0.696187 0.285913 0.519236 -0.223880
C78   C     C_2   0.790052 0.809844 0.551671 -0.230702
C79   C     C_R   0.921839 0.425672 0.487419 0.859484
C80   C     C_2   0.210626 0.190736 0.448525 -0.232737
C81   C     C_2   0.708215 0.312409 0.450388 -0.228398
C82   C     C_2   0.196100 0.786201 0.519433 -0.223368
C83   C     C_2   0.197702 0.215429 0.518018 -0.219694
C84   C     C_2   0.803838 0.785414 0.482406 -0.223138
C85   C     C_R   0.539825 0.995443 0.764824 0.020615
C86   C     C_R   0.460562 0.006042 0.234673 0.018942
C87   C     C_R   0.039412 0.491974 0.764731 0.017252
C88   C     C_R   0.961199 0.510113 0.234769 0.014127
C89   C     C_2   0.408594 0.029568 0.097910 0.967045
C90   C     C_R   0.538980 0.985866 0.849514 -0.171044
C91   C     C_2   0.593302 0.972826 0.900389 0.952881
C92   C     C_2   0.911146 0.536267 0.097754 0.971094
C93   C     C_2   0.091219 0.465699 0.900066 0.956010
C94   C     C_2   0.595299 0.998776 0.729274 1.023204
C95   C     C_2   0.404794 0.004464 0.269479 1.013350
C96   C     C_2   0.094998 0.491681 0.729135 1.024538
C97   C     C_2   0.905703 0.514644 0.270024 1.013522
C98   C     C_2   0.376341 0.991231 0.861652 0.915454
C99   C     C_2   0.624692 0.006956 0.139758 0.940079
C100  C     C_2   0.876072 0.498753 0.861704 0.914462
H1    H     H_    0.334866 0.937490 0.581994 0.153626
H2    H     H_    0.383780 0.854592 0.364044 0.177251
H3    H     H_    0.389081 0.152059 0.369767 0.182935
H4    H     H_    0.613554 0.852183 0.634928 0.172677
H5    H     H_    0.086628 0.652421 0.637607 0.190858
H6    H     H_    0.882529 0.357394 0.361253 0.172202
H7    H     H_    0.920317 0.656944 0.368133 0.192045
H8    H     H_    0.083633 0.345047 0.634880 0.182937
H9    H     H_    0.215055 0.800337 0.578750 0.159938
H10   H     H_    0.689685 0.297918 0.391069 0.158108
H11   H     H_    0.786725 0.801227 0.422962 0.161536
H12   H     H_    0.646444 0.113612 0.401893 0.159025
H13   H     H_    0.215480 0.199617 0.577168 0.162759
H14   H     H_    0.714908 0.300038 0.578666 0.158905
H15   H     H_    0.189301 0.798420 0.391258 0.157801
H16   H     H_    0.193148 0.206751 0.389401 0.158620
H17   H     H_    0.807079 0.793590 0.610895 0.158449
H18   H     H_    0.288625 0.810913 0.344693 0.138526
H19   H     H_    0.634625 0.244316 0.636241 0.145009
H20   H     H_    0.707946 0.807131 0.655239 0.137490
H21   H     H_    0.294723 0.197222 0.348747 0.142835
H22   H     H_    0.787530 0.313341 0.342301 0.137516
H23   H     H_    0.665894 0.937411 0.420071 0.163771
H24   H     H_    0.135822 0.743712 0.637437 0.143573
H25   H     H_    0.133895 0.254399 0.634094 0.143813
H26   H     H_    0.870437 0.747752 0.368962 0.144620
H27   H     H_    0.695863 0.203431 0.402268 0.134189
H28   H     H_    0.240293 0.895010 0.561773 0.140207
H29   H     H_    0.238970 0.104081 0.554498 0.142278
H30   H     H_    0.759843 0.893950 0.441523 0.142826
H31   H     H_    0.194600 0.704262 0.401401 0.134455
H32   H     H_    0.741203 0.393236 0.563744 0.141239
H33   H     H_    0.799165 0.699302 0.593480 0.137425
H34   H     H_    0.332666 0.059583 0.575842 0.156984
H35   H     H_    0.199993 0.300657 0.404935 0.138698
H36   H     H_    0.600052 0.997209 0.295643 0.164381
H37   H     H_    0.399921 0.000799 0.705314 0.161768
H38   H     H_    0.099466 0.489465 0.295429 0.169462
H39   H     H_    0.900177 0.506752 0.705417 0.165975
H40   H     H_    0.542574 0.050034 0.999823 0.202475
H41   H     H_    0.459339 0.949942 0.000710 0.200928
H42   H     H_    0.046197 0.546127 0.999970 0.201981
H43   H     H_    0.955887 0.452243 0.000514 0.200374
H44   H     H_    0.369543 0.080415 0.011181 0.357748
H45   H     H_    0.835830 0.435204 0.584245 0.159448
H46   H     H_    0.676008 0.992921 0.931270 0.369453
H47   H     H_    0.876026 0.589067 0.010470 0.357600
H48   H     H_    0.175103 0.480289 0.931061 0.371064
H49   H     H_    0.658920 0.048588 0.695269 0.341149
H50   H     H_    0.334896 0.047529 0.296483 0.348125
H51   H     H_    0.160458 0.537409 0.691600 0.340372
H52   H     H_    0.840388 0.564930 0.296106 0.346609
H53   H     H_    0.293668 0.015195 0.841790 0.353918
H54   H     H_    0.706844 0.981414 0.160034 0.352168
H55   H     H_    0.795334 0.528477 0.842296 0.355353
H56   H     H_    0.145204 0.614543 0.400833 0.161617
H57   H     H_    0.204222 0.464082 0.159203 0.353733
H58   H     H_    0.149527 0.389729 0.404934 0.169236
H59   H     H_    0.848905 0.609680 0.593045 0.166160
H60   H     H_    0.585209 0.153208 0.636433 0.195371
N1    N     N_R   0.489810 1.000000 0.715580 -0.144910
N2    N     N_R   0.510190 1.000000 0.284420 -0.142532
N3    N     N_R   0.989810 0.500000 0.715580 -0.144368
N4    N     N_R   0.010190 0.500000 0.284420 -0.141772
O1    O     O_R   0.445750 0.057890 0.422600 -0.601710
O2    O     O_R   0.560780 0.942100 0.438960 -0.618468
O3    O     O_R   0.560780 0.057900 0.438960 -0.624713
O4    O     O_R   0.439220 0.942100 0.561040 -0.626540
O5    O     O_R   0.939220 0.557900 0.561040 -0.620644
O6    O     O_R   0.060780 0.442100 0.438960 -0.621458
O7    O     O_R   0.060780 0.557900 0.438960 -0.623536
O8    O     O_R   0.939220 0.442100 0.561040 -0.627060
O9    O     O_2   0.365349 0.001155 0.102240 -0.569749
O10   O     O_R   0.408047 0.075281 0.043546 -0.780065
O11   O     O_2   0.595542 0.932285 0.947049 -0.594602
O12   O     O_R   0.554250 0.942110 0.577400 -0.596454
O13   O     O_R   0.641732 0.006666 0.894633 -0.756722
O14   O     O_2   0.865862 0.511263 0.102453 -0.571150
O15   O     O_R   0.914049 0.581351 0.042879 -0.780682
O16   O     O_2   0.090713 0.425095 0.946379 -0.594758
O17   O     O_R   0.141819 0.496287 0.894595 -0.757313
O18   O     O_2   0.622088 0.955570 0.718501 -0.642630
O19   O     O_R   0.619952 0.051587 0.717279 -0.778552
O20   O     O_2   0.383183 0.958994 0.284152 -0.613392
O21   O     O_R   0.373863 0.054400 0.275911 -0.810191
O22   O     O_2   0.119858 0.446945 0.720779 -0.639956
O23   O     O_R   0.554250 0.057890 0.577400 -0.595147
O24   O     O_R   0.121758 0.542880 0.713593 -0.776756
O25   O     O_2   0.881230 0.471997 0.290509 -0.609066
O26   O     O_R   0.878926 0.567275 0.272649 -0.812717
O27   O     O_2   0.367073 0.966196 0.924427 -0.600780
O28   O     O_R   0.331271 0.018572 0.815948 -0.821860
O29   O     O_2   0.634732 0.032302 0.077575 -0.620435
O30   O     O_R   0.669031 0.978504 0.185415 -0.815292
O31   O     O_2   0.865072 0.474316 0.924189 -0.601239
O32   O     O_R   0.833057 0.529258 0.816420 -0.821270
O33   O     O_2   0.136874 0.521323 0.077841 -0.619994
O34   O     O_R   0.445750 0.942110 0.422600 -0.583805
O35   O     O_R   0.166320 0.464358 0.184616 -0.813917
O36   O     O_R   0.945750 0.557890 0.422600 -0.610186
O37   O     O_R   0.054250 0.442110 0.577400 -0.603770
O38   O     O_R   0.054250 0.557890 0.577400 -0.589987
O39   O     O_R   0.945750 0.442110 0.422600 -0.578608
O40   O     O_R   0.439220 0.057900 0.561040 -0.619695
Zn1   Zn    Zn3+2 0.504350 0.000000 0.407560 0.976857
Zn2   Zn    Zn3+2 0.495650 1.000000 0.592440 0.972093
Zn3   Zn    Zn3+2 0.004350 0.500000 0.407560 0.975947
Zn4   Zn    Zn3+2 0.995650 0.500000 0.592440 0.970624

loop_
_geom_bond_atom_site_label_1
_geom_bond_atom_site_label_2
_ccdc_geom_bond_type
C61   C70   A    
C13   O12   A    
C87   N3    A    
C75   H7    S    
C34   H23   S    
H49   O19   S    
C85   N1    A    
C83   H13   S    
C48   H35   S    
C2    C7    A    
C89   O9    D    
C4    C8    A    
C69   H60   S    
H50   O21   S    
C90   C91   S    
C4    C87   A    
C7    C11   A    
C6    C19   S    
C99   O30   S    
C24   O23   A    
C33   C42   A    
O3    Zn1   S    
C50   C76   S    
C52   C61   A    
C30   C74   A    
C68   O7    A    
C70   H4    S    
C43   C52   A    
C29   C73   A    
C54   C63   A    
C66   C75   A    
C23   C67   A    
C40   C49   A    
C30   C57   S    
N3    Zn4   S    
C76   H15   S    
C31   C40   A    
C60   H19   S    
C11   C99   S    
C11   C16   A    
O12   Zn2   S    
C18   H38   S    
C28   C79   S    
C96   O24   S    
C64   C73   A    
H52   O26   S    
H55   O32   S    
C17   N3    A    
C59   C67   A    
C5    C88   A    
C93   O17   S    
C44   C53   A    
C58   C66   A    
C80   H16   S    
H48   O17   S    
C31   C46   S    
C29   C38   A    
C30   C39   A    
C3    O35   S    
C32   C41   A    
H47   O15   S    
C86   N2    A    
O2    Zn1   S    
C38   H56   S    
C88   C97   S    
C42   C51   A    
C85   C94   S    
C97   O25   D    
C19   H41   S    
O38   Zn4   S    
C21   C22   D    
C87   C96   S    
O34   Zn1   S    
C41   H28   S    
C28   C72   A    
C18   N4    A    
C89   O10   S    
O5    Zn4   S    
C80   C83   D    
C52   C78   S    
C93   O16   D    
C26   C34   A    
C35   O4    A    
C100  O32   S    
H51   O24   S    
C84   H11   S    
C68   O38   A    
C5    C92   S    
C82   H9    S    
C96   O22   D    
N1    Zn2   S    
O8    Zn4   S    
C24   O3    A    
C24   C25   S    
C21   H43   S    
C98   O28   S    
C76   C82   D    
C53   C80   S    
C16   N2    A    
C44   H29   S    
C88   N4    A    
O39   Zn3   S    
C49   C58   A    
C66   H26   S    
H46   O13   S    
C47   H31   S    
H57   O35   S    
C65   H25   S    
C79   O8    A    
C12   C17   A    
C2    C89   S    
C9    C14   A    
C51   C77   S    
C5    C9    A    
C92   O15   S    
C58   C84   S    
C29   C68   S    
C53   C62   A    
C31   C75   A    
C1    O1    A    
C8    C12   A    
C55   C64   A    
C22   H42   S    
C8    C21   S    
C91   O11   D    
C17   H39   S    
C33   H12   S    
C81   H10   S    
C55   C82   S    
C38   C47   A    
C3    C14   S    
C92   O14   D    
C42   H27   S    
C60   C69   A    
C97   O26   S    
O40   Zn2   S    
C45   C54   A    
C7    C20   S    
O36   Zn3   S    
C23   C35   S    
N2    Zn1   S    
C61   H20   S    
C26   C70   A    
O4    Zn2   S    
C13   C26   S    
C36   C44   A    
C25   C69   A    
C94   O19   S    
C50   C59   A    
O7    Zn3   S    
C77   H14   S    
C16   H36   S    
C41   C50   A    
C63   H22   S    
C27   C71   A    
C95   O21   S    
C56   C83   S    
C47   C55   A    
C57   O6    A    
C100  O31   D    
C48   C56   A    
C49   H33   S    
C40   H59   S    
C14   C18   A    
C15   N1    A    
C43   H30   S    
C34   C43   A    
C72   H6    S    
C98   O27   D    
N4    Zn3   S    
C36   H34   S    
C6    C10   A    
C85   C90   A    
C27   C36   A    
C59   H18   S    
C10   C98   S    
C99   O29   D    
C79   O39   A    
C46   O5    A    
C73   H5    S    
C10   C15   A    
C23   C32   A    
C20   H40   S    
C19   C20   D    
C95   O20   D    
O6    Zn3   S    
C39   H58   S    
C64   H24   S    
C13   O2    A    
O1    Zn1   S    
C28   C37   A    
C46   O36   A    
C91   O13   S    
O23   Zn2   S    
C3    O33   D    
O37   Zn4   S    
C62   C71   A    
C2    C86   A    
C54   C81   S    
C78   H17   S    
C9    C22   S    
C12   C100  S    
C71   H3    S    
C86   C95   S    
C65   C74   A    
C74   H8    S    
C4    C93   S    
H54   O30   S    
C78   C84   D    
C6    C90   A    
C63   C72   A    
C67   H2    S    
C45   H32   S    
C77   C81   D    
H44   O10   S    
C1    C27   S    
C32   H1    S    
C51   C60   A    
C94   O18   D    
C37   H45   S    
C1    O40   A    
C37   C45   A    
C62   H21   S    
C56   C65   A    
C35   O34   A    
C25   C33   A    
C39   C48   A    
C15   H37   S    
H53   O28   S    
C57   O37   A    
