data_mof_unit_10047.cif
_audit_creation_date              2012-12-10T19:33:55-0500
_audit_creation_method            fapswitch 2.2
_symmetry_space_group_name_H-M    P1
_symmetry_Int_Tables_number       1
_space_group_crystal_system       triclinic
_cell_length_a                    11.022761
_cell_length_b                    15.949262
_cell_length_c                    17.030719
_cell_angle_alpha                 96.82909
_cell_angle_beta                  95.07516
_cell_angle_gamma                 79.51856
_cell_volume                      2916.38003669

loop_
_atom_site_label
_atom_site_type_symbol
_atom_type_description
_atom_site_fract_x
_atom_site_fract_y
_atom_site_fract_z
_atom_type_partial_charge
C1    C     C_R   0.500539 0.488976 0.348750 0.869938
C2    C     C_R   0.493659 0.108010 0.469428 0.105849
C3    C     C_R   0.643935 0.821835 0.513049 0.201576
C4    C     C_R   0.448174 0.160196 0.408638 0.198057
C5    C     C_R   0.622610 0.742192 0.537155 0.391958
C6    C     C_R   0.423058 0.250778 0.425908 0.375069
C7    C     C_R   0.265090 0.535117 0.502015 0.855751
C8    C     C_R   0.735149 0.465231 0.499279 0.875304
C9    C     C_2   0.130623 0.555448 0.498690 -0.279296
C10   C     C_2   0.869965 0.447012 0.506090 -0.310227
C11   C     C_2   0.066017 0.498401 0.517243 -0.057397
C12   C     C_R   0.495982 0.511764 0.651673 0.861087
C13   C     C_2   0.932998 0.509666 0.499262 -0.064049
C14   C     C_R   0.497528 0.481662 0.262208 -0.081853
C15   C     C_R   0.481032 0.521669 0.738216 -0.089100
C16   C     C_R   0.427743 0.548037 0.222873 -0.248072
C17   C     C_R   0.455790 0.451840 0.772645 -0.262511
C18   C     C_R   0.419157 0.542080 0.140952 -0.143462
C19   C     C_R   0.443355 0.456997 0.853254 -0.158871
C20   C     C_R   0.481276 0.469412 0.096128 0.239072
C21   C     C_R   0.454414 0.532899 0.902402 0.265410
C22   C     C_R   0.548470 0.400093 0.134976 0.294486
C23   C     C_R   0.559528 0.407735 0.218969 0.018660
C24   C     C_R   0.469609 0.606595 0.868625 0.342371
C25   C     C_R   0.485068 0.600502 0.786180 0.009690
C26   C     C_R   0.425595 0.761405 0.465016 0.142397
C27   C     C_R   0.548981 0.237699 0.545683 0.150471
C28   C     C_R   0.441213 0.842909 0.445545 0.174089
C29   C     C_R   0.539600 0.149165 0.541089 0.203991
C30   C     C_R   0.547610 0.877212 0.475787 0.131817
Cu1   Cu    Cu3+1 0.494060 0.416090 0.496220 1.023178
Cu2   Cu    Cu3+1 0.505940 0.583910 0.503780 1.023820
H1    H     H_    0.885797 0.570421 0.479831 0.213113
H2    H     H_    0.302602 0.370045 0.289815 0.361101
H3    H     H_    0.475268 0.281594 0.994777 0.358149
H4    H     H_    0.443890 0.758628 0.050158 0.402709
H5    H     H_    0.600533 0.287731 0.253774 0.301833
H6    H     H_    0.726271 0.331968 0.240167 0.283425
H7    H     H_    0.425346 0.720117 0.752897 0.275896
H8    H     H_    0.579542 0.698083 0.781678 0.305848
H9    H     H_    0.681122 0.308693 0.591460 0.258690
H10   H     H_    0.569499 0.303126 0.654376 0.255882
H11   H     H_    0.323236 0.678722 0.399966 0.268096
H12   H     H_    0.112017 0.442147 0.544857 0.201201
H13   H     H_    0.256171 0.737269 0.485007 0.258844
H14   H     H_    0.414577 0.046159 0.631868 0.351137
H15   H     H_    0.204328 0.958624 0.447666 0.347097
H16   H     H_    0.890018 0.944636 0.484050 0.384140
H17   H     H_    0.562848 0.017198 0.238486 0.402863
H18   H     H_    0.917298 0.384425 0.521084 0.178629
H19   H     H_    0.084362 0.614911 0.476208 0.185988
H20   H     H_    0.444602 0.392524 0.737298 0.189645
H21   H     H_    0.378444 0.604483 0.255709 0.192845
H22   H     H_    0.425257 0.400974 0.877286 0.210764
H23   H     H_    0.363537 0.594778 0.112671 0.226895
H24   H     H_    0.772035 0.600503 0.695055 0.365064
N1    N     N_2   0.480577 0.465431 0.012360 -0.177136
N2    N     N_3   0.310613 0.735709 0.437527 -0.488375
N3    N     N_2   0.451718 0.536488 0.985835 -0.147375
N4    N     N_R   0.514860 0.709950 0.509460 -0.266186
N5    N     N_R   0.485140 0.290050 0.490540 -0.268835
N6    N     N_2   0.564914 0.964838 0.471394 -0.006335
N7    N     N_2   0.470452 0.020941 0.462978 -0.075597
N8    N     N_3   0.638128 0.343837 0.261593 -0.533683
N9    N     N_3   0.505269 0.673579 0.750799 -0.470630
N10   N     N_3   0.624924 0.270427 0.610328 -0.475291
O1    O     O_R   0.494450 0.421340 0.382530 -0.529069
O2    O     O_2   0.710821 0.767698 0.686835 -0.221441
O3    O     O_3   0.712236 0.607664 0.648357 -0.517361
O4    O     O_2   0.215442 0.241725 0.327001 -0.189237
O5    O     O_2   0.193315 0.323011 0.454543 -0.294028
O6    O     O_3   0.277271 0.390549 0.344154 -0.505507
O7    O     O_2   0.756916 0.319813 0.071438 -0.194296
O8    O     O_2   0.629687 0.227763 0.117660 -0.233068
O9    O     O_3   0.557930 0.293894 0.986671 -0.460027
O10   O     O_2   0.612340 0.715043 0.941596 -0.240065
O11   O     O_2   0.405884 0.779294 0.891041 -0.244564
O12   O     O_R   0.505550 0.578660 0.617470 -0.481155
O13   O     O_3   0.424276 0.705495 0.019338 -0.499506
O14   O     O_2   0.719378 0.051091 0.621255 -0.146255
O15   O     O_2   0.572478 0.151375 0.700997 -0.234432
O16   O     O_3   0.500829 0.015205 0.629211 -0.478255
O17   O     O_2   0.420866 0.915169 0.311232 -0.166102
O18   O     O_2   0.262136 0.831690 0.323180 -0.225882
O19   O     O_3   0.247342 0.978915 0.406821 -0.440911
O20   O     O_2   0.839548 0.866405 0.605931 -0.141903
O21   O     O_2   0.883108 0.775407 0.481418 -0.279125
O22   O     O_3   0.803112 0.935710 0.474303 -0.458354
O23   O     O_R   0.504470 0.563060 0.388920 -0.608117
O24   O     O_2   0.325725 0.077581 0.289325 -0.109333
O25   O     O_2   0.446162 0.180643 0.254241 -0.279892
O26   O     O_3   0.566033 0.035567 0.296165 -0.453925
O27   O     O_R   0.495530 0.436940 0.611080 -0.630089
O28   O     O_R   0.317520 0.455180 0.497990 -0.495079
O29   O     O_R   0.682480 0.544820 0.502010 -0.529631
O30   O     O_R   0.327540 0.596900 0.504370 -0.620970
O31   O     O_R   0.672460 0.403100 0.495630 -0.595050
O32   O     O_2   0.858836 0.688314 0.595953 -0.248852
S1    S     S_3+6 0.727109 0.700425 0.617073 0.092238
S2    S     S_3+6 0.275302 0.301274 0.386832 0.095405
S3    S     S_3+6 0.626405 0.307751 0.078394 0.081285
S4    S     S_3+6 0.478971 0.704495 0.930055 0.057022
S5    S     S_3+6 0.585916 0.091989 0.625638 0.112069
S6    S     S_3+6 0.341057 0.891028 0.368729 0.114049
S7    S     S_3+6 0.796088 0.849166 0.520344 0.132557
S8    S     S_3+6 0.442590 0.113883 0.308908 0.137236

loop_
_geom_bond_atom_site_label_1
_geom_bond_atom_site_label_2
_ccdc_geom_bond_type
C27   C29   A    
Cu1   N5    S    
C9    H19   S    
C3    S7    S    
Cu1   O1    S    
C7    O30   A    
H3    O9    S    
C22   S3    S    
C2    C29   A    
H15   O19   S    
C6    N5    A    
C19   C21   A    
C21   N3    S    
O15   S5    D    
C15   C25   A    
C29   S5    S    
C15   C17   A    
C16   H21   S    
C27   N5    A    
H11   N2    S    
C1    O1    A    
H14   O16   S    
Cu1   Cu2   S    
C12   O12   A    
O16   S5    S    
H16   O22   S    
O13   S4    S    
C24   S4    S    
O7    S3    D    
H7    N9    S    
O25   S8    D    
O11   S4    D    
C8    O29   A    
C17   H20   S    
O4    S2    D    
H6    N8    S    
O10   S4    D    
H13   N2    S    
O17   S6    D    
O14   S5    D    
C5    S1    S    
C25   N9    S    
C24   C25   A    
O24   S8    D    
C4    C6    A    
Cu1   O27   S    
C4    S8    S    
C10   C13   D    
C6    S2    S    
C14   C23   A    
C3    C30   A    
C2    C4    A    
C8    O31   A    
C13   H1    S    
N6    N7    D    
C9    C11   D    
C28   S6    S    
Cu2   O23   S    
O21   S7    D    
C12   C15   S    
C11   H12   S    
C16   C18   A    
C26   N2    S    
O19   S6    S    
C18   H23   S    
O8    S3    D    
O3    S1    S    
C19   H22   S    
O26   S8    S    
C23   N8    S    
Cu2   O30   S    
C20   C22   A    
H24   O3    S    
H8    N9    S    
C30   N6    S    
O18   S6    D    
C14   C16   A    
C12   O27   A    
O20   S7    D    
Cu2   N4    S    
H17   O26   S    
C10   H18   S    
H2    O6    S    
H5    N8    S    
C2    N7    S    
O9    S3    S    
O6    S2    S    
C7    C9    S    
C7    O28   A    
C1    O23   A    
C5    N4    A    
C3    C5    A    
H4    O13   S    
H9    N10   S    
Cu1   O28   S    
O5    S2    D    
C26   C28   A    
C28   C30   A    
O2    S1    D    
C27   N10   S    
O22   S7    S    
C11   C13   S    
C17   C19   A    
C18   C20   A    
Cu1   O31   S    
N1    N3    D    
Cu2   O12   S    
Cu2   O29   S    
C8    C10   S    
O32   S1    D    
C21   C24   A    
H10   N10   S    
C22   C23   A    
C1    C14   S    
C20   N1    S    
C26   N4    A    
