data_mof_unit_39527.cif
_audit_creation_date              2013-03-05T15:46:33-0500
_audit_creation_method            fapswitch 2.2
_symmetry_space_group_name_H-M    P1
_symmetry_Int_Tables_number       1
_space_group_crystal_system       triclinic
_cell_length_a                    17.561086
_cell_length_b                    24.585859
_cell_length_c                    15.127039
_cell_angle_alpha                 90.077896
_cell_angle_beta                  125.491745
_cell_angle_gamma                 90.145171
_cell_volume                      5317.62028922

loop_
_atom_site_label
_atom_site_type_symbol
_atom_site_description
_atom_site_fract_x
_atom_site_fract_y
_atom_site_fract_z
_atom_type_partial_charge
C1    C     C_R   0.348602 0.349340 0.910478 0.471851
C2    C     C_R   0.685059 0.371138 0.089641 0.482628
C3    C     C_R   0.848607 0.849339 0.910478 0.471328
C4    C     C_R   0.185091 0.871174 0.089643 0.483008
N1    N     N_R   0.394180 0.396910 0.943210 -0.103352
N2    N     N_R   0.605820 0.396910 0.056790 -0.099317
N3    N     N_R   0.894180 0.896910 0.943210 -0.103293
N4    N     N_R   0.105820 0.896910 0.056790 -0.099390
C5    C     C_R   0.433731 0.648414 0.090991 0.264715
C6    C     C_R   0.597047 0.625220 0.908967 0.306496
C7    C     C_R   0.933702 0.148399 0.090996 0.264717
C8    C     C_R   0.097031 0.125221 0.908947 0.306406
N5    N     N_R   0.450950 0.603070 0.056740 -0.132717
N6    N     N_R   0.549050 0.603070 0.943260 -0.119916
N7    N     N_R   0.950950 0.103070 0.056740 -0.132700
N8    N     N_R   0.049050 0.103070 0.943260 -0.119885
C9    C     C_R   0.494437 0.454337 0.262728 0.326776
C10   C     C_R   0.453431 0.454642 0.698332 0.278174
C11   C     C_R   0.994432 0.954341 0.262725 0.326709
C12   C     C_R   0.953431 0.954643 0.698332 0.278252
N9    N     N_R   0.525650 0.471570 0.206150 -0.100021
N10   N     N_R   0.474350 0.471570 0.793850 -0.098033
N11   N     N_R   0.025650 0.971570 0.206150 -0.100119
N12   N     N_R   0.974350 0.971570 0.793850 -0.098028
C13   C     C_R   0.229228 0.543319 0.730429 0.515425
C14   C     C_R   0.749347 0.543721 0.307793 0.592633
C15   C     C_R   0.729217 0.043310 0.730315 0.514898
C16   C     C_R   0.249192 0.043750 0.307836 0.592919
N13   N     N_R   0.319480 0.528420 0.793810 -0.112690
N14   N     N_R   0.680520 0.528420 0.206190 -0.120779
N15   N     N_R   0.819480 0.028420 0.793810 -0.112659
N16   N     N_R   0.180520 0.028420 0.206190 -0.120650
C17   C     C_R   0.489968 0.545501 0.258419 -0.097005
C18   C     C_R   0.451610 0.544779 0.697421 -0.081271
C19   C     C_R   0.989976 0.045506 0.258423 -0.097574
C20   C     C_R   0.951615 0.044779 0.697424 -0.081548
H1    H     H_    0.487316 0.586848 0.279560 0.188707
H2    H     H_    0.431212 0.585132 0.664702 0.207895
H3    H     H_    0.987343 0.086855 0.279570 0.188758
H4    H     H_    0.931224 0.085133 0.664706 0.207878
N17   N     N_R   0.525640 0.528390 0.206120 -0.072852
N18   N     N_R   0.474360 0.528390 0.793880 -0.088128
N19   N     N_R   0.025640 0.028390 0.206120 -0.072984
N20   N     N_R   0.974360 0.028390 0.793880 -0.088100
C21   C     C_R   0.232990 0.452477 0.735725 -0.069773
C22   C     C_R   0.750614 0.454143 0.303024 -0.098941
C23   C     C_R   0.732986 0.952472 0.735732 -0.069316
C24   C     C_R   0.250517 0.954183 0.303160 -0.097907
H5    H     H_    0.211873 0.410774 0.714747 0.216053
H6    H     H_    0.760540 0.413121 0.332448 0.221796
H7    H     H_    0.711872 0.910763 0.714836 0.215730
H8    H     H_    0.260417 0.913163 0.332599 0.221789
N21   N     N_R   0.319490 0.471590 0.793840 -0.083754
N22   N     N_R   0.680510 0.471590 0.206160 -0.090906
N23   N     N_R   0.819490 0.971590 0.793840 -0.083727
N24   N     N_R   0.180510 0.971590 0.206160 -0.090765
C25   C     C_R   0.352991 0.651706 0.911370 0.553868
C26   C     C_R   0.687287 0.626807 0.089921 0.507968
C27   C     C_R   0.852937 0.151688 0.911359 0.553584
C28   C     C_R   0.187309 0.126777 0.089898 0.508068
N25   N     N_R   0.394130 0.603080 0.943110 -0.139869
N26   N     N_R   0.605870 0.603080 0.056890 -0.120732
N27   N     N_R   0.894130 0.103080 0.943110 -0.139830
N28   N     N_R   0.105870 0.103080 0.056890 -0.120648
C29   C     C_R   0.439033 0.349911 0.090908 -0.124515
C30   C     C_R   0.596626 0.376114 0.908053 -0.144342
C31   C     C_R   0.939034 0.849911 0.090907 -0.124394
C32   C     C_R   0.096639 0.876126 0.908057 -0.144477
H9    H     H_    0.480656 0.334620 0.172560 0.219353
H10   H     H_    0.570929 0.369321 0.824704 0.182156
H11   H     H_    0.980656 0.834620 0.172560 0.219314
H12   H     H_    0.070943 0.869332 0.824709 0.182142
N29   N     N_R   0.450990 0.396900 0.056840 -0.091397
N30   N     N_R   0.549010 0.396900 0.943160 -0.064064
N31   N     N_R   0.950990 0.896900 0.056840 -0.091372
N32   N     N_R   0.049010 0.896900 0.943160 -0.064061
C33   C     C_R   0.376137 0.320329 0.001137 -0.047568
C34   C     C_R   0.681273 0.359500 0.997714 -0.041244
C35   C     C_R   0.876141 0.820329 0.001136 -0.047436
C36   C     C_R   0.181305 0.859529 0.997718 -0.041127
C37   C     C_R   0.372212 0.678513 0.001266 -0.109779
C38   C     C_R   0.683435 0.640182 0.999002 -0.126832
C39   C     C_R   0.872157 0.178487 0.001263 -0.109658
C40   C     C_R   0.183435 0.140165 0.998970 -0.126827
C41   C     C_R   0.468784 0.499903 0.292944 -0.127113
C42   C     C_R   0.439953 0.499776 0.638320 -0.096633
C43   C     C_R   0.968784 0.999909 0.292944 -0.126805
C44   C     C_R   0.939957 0.999777 0.638322 -0.096566
C45   C     C_R   0.175992 0.496439 0.696252 -0.047145
C46   C     C_R   0.794783 0.498202 0.366778 -0.035828
C47   C     C_R   0.675976 0.996425 0.696212 -0.047056
C48   C     C_R   0.294574 0.998260 0.366993 -0.037375
Ni1   Ni    Ni4+2 0.434860 0.434850 0.869700 0.312516
Ni2   Ni    Ni4+2 0.565140 0.434850 0.130300 0.275108
Ni3   Ni    Ni4+2 0.934860 0.934850 0.869700 0.312607
Ni4   Ni    Ni4+2 0.065140 0.934850 0.130300 0.275060
Ni5   Ni    Ni4+2 0.565130 0.565140 0.130240 0.327222
Ni6   Ni    Ni4+2 0.434870 0.565140 0.869760 0.312722
Ni7   Ni    Ni4+2 0.065130 0.065140 0.130240 0.327092
Ni8   Ni    Ni4+2 0.934870 0.065140 0.869760 0.312763
C49   C     C_R   0.018563 0.468591 0.625465 -0.011910
C50   C     C_R   0.924762 0.471169 0.546610 -0.054295
C51   C     C_R   0.518456 0.968994 0.626029 -0.011581
C52   C     C_R   0.424598 0.971705 0.547304 -0.053861
C53   C     C_R   0.080774 0.491899 0.608117 -0.124497
C54   C     C_R   0.892248 0.496655 0.448766 -0.055821
C55   C     C_R   0.580686 0.991862 0.608216 -0.125050
C56   C     C_R   0.392072 0.996768 0.449044 -0.055707
C57   C     C_R   0.050990 0.506137 0.502679 0.472492
C58   C     C_R   0.955180 0.508894 0.421684 0.380139
C59   C     C_R   0.550806 0.005788 0.502611 0.472598
C60   C     C_R   0.454977 0.008584 0.421701 0.380150
C61   C     C_3   0.902759 0.477700 0.628156 0.257285
C62   C     C_3   0.007937 0.474974 0.715725 0.249130
C63   C     C_3   0.402959 0.979084 0.629089 0.257056
C64   C     C_3   0.508147 0.976100 0.716433 0.248710
H13   H     H_    0.862291 0.442715 0.627653 0.153119
H14   H     H_    0.040392 0.513043 0.763254 0.163936
H15   H     H_    0.362149 0.944464 0.629271 0.152485
H16   H     H_    0.541106 0.014244 0.763510 0.164240
C65   C     C_R   0.229662 0.722349 0.950208 0.485484
C66   C     C_R   0.821842 0.677216 0.017722 0.540118
C67   C     C_R   0.729607 0.222319 0.950197 0.485431
C68   C     C_R   0.321840 0.177207 0.017686 0.540018
C69   C     C_R   0.682477 0.267425 0.946726 -0.165212
C70   C     C_R   0.370535 0.222101 0.019626 -0.159440
C71   C     C_R   0.182532 0.767454 0.946742 -0.165498
C72   C     C_R   0.870539 0.722106 0.019654 -0.159489
H17   H     H_    0.608785 0.264057 0.913342 0.199977
H18   H     H_    0.438281 0.217322 0.034163 0.192888
H19   H     H_    0.108841 0.764083 0.913363 0.199967
H20   H     H_    0.938290 0.717324 0.034208 0.192856
C73   C     C_R   0.730849 0.316124 0.991336 0.005204
C74   C     C_R   0.330387 0.273311 0.001624 0.002754
C75   C     C_R   0.230899 0.816155 0.991353 0.005050
C76   C     C_R   0.830384 0.773316 0.001622 0.002918
C77   C     C_R   0.825895 0.321173 0.037589 -0.170610
C78   C     C_R   0.244066 0.281219 0.983105 -0.153482
C79   C     C_R   0.325949 0.821202 0.037613 -0.170281
C80   C     C_R   0.744053 0.781228 0.983076 -0.153977
H21   H     H_    0.861967 0.359492 0.072505 0.199265
H22   H     H_    0.214979 0.321714 0.970350 0.203857
H23   H     H_    0.362024 0.859518 0.072543 0.199464
H24   H     H_    0.714959 0.821723 0.970293 0.203642
C81   C     C_R   0.374199 0.776265 0.039814 0.559222
C82   C     C_R   0.695667 0.737352 0.982212 0.520928
C83   C     C_R   0.874144 0.276238 0.039797 0.559245
C84   C     C_R   0.195681 0.237340 0.982231 0.520943
C85   C     C_R   0.325741 0.726734 0.997383 -0.150410
C86   C     C_R   0.734269 0.685209 0.998290 -0.140447
C87   C     C_R   0.825688 0.226704 0.997383 -0.150422
C88   C     C_R   0.234273 0.185196 0.998271 -0.140538
C89   C     C_R   0.369784 0.521108 0.448437 -0.048183
C90   C     C_R   0.377588 0.521327 0.362648 -0.099897
C91   C     C_R   0.869783 0.021109 0.448437 -0.048068
C92   C     C_R   0.877587 0.021330 0.362648 -0.099721
H25   H     H_    0.306730 0.535839 0.437491 0.188607
H26   H     H_    0.320408 0.536001 0.283762 0.165016
H27   H     H_    0.806727 0.035836 0.437492 0.188559
H28   H     H_    0.820404 0.036003 0.283761 0.165077
C93   C     C_R   0.459527 0.501554 0.379614 0.131080
C94   C     C_R   0.443940 0.500705 0.547971 0.136688
C95   C     C_R   0.959528 0.001561 0.379614 0.131298
C96   C     C_R   0.943941 0.000706 0.547972 0.136826
C97   C     C_R   0.535007 0.483792 0.480835 -0.015663
C98   C     C_R   0.526762 0.482822 0.565220 -0.079044
C99   C     C_R   0.035010 0.983799 0.480835 -0.016317
C100  C     C_R   0.026765 0.982825 0.565220 -0.079217
H29   H     H_    0.599501 0.470270 0.493808 0.156510
H30   H     H_    0.584788 0.468481 0.644038 0.138105
H31   H     H_    0.099504 0.970277 0.493807 0.155897
H32   H     H_    0.084793 0.968485 0.644038 0.137937
Cl1   Cl    Cl    0.295539 0.318967 0.782287 -0.486115
Cl2   Cl    Cl    0.757040 0.336894 0.213697 -0.569373
Cl3   Cl    Cl    0.795568 0.818961 0.782294 -0.486426
Cl4   Cl    Cl    0.257226 0.837035 0.213794 -0.569201
Cl5   Cl    Cl    0.855363 0.542530 0.624262 -0.456984
Cl6   Cl    Cl    0.042806 0.414802 0.796037 -0.521180
Cl7   Cl    Cl    0.356492 0.044367 0.624697 -0.454313
Cl8   Cl    Cl    0.542524 0.916181 0.797458 -0.520688
Cl9   Cl    Cl    0.166816 0.660462 0.900458 -0.529649
Cl10  Cl    Cl    0.871327 0.612097 0.039842 -0.453381
Cl11  Cl    Cl    0.666753 0.160435 0.900406 -0.529962
Cl12  Cl    Cl    0.371324 0.112088 0.039786 -0.453425
Cl13  Cl    Cl    0.493876 0.783542 0.096232 -0.386597
Cl14  Cl    Cl    0.588389 0.749816 0.963488 -0.420143
Cl15  Cl    Cl    0.993804 0.283530 0.096151 -0.386788
Cl16  Cl    Cl    0.088415 0.249801 0.963538 -0.419900
N33   N     N_R   0.492887 0.670336 0.198111 0.248081
O1    O     O_R   0.582837 0.670624 0.247525 -0.236584
O2    O     O_R   0.456935 0.697554 0.239301 -0.318174
N34   N     N_R   0.556795 0.646219 0.802409 0.232524
O3    O     O_R   0.478283 0.672587 0.752685 -0.272785
O4    O     O_R   0.606536 0.648100 0.763981 -0.334016
N35   N     N_R   0.992916 0.170350 0.198081 0.247990
O5    O     O_R   0.082818 0.171013 0.247061 -0.235807
O6    O     O_R   0.956960 0.197429 0.239420 -0.318336
N36   N     N_R   0.056748 0.146245 0.802401 0.232574
O7    O     O_R   0.978213 0.172587 0.752703 -0.272663
O8    O     O_R   0.106466 0.148163 0.763945 -0.333981
N37   N     N_R   0.515332 0.402211 0.313414 0.212544
O9    O     O_R   0.594593 0.379010 0.348291 -0.381415
O10   O     O_R   0.460814 0.380772 0.336132 -0.317620
N38   N     N_R   0.418395 0.401455 0.653490 0.241096
O11   O     O_R   0.396893 0.367637 0.701647 -0.320574
O12   O     O_R   0.400279 0.388044 0.559820 -0.289256
N39   N     N_R   0.015313 0.902213 0.313404 0.212541
O13   O     O_R   0.094573 0.879008 0.348291 -0.381524
O14   O     O_R   0.960785 0.880779 0.336113 -0.317474
N40   N     N_R   0.918396 0.901456 0.653489 0.241140
O15   O     O_R   0.896903 0.867636 0.701646 -0.320498
O16   O     O_R   0.900244 0.888052 0.559798 -0.289108
Cl17  Cl    Cl    0.182648 0.607642 0.677754 -0.443656
Cl18  Cl    Cl    0.740236 0.598582 0.375080 -0.384522
Cl19  Cl    Cl    0.682669 0.107590 0.677277 -0.443720
Cl20  Cl    Cl    0.239758 0.098668 0.374750 -0.385235
Cl21  Cl    Cl    0.339941 0.688907 0.804317 -0.400955
Cl22  Cl    Cl    0.768752 0.655836 0.217616 -0.416221
Cl23  Cl    Cl    0.839818 0.188903 0.804285 -0.400911
Cl24  Cl    Cl    0.268975 0.155681 0.217661 -0.416549
Cl25  Cl    Cl    0.132291 0.520772 0.472352 -0.478745
Cl26  Cl    Cl    0.915708 0.527787 0.288484 -0.466639
Cl27  Cl    Cl    0.632050 0.020079 0.472029 -0.478370
Cl28  Cl    Cl    0.415431 0.027073 0.288276 -0.466842

loop_
_geom_bond_atom_site_label_1
_geom_bond_atom_site_label_2
_geom_bond_distance
_ccdc_geom_bond_type
C26   N26   1.341506 A    
C61   Cl5   1.785155 S    
C73   C77   1.390526 A    
C49   C50   1.363609 A    
C81   C85   1.406244 A    
C1    C33   1.362967 A    
N37   O9    1.301259 A    
C90   C93   1.395640 A    
C43   C95   1.412187 S    
N25   Ni6   1.880272 S    
C18   N18   1.332878 A    
C52   C56   1.390580 A    
C4    N4    1.336868 A    
C3    C35   1.362956 A    
C97   H29   1.084332 S    
C6    N34   1.430203 S    
N11   N19   1.396970 A    
C30   H10   1.076842 S    
C20   C44   1.359787 A    
C75   C79   1.390567 A    
C35   C76   1.408510 S    
N14   N22   1.397211 A    
N14   Ni5   1.884136 S    
C1    Cl1   1.755163 S    
C97   C98   1.365883 A    
C36   C75   1.416609 S    
N13   N21   1.397213 A    
N13   Ni6   1.877707 S    
C1    N1    1.336838 A    
C66   C86   1.402445 A    
N6    Ni6   1.877595 S    
C65   Cl9   1.767332 S    
C62   H14   1.112380 S    
N19   Ni7   1.881166 S    
C4    C36   1.382566 A    
C3    N3    1.336826 A    
C28   Cl24  1.752043 S    
N32   Ni3   1.884011 S    
C19   H3    1.074472 S    
C37   C85   1.422815 S    
C67   C69   1.368183 A    
N9    Ni2   1.880626 S    
C70   H18   1.083744 S    
C19   C43   1.375888 A    
C63   C64   1.526516 S    
N6    N26   1.399516 A    
N4    N32   1.399514 A    
C29   N29   1.330534 A    
N11   Ni4   1.880626 S    
C8    C40   1.374150 A    
C24   N24   1.325643 A    
C18   C42   1.359792 A    
C4    Cl4   1.755973 S    
C25   N25   1.335979 A    
N33   O2    1.300921 A    
C5    N5    1.335963 A    
C41   C93   1.412188 S    
C20   H4    1.074628 S    
C67   Cl11  1.767353 S    
C82   C86   1.405686 A    
C79   H23   1.083928 S    
C48   C56   1.416410 S    
N28   Ni7   1.879969 S    
C23   H7    1.072384 S    
C59   C60   1.394237 A    
C92   C95   1.395646 A    
C78   C84   1.366850 A    
N2    Ni2   1.881473 S    
N4    Ni4   1.881473 S    
C11   N39   1.429450 S    
C15   C47   1.379081 A    
N36   O7    1.299480 A    
C42   C94   1.408716 S    
C12   N40   1.434415 S    
C10   N10   1.333092 A    
C19   N19   1.330841 A    
C60   Cl28  1.771752 S    
C31   H11   1.074958 S    
C76   C80   1.386637 A    
C56   C60   1.416006 A    
C80   H24   1.085384 S    
C68   C88   1.402447 A    
C23   N23   1.321363 A    
C21   N21   1.321270 A    
C94   C98   1.392737 A    
C26   Cl22  1.752006 S    
C15   Cl19  1.748709 S    
C49   C62   1.489661 S    
N37   O10   1.300964 A    
N30   Ni1   1.884011 S    
C2    N2    1.336844 A    
C7    N7    1.335913 A    
N29   Ni2   1.877473 S    
C5    N33   1.426715 S    
C72   H20   1.083745 S    
C23   C47   1.356379 A    
C82   Cl14  1.762624 S    
N31   Ni4   1.877473 S    
N2    N30   1.399514 A    
C39   C87   1.422737 S    
C13   N13   1.343434 A    
N8    N28   1.399516 A    
C30   C34   1.370982 A    
C67   C87   1.403016 A    
C91   C92   1.381823 A    
C49   C53   1.385979 A    
C29   C33   1.358174 A    
C52   C63   1.501177 S    
C15   N15   1.343563 A    
N39   O13   1.301260 A    
C8    N8    1.335005 A    
C16   N16   1.342976 A    
C31   C35   1.358166 A    
C46   C54   1.415878 S    
C26   C38   1.377525 A    
N23   Ni3   1.884138 S    
C78   H22   1.085376 S    
N12   Ni3   1.880436 S    
N7    Ni7   1.884132 S    
C16   Cl20  1.751338 S    
C10   C42   1.366028 A    
C7    N35   1.426684 S    
N35   O5    1.297425 A    
C99   H31   1.084338 S    
C13   C45   1.378939 A    
C83   Cl15  1.758453 S    
C9    C41   1.380991 A    
C44   C96   1.408714 S    
N20   Ni8   1.881352 S    
C91   H27   1.083518 S    
C6    C38   1.374181 A    
C17   H1    1.074452 S    
C64   H16   1.112854 S    
C81   Cl13  1.758481 S    
N16   N24   1.397211 A    
N34   O4    1.300980 A    
C11   N11   1.325523 A    
C9    N9    1.325514 A    
N27   Ni8   1.880272 S    
C2    C34   1.382557 A    
C47   C55   1.413095 S    
N26   Ni5   1.879969 S    
N1    Ni1   1.881175 S    
C66   Cl10  1.761047 S    
C95   C99   1.392929 A    
C32   H12   1.076839 S    
C22   N22   1.325281 A    
C21   H5    1.072390 S    
C77   H21   1.083930 S    
C63   Cl7   1.786188 S    
C16   C48   1.365985 A    
N5    Ni5   1.884132 S    
C59   Cl27  1.771243 S    
N15   Ni8   1.877707 S    
C9    N37   1.429452 S    
N7    N27   1.399515 A    
C38   C86   1.424340 S    
C27   C39   1.364183 A    
C61   H13   1.111543 S    
C40   C88   1.424379 S    
C96   C100  1.392742 A    
C3    Cl3   1.755171 S    
N38   O12   1.300938 A    
C14   N14   1.343012 A    
N40   O16   1.300944 A    
C64   Cl8   1.785263 S    
C6    N6    1.335020 A    
N12   N20   1.396967 A    
N10   Ni1   1.880436 S    
N17   Ni5   1.881166 S    
C27   N27   1.335925 A    
C20   N20   1.332877 A    
C31   N31   1.330526 A    
C33   C74   1.408544 S    
C80   C82   1.366847 A    
C32   C36   1.371028 A    
C58   Cl26  1.771595 S    
C99   C100  1.365881 A    
C57   Cl25  1.771094 S    
C68   C70   1.384337 A    
C61   C62   1.526625 S    
C54   C58   1.415676 A    
C100  H32   1.084634 S    
C69   C73   1.391959 A    
N24   Ni4   1.877711 S    
C53   C57   1.404912 A    
C79   C81   1.382658 A    
C17   C41   1.375885 A    
C21   C45   1.356421 A    
C10   N38   1.434412 S    
C18   H2    1.074633 S    
C55   C59   1.404841 A    
C77   C83   1.382596 A    
N1    N29   1.399516 A    
N8    Ni8   1.877595 S    
C62   Cl6   1.784701 S    
C84   C88   1.405697 A    
C71   C75   1.391967 A    
N18   Ni6   1.881352 S    
C74   C78   1.386627 A    
N3    N31   1.399516 A    
C65   C71   1.368194 A    
C68   Cl12  1.761052 S    
C22   C46   1.352567 A    
C92   H28   1.083563 S    
C91   C96   1.393973 A    
C32   N32   1.326487 A    
N3    Ni3   1.881175 S    
C22   H6    1.075974 S    
C63   H15   1.112336 S    
N16   Ni7   1.884136 S    
C14   Cl18  1.751396 S    
C89   C94   1.393961 A    
C28   N28   1.341605 A    
C51   C55   1.386441 A    
C17   N17   1.330865 A    
N34   O3    1.299481 A    
N9    N17   1.396970 A    
C72   C76   1.392448 A    
C51   C64   1.490116 S    
C11   C43   1.381013 A    
C50   C61   1.499995 S    
C27   Cl23  1.756558 S    
C57   C58   1.394183 A    
C2    Cl2   1.756000 S    
C28   C40   1.377521 A    
C7    C39   1.364230 A    
N10   N18   1.396967 A    
C25   Cl21  1.756609 S    
C29   H9    1.074960 S    
C83   C87   1.406234 A    
C12   C44   1.366026 A    
C13   Cl17  1.748745 S    
C98   H30   1.084629 S    
C65   C85   1.403009 A    
C50   C54   1.390076 A    
C25   C37   1.364187 A    
C89   H25   1.083509 S    
N33   O1    1.297265 A    
C34   C73   1.416501 S    
C71   H19   1.084931 S    
N22   Ni2   1.877711 S    
C66   C72   1.384316 A    
C69   H17   1.084929 S    
C84   Cl16  1.762621 S    
C24   H8    1.076020 S    
N5    N25   1.399515 A    
N38   O11   1.297693 A    
C70   C74   1.392460 A    
N40   O15   1.297626 A    
C24   C48   1.353051 A    
C45   C53   1.412793 S    
C51   C52   1.364147 A    
N39   O14   1.300962 A    
C90   H26   1.083555 S    
C8    N36   1.430208 S    
N36   O8    1.300978 A    
C14   C46   1.365921 A    
N15   N23   1.397213 A    
C89   C90   1.381822 A    
C12   N12   1.333094 A    
N21   Ni1   1.884138 S    
C93   C97   1.392923 A    
C5    C37   1.364208 A    
N35   O6    1.300943 A    
C30   N30   1.326446 A    
