data_mof_unit_48165.cif
_audit_creation_date              2012-12-10T19:11:27-0500
_audit_creation_method            fapswitch 2.2
_symmetry_space_group_name_H-M    P1
_symmetry_Int_Tables_number       1
_space_group_crystal_system       triclinic
_cell_length_a                    10.626039
_cell_length_b                    9.710015
_cell_length_c                    10.495389
_cell_angle_alpha                 89.638272
_cell_angle_beta                  89.988335
_cell_angle_gamma                 89.997138
_cell_volume                      1082.88211647

loop_
_atom_site_label
_atom_site_type_symbol
_atom_type_description
_atom_site_fract_x
_atom_site_fract_y
_atom_site_fract_z
_atom_type_partial_charge
C1    C     C_R   0.257649 0.500283 0.499817 0.833621
C2    C     C_3   0.927924 0.425877 0.379712 -0.408887
C3    C     C_3   0.383413 0.081634 0.438909 -0.233627
C4    C     C_3   0.383408 0.919182 0.438938 -0.235992
C5    C     C_3   0.607697 0.081726 0.424154 -0.234570
C6    C     C_3   0.607686 0.919251 0.424152 -0.236189
C7    C     C_3   0.508170 0.080277 0.628263 -0.234559
C8    C     C_3   0.508183 0.918065 0.628267 -0.226868
C9    C     C_R   0.500073 0.500516 0.257113 0.864255
C10   C     C_R   0.742581 0.500279 0.499749 0.833209
C11   C     C_R   0.500169 0.499477 0.742775 0.866325
C12   C     C_3   0.500094 0.501582 0.122181 0.039352
C13   C     C_3   0.500088 0.631578 0.039206 -0.146877
C14   C     C_3   0.396520 0.435042 0.042792 -0.185415
C15   C     C_3   0.396513 0.564864 0.957090 -0.186935
C16   C     C_3   0.500157 0.498379 0.877706 0.039430
C17   C     C_3   0.603732 0.564911 0.957096 -0.186868
C18   C     C_3   0.500167 0.368376 0.960678 -0.145299
C19   C     C_3   0.603742 0.435089 0.042801 -0.185904
C20   C     C_3   0.071539 0.651800 0.498000 -0.402038
C21   C     C_3   0.072304 0.427254 0.621062 -0.407660
C22   C     C_3   0.928678 0.651798 0.497856 -0.401238
C23   C     C_3   0.927855 0.427332 0.621077 -0.407716
C24   C     C_3   0.072401 0.425952 0.379699 -0.408972
C25   C     C_3   0.121338 0.501269 0.499632 0.202258
C26   C     C_3   0.878894 0.501265 0.499588 0.202160
H1    H     H_    0.312329 0.617333 0.917133 0.115844
H2    H     H_    0.595109 0.118344 0.675469 0.139983
H3    H     H_    0.595151 0.879429 0.675480 0.141335
H4    H     H_    0.427809 0.117955 0.686399 0.140551
H5    H     H_    0.427812 0.879694 0.686441 0.143570
H6    H     H_    0.697696 0.119079 0.465488 0.141342
H7    H     H_    0.697658 0.881395 0.465545 0.141607
H8    H     H_    0.500056 0.738797 0.075397 0.124270
H9    H     H_    0.312335 0.382547 0.082756 0.116520
H10   H     H_    0.687910 0.617417 0.917143 0.115758
H11   H     H_    0.500216 0.261157 0.924489 0.122878
H12   H     H_    0.892592 0.477855 0.291865 0.148100
H13   H     H_    0.687927 0.382626 0.082775 0.116393
H14   H     H_    0.106052 0.707533 0.411693 0.164615
H15   H     H_    0.106886 0.319048 0.624689 0.167739
H16   H     H_    0.105780 0.708470 0.583221 0.164254
H17   H     H_    0.107612 0.480228 0.707796 0.148230
H18   H     H_    0.894217 0.708649 0.582902 0.164890
H19   H     H_    0.892574 0.480451 0.707763 0.148155
H20   H     H_    0.894373 0.707350 0.411381 0.164142
H21   H     H_    0.893187 0.319166 0.624829 0.168155
H22   H     H_    0.107705 0.478064 0.291895 0.148189
H23   H     H_    0.893373 0.317635 0.378366 0.165725
H24   H     H_    0.107056 0.317746 0.378244 0.165893
H25   H     H_    0.373523 0.121010 0.339642 0.141496
H26   H     H_    0.373442 0.881073 0.339708 0.139707
H27   H     H_    0.299453 0.118748 0.491832 0.141741
H28   H     H_    0.299504 0.881483 0.491979 0.141738
H29   H     H_    0.604813 0.120942 0.324385 0.143712
H30   H     H_    0.604810 0.881335 0.324400 0.140500
N1    N     N_3   0.499750 0.138610 0.497240 -0.027185
N2    N     N_3   0.499750 0.861390 0.497240 -0.028054
O1    O     O_R   0.314910 0.616040 0.499970 -0.636313
O2    O     O_R   0.314910 0.383960 0.499970 -0.634863
O3    O     O_R   0.500080 0.616020 0.313900 -0.632101
O4    O     O_R   0.500080 0.383980 0.313900 -0.627324
O5    O     O_R   0.685320 0.616040 0.499930 -0.636227
O6    O     O_R   0.685320 0.383960 0.499930 -0.634646
O7    O     O_R   0.500150 0.616060 0.686000 -0.630516
O8    O     O_R   0.500150 0.383940 0.686000 -0.633987
Zn1   Zn    Zn3+2 0.500150 0.654960 0.499940 0.893958
Zn2   Zn    Zn3+2 0.500150 0.345040 0.499940 0.895233

loop_
_geom_bond_atom_site_label_1
_geom_bond_atom_site_label_2
_ccdc_geom_bond_type
C10   O6    A    
C11   O7    A    
O8    Zn2   S    
C6    H7    S    
C23   H19   S    
C17   H10   S    
C13   C17   S    
C11   C16   S    
C14   C18   S    
C15   H1    S    
C10   O5    A    
C11   O8    A    
C5    N1    S    
C5    H6    S    
C8    N2    S    
C2    H12   S    
C10   C26   S    
C1    O1    A    
C7    N1    S    
C7    C8    S    
C2    C26   S    
C7    H4    S    
C12   C13   S    
C1    C25   S    
C20   H16   S    
C3    H27   S    
C24   H24   S    
O3    Zn1   S    
C19   H13   S    
C4    H26   S    
C9    O3    A    
C8    H3    S    
C3    N1    S    
C12   C19   S    
C2    H23   S    
C18   H11   S    
C20   C22   S    
C4    H28   S    
O4    Zn2   S    
C13   C15   S    
C21   C23   S    
C2    C24   S    
C5    C6    S    
C20   H14   S    
C9    C12   S    
O5    Zn1   S    
C1    O2    A    
C23   H21   S    
C20   C25   S    
C3    H25   S    
N1    Zn2   S    
C9    O4    A    
C22   H20   S    
O6    Zn2   S    
N2    Zn1   S    
C13   H8    S    
C24   C25   S    
O2    Zn2   S    
C16   C18   S    
C18   C19   S    
C22   C26   S    
C23   C26   S    
C4    N2    S    
C14   H9    S    
C6    N2    S    
C14   C15   S    
C17   C19   S    
C21   C25   S    
C6    H30   S    
C7    H2    S    
O1    Zn1   S    
C21   H17   S    
C8    H5    S    
C21   H15   S    
C5    H29   S    
C22   H18   S    
C3    C4    S    
C15   C16   S    
C12   C14   S    
C16   C17   S    
O7    Zn1   S    
C24   H22   S    
