data_mof_unit_59018.cif
_audit_creation_date              2012-12-10T18:21:19-0500
_audit_creation_method            fapswitch 2.2
_symmetry_space_group_name_H-M    P1
_symmetry_Int_Tables_number       1
_space_group_crystal_system       triclinic
_cell_length_a                    14.928629
_cell_length_b                    14.098715
_cell_length_c                    10.81563
_cell_angle_alpha                 89.415605
_cell_angle_beta                  88.481435
_cell_angle_gamma                 90.478446
_cell_volume                      2275.41167295

loop_
_atom_site_label
_atom_site_type_symbol
_atom_type_description
_atom_site_fract_x
_atom_site_fract_y
_atom_site_fract_z
_atom_type_partial_charge
C1    C     C_R   0.326913 0.499534 0.504874 0.889392
C2    C     C_3   0.591149 0.498562 0.920752 -0.382837
C3    C     C_R   0.815007 0.551091 0.408293 -0.100547
C4    C     C_R   0.767759 0.502521 0.501813 -0.054691
C5    C     C_R   0.810016 0.461582 0.601387 -0.189757
C6    C     C_R   0.902243 0.468070 0.607519 0.148356
C7    C     C_R   0.952036 0.513199 0.510204 0.036106
C8    C     C_R   0.908047 0.556454 0.410260 -0.021850
C9    C     C_R   0.945079 0.429624 0.709085 -0.140011
C10   C     C_R   0.037556 0.433538 0.714061 -0.170175
C11   C     C_R   0.088966 0.473493 0.615256 0.072469
C12   C     C_R   0.499386 0.500538 0.257379 0.860131
C13   C     C_R   0.045500 0.512804 0.511795 -0.003840
C14   C     C_R   0.095144 0.549028 0.408453 -0.023773
C15   C     C_R   0.051516 0.604158 0.318013 0.265858
C16   C     C_R   0.957669 0.605503 0.316991 0.244311
C17   C     C_R   0.182688 0.473069 0.615963 -0.044218
C18   C     C_R   0.230531 0.499106 0.506894 -0.166812
C19   C     C_R   0.186841 0.528586 0.400012 -0.045657
C20   C     C_R   0.562820 0.799587 0.429581 0.090267
C21   C     C_R   0.563810 0.202584 0.430993 0.011232
C22   C     C_R   0.436116 0.797717 0.566772 0.005522
C23   C     C_R   0.434221 0.200006 0.562725 0.015587
C24   C     C_R   0.434536 0.898093 0.566785 0.055747
C25   C     C_R   0.433615 0.099708 0.564604 0.044004
C26   C     C_R   0.672815 0.500471 0.499669 0.893228
C27   C     C_R   0.496204 0.949520 0.490472 0.034610
C28   C     C_R   0.496289 0.050488 0.490083 0.048073
C29   C     C_R   0.557074 0.899916 0.414009 -0.108323
C30   C     C_R   0.558506 0.102211 0.414988 -0.111944
C31   C     C_R   0.371776 0.948028 0.639534 -0.146603
C32   C     C_R   0.371030 0.047726 0.637975 -0.136530
C33   C     C_R   0.609093 0.051982 0.323289 0.221755
C34   C     C_R   0.606441 0.951835 0.321249 0.271922
C35   C     C_R   0.494236 0.499228 0.742044 0.921281
C36   C     C_3   0.428629 0.577190 0.069650 -0.270986
C37   C     C_3   0.459121 0.401717 0.075418 -0.323170
C38   C     C_3   0.442159 0.588398 0.927956 0.097688
C39   C     C_3   0.441398 0.407831 0.934862 0.121593
C40   C     C_3   0.594919 0.518116 0.060901 0.479189
C41   C     C_3   0.497600 0.500957 0.120563 -0.125489
C42   C     C_3   0.492708 0.497955 0.877900 -0.148215
H1    H     H_    0.068126 0.401736 0.793846 0.166933
H2    H     H_    0.387373 0.757491 0.622088 0.149500
H3    H     H_    0.383039 0.238335 0.613485 0.203691
H4    H     H_    0.323248 0.909946 0.697878 0.163856
H5    H     H_    0.321965 0.084244 0.695225 0.175734
H6    H     H_    0.361322 0.543555 0.080126 0.092489
H7    H     H_    0.392429 0.390415 0.122502 0.125252
H8    H     H_    0.374587 0.589827 0.886462 0.090064
H9    H     H_    0.368699 0.421967 0.925681 0.145078
H10   H     H_    0.631931 0.551918 0.867056 0.215199
H11   H     H_    0.621458 0.428698 0.899193 0.234448
H12   H     H_    0.778010 0.582795 0.334066 0.200083
H13   H     H_    0.770763 0.426569 0.674754 0.155945
H14   H     H_    0.907025 0.396048 0.784523 0.179636
N1    N     N_R   0.500070 0.750030 0.500050 -0.151053
N2    N     N_R   0.500070 0.249970 0.500050 -0.152493
O1    O     O_R   0.367860 0.580280 0.500020 -0.648931
O2    O     O_R   0.367860 0.419720 0.500020 -0.581271
O3    O     O_R   0.500000 0.580270 0.314790 -0.615993
O4    O     O_R   0.500000 0.419730 0.314790 -0.680821
O5    O     O_R   0.632160 0.580270 0.499960 -0.644000
O6    O     O_R   0.632160 0.419730 0.499960 -0.625731
O7    O     O_R   0.500030 0.580270 0.685200 -0.589653
O8    O     O_R   0.500030 0.419730 0.685200 -0.552831
Zn1   Zn    Zn3+2 0.500020 0.607200 0.499990 0.987671
Zn2   Zn    Zn3+2 0.500020 0.392800 0.499990 0.996876
C43   C     C_2   0.412156 0.670219 0.136763 0.591332
H15   H     H_    0.344297 0.687936 0.166240 0.057709
O9    O     O_2   0.471922 0.727072 0.156540 -0.482483
C44   C     C_2   0.511772 0.313987 0.111758 0.616322
H16   H     H_    0.488432 0.270773 0.189948 0.043718
O10   O     O_2   0.578519 0.289157 0.053591 -0.471171
C45   C     C_2   0.229755 0.443397 0.729043 0.329120
H17   H     H_    0.210228 0.472578 0.818133 0.086238
O11   O     O_2   0.287461 0.382876 0.724143 -0.553597
C46   C     C_2   0.234983 0.520518 0.278648 0.465737
H18   H     H_    0.306694 0.530653 0.272762 -0.007453
O12   O     O_2   0.195827 0.495831 0.186433 -0.547371
Br1   Br    Br    0.117532 0.693040 0.211555 -0.394220
Br2   Br    Br    0.898574 0.675290 0.187921 -0.272323
C47   C     C_2   0.642369 0.749174 0.384055 0.584099
H19   H     H_    0.635048 0.686184 0.329934 0.129156
O13   O     O_2   0.717355 0.777554 0.408252 -0.521944
C48   C     C_2   0.642449 0.255822 0.384576 0.589683
H20   H     H_    0.634530 0.314298 0.321052 0.114986
O14   O     O_2   0.717252 0.234797 0.418167 -0.505374
Br3   Br    Br    0.671075 0.115523 0.185179 -0.281900
Br4   Br    Br    0.654840 0.889973 0.174651 -0.215921
Br5   Br    Br    0.494846 0.712701 0.877436 -0.353308
Br6   Br    Br    0.449649 0.282067 0.855538 -0.386997
Br7   Br    Br    0.644326 0.644440 0.083364 -0.312299
Br8   Br    Br    0.690288 0.443982 0.134458 -0.454307

loop_
_geom_bond_atom_site_label_1
_geom_bond_atom_site_label_2
_ccdc_geom_bond_type
C23   N2    A    
O8    Zn2   S    
C23   H3    S    
C27   C29   A    
C39   H9    S    
C24   C27   A    
C40   Br7   S    
C26   O5    A    
C6    C9    A    
C7    C8    A    
C15   Br1   S    
C25   C28   A    
C1    C18   S    
O6    Zn2   S    
C38   C42   S    
C1    O1    A    
C5    C6    A    
C3    H12   S    
C46   O12   D    
C35   O7    A    
C15   C16   A    
C12   O4    A    
C18   C19   A    
C43   O9    D    
C35   C42   S    
C26   O6    A    
O1    Zn1   S    
C22   H2    S    
C47   H19   S    
O7    Zn1   S    
C31   H4    S    
C9    C10   A    
C25   C32   A    
C8    C16   A    
C13   C14   A    
C36   C41   S    
N1    Zn1   S    
C33   C34   A    
C39   C42   S    
C20   C29   A    
O5    Zn1   S    
C44   O10   D    
C3    C8    A    
C1    O2    A    
C46   H18   S    
C44   H16   S    
C35   O8    A    
C38   Br5   S    
C19   C46   S    
C45   H17   S    
C34   Br4   S    
C12   C41   S    
C33   Br3   S    
C37   H7    S    
O3    Zn1   S    
C31   C32   A    
C16   Br2   S    
C17   C18   A    
C9    H14   S    
C45   O11   D    
C2    H10   S    
N2    Zn2   S    
C40   C41   S    
C47   O13   D    
C32   H5    S    
C22   C24   A    
C20   C47   S    
C3    C4    A    
C39   Br6   S    
C36   C43   S    
C21   C48   S    
C11   C17   A    
C30   C33   A    
C10   H1    S    
C48   H20   S    
C14   C19   A    
C5    H13   S    
C40   Br8   S    
C4    C5    A    
C2    H11   S    
C4    C26   S    
C6    C7    A    
C38   H8    S    
C21   C30   A    
O4    Zn2   S    
C36   C38   S    
C24   C31   A    
C21   N2    A    
C37   C39   S    
C12   O3    A    
C11   C13   A    
C2    C42   S    
C29   C34   A    
C22   N1    A    
C28   C30   A    
C36   H6    S    
C48   O14   D    
C23   C25   A    
C37   C41   S    
C43   H15   S    
C10   C11   A    
C2    C40   S    
C7    C13   A    
O2    Zn2   S    
C37   C44   S    
C27   C28   A    
C17   C45   S    
C14   C15   A    
C20   N1    A    
