data_mof_unit_14511.cif
_audit_creation_date              2012-12-11T17:20:13-0500
_audit_creation_method            fapswitch 2.2
_symmetry_space_group_name_H-M    P1
_symmetry_Int_Tables_number       1
_space_group_crystal_system       triclinic
_cell_length_a                    8.232965
_cell_length_b                    16.657602
_cell_length_c                    22.879781
_cell_angle_alpha                 96.733082
_cell_angle_beta                  89.558742
_cell_angle_gamma                 93.745806
_cell_volume                      3109.46868209

loop_
_atom_site_label
_atom_site_type_symbol
_atom_type_description
_atom_site_fract_x
_atom_site_fract_y
_atom_site_fract_z
_atom_type_partial_charge
Ba1   Ba    Ba6+2 0.848660 0.538140 0.472240 1.652326
Ba2   Ba    Ba6+2 0.341160 0.461930 0.527770 1.657643
C1    C     C_3   0.653485 0.837545 0.327195 -0.362845
C2    C     C_R   0.090864 0.566488 0.940691 -0.026965
C3    C     C_R   0.044958 0.562172 0.880569 0.590333
C4    C     C_3   0.097397 0.725421 0.312852 0.381597
C5    C     C_R   0.996085 0.418040 0.876121 0.586579
C6    C     C_R   0.035621 0.420728 0.936404 -0.018710
C7    C     C_R   0.083781 0.495343 0.968824 -0.053301
C8    C     C_R   0.142731 0.640379 0.973585 -0.074602
C9    C     C_R   0.186978 0.643440 0.032843 -0.078258
C10   C     C_R   0.178952 0.572867 0.061559 -0.015634
C11   C     C_R   0.125995 0.498665 0.029517 -0.052260
C12   C     C_3   0.626513 0.752301 0.344546 0.326889
C13   C     C_R   0.028463 0.350078 0.964969 -0.077751
C14   C     C_R   0.067330 0.353541 0.024664 -0.076288
C15   C     C_R   0.116654 0.427624 0.057758 -0.027516
C16   C     C_3   0.059407 0.754746 0.254021 0.265944
C17   C     C_R   0.158086 0.432035 0.118203 0.590592
C18   C     C_R   0.223449 0.574993 0.121449 0.573771
C19   C     C_2   0.804887 0.441710 0.768475 -0.095316
C20   C     C_3   0.773956 0.418497 0.703442 -0.070801
C21   C     C_1   0.003153 0.514520 0.685117 0.042234
C22   C     C_2   0.050069 0.521091 0.741413 -0.078321
C23   C     C_3   0.507625 0.341556 0.350625 0.296392
C24   C     C_2   0.945328 0.483934 0.786984 0.219181
C25   C     C_R   0.407127 0.545600 0.231910 -0.107360
C26   C     C_R   0.449212 0.552209 0.291581 -0.017502
C27   C     C_R   0.192952 0.482669 0.314201 0.033397
C28   C     C_3   0.196591 0.707336 0.597863 0.319935
C29   C     C_R   0.148346 0.476562 0.254079 -0.093664
C30   C     C_R   0.254365 0.509333 0.212156 0.207811
C31   C     C_2   0.872154 0.470251 0.664627 -0.267936
C32   C     C_R   0.393046 0.733804 0.473495 -0.363623
C33   C     C_R   0.529550 0.760763 0.507322 -0.009940
C34   C     C_3   0.494672 0.318659 0.284438 -0.365548
C35   C     C_R   0.575917 0.844733 0.517605 0.362347
C36   C     C_R   0.489762 0.900484 0.488709 0.178304
C37   C     C_R   0.344879 0.871556 0.458501 -0.222168
C38   C     C_R   0.294620 0.788782 0.452641 -0.006260
C39   C     C_R   0.621073 0.147088 0.487615 -0.190459
C40   C     C_3   0.181879 0.797236 0.609451 -0.393361
C41   C     C_R   0.667824 0.230129 0.494031 0.022067
C42   C     C_R   0.723465 0.091450 0.508355 0.223706
C43   C     C_R   0.806470 0.259167 0.526118 -0.346922
C44   C     C_R   0.914674 0.205843 0.543760 -0.083788
C45   C     C_3   0.002981 0.234740 0.680925 0.315872
C46   C     C_R   0.876910 0.121383 0.532383 0.311509
C47   C     C_3   0.005564 0.289870 0.402807 0.299625
C48   C     C_3   0.986206 0.198810 0.385202 -0.364064
C49   C     C_3   0.685258 0.637756 0.645915 0.288342
C50   C     C_3   0.698307 0.658296 0.712332 -0.371239
C51   C     C_3   0.276221 0.827048 0.214651 0.275471
C52   C     C_3   0.363202 0.910653 0.216064 -0.338749
C53   C     C_3   0.873243 0.189821 0.772966 -0.421965
C54   C     C_3   0.615983 0.894578 0.613719 0.287957
C55   C     C_3   0.731635 0.892192 0.665163 -0.306102
C56   C     C_3   0.032702 0.205730 0.740605 -0.167812
C57   C     C_3   0.010962 0.048023 0.591837 0.291738
C58   C     C_3   0.095939 0.970477 0.589175 -0.311823
C59   C     C_3   0.536011 0.249190 0.671288 0.418869
C60   C     C_3   0.486400 0.171121 0.697187 -0.359632
C61   C     C_R   0.341025 0.522415 0.332204 -0.299237
H1    H     H_    0.689773 0.750970 0.387143 0.082670
H2    H     H_    0.805038 0.621078 0.628142 0.011096
H3    H     H_    0.594637 0.585721 0.636339 0.086201
H4    H     H_    0.588265 0.880601 0.358242 0.086208
H5    H     H_    0.795781 0.706912 0.723322 0.125585
H6    H     H_    0.727476 0.604098 0.733053 0.075978
H7    H     H_    0.580759 0.679173 0.730476 0.134129
H8    H     H_    0.493849 0.738835 0.349964 -0.038844
H9    H     H_    0.607655 0.839440 0.282010 0.111944
H10   H     H_    0.385657 0.356913 0.367706 0.017952
H11   H     H_    0.594813 0.395387 0.359091 0.058784
H12   H     H_    0.240502 0.821673 0.651956 0.116702
H13   H     H_    0.405677 0.265862 0.274486 0.138579
H14   H     H_    0.453198 0.370262 0.263192 0.071099
H15   H     H_    0.615356 0.302961 0.266082 0.129584
H16   H     H_    0.785107 0.856764 0.328446 0.169444
H17   H     H_    0.961040 0.296908 0.687835 0.023023
H18   H     H_    0.907819 0.192720 0.657722 -0.071260
H19   H     H_    0.112201 0.251984 0.767692 0.171369
H20   H     H_    0.095873 0.148412 0.734220 0.085333
H21   H     H_    0.670200 0.258201 0.674870 -0.131891
H22   H     H_    0.501320 0.241774 0.624014 0.066723
H23   H     H_    0.240834 0.827191 0.573445 0.036001
H24   H     H_    0.505096 0.179534 0.745577 0.114390
H25   H     H_    0.561420 0.121944 0.677277 0.045930
H26   H     H_    0.036514 0.664056 0.313820 0.015125
H27   H     H_    0.357196 0.152246 0.687588 0.136000
H28   H     H_    0.059253 0.297699 0.044777 0.122080
H29   H     H_    0.991714 0.291635 0.941263 0.114686
H30   H     H_    0.226836 0.701627 0.056259 0.108413
H31   H     H_    0.493349 0.568470 0.200925 0.109479
H32   H     H_    0.149987 0.696254 0.953517 0.120451
H33   H     H_    0.166572 0.551925 0.754550 0.118911
H34   H     H_    0.050830 0.808977 0.611726 0.139101
H35   H     H_    0.724728 0.414637 0.799693 0.100090
H36   H     H_    0.032327 0.446457 0.240074 0.119027
H37   H     H_    0.375585 0.526911 0.378049 0.082478
H38   H     H_    0.231007 0.721852 0.316510 -0.089569
H39   H     H_    0.849310 0.458570 0.617654 0.075833
H40   H     H_    0.510302 0.125943 0.463856 0.125364
H41   H     H_    0.269210 0.913839 0.440958 0.133507
H42   H     H_    0.354750 0.669965 0.468133 0.086696
H43   H     H_    0.838356 0.323669 0.532241 0.081483
H44   H     H_    0.089794 0.708276 0.217443 0.014766
H45   H     H_    0.888311 0.312059 0.419060 0.001938
H46   H     H_    0.926573 0.759987 0.250648 0.100713
H47   H     H_    0.325973 0.694861 0.593176 0.006162
H48   H     H_    0.129054 0.685158 0.556594 0.060091
H49   H     H_    0.241299 0.805482 0.168271 0.082030
H50   H     H_    0.361385 0.785177 0.230672 0.066195
H51   H     H_    0.395928 0.934946 0.262050 0.133352
H52   H     H_    0.475949 0.906814 0.189207 0.072774
H53   H     H_    0.282830 0.952629 0.197849 0.134045
H54   H     H_    0.802735 0.136717 0.749567 0.105328
H55   H     H_    0.899510 0.176391 0.818214 0.156163
H56   H     H_    0.098204 0.302776 0.438099 0.068926
H57   H     H_    0.798987 0.243436 0.775721 0.169047
H58   H     H_    0.509171 0.852695 0.621380 0.005748
H59   H     H_    0.574445 0.956927 0.614700 0.042695
H60   H     H_    0.824777 0.943163 0.668037 0.078073
H61   H     H_    0.661909 0.896876 0.707035 0.065698
H62   H     H_    0.793877 0.834829 0.660665 0.154427
H63   H     H_    0.890404 0.040294 0.613534 0.013412
H64   H     H_    0.089162 0.094016 0.618696 0.063286
H65   H     H_    0.022750 0.921813 0.561970 0.189956
H66   H     H_    0.218529 0.978292 0.569183 0.121760
H67   H     H_    0.887840 0.184283 0.351958 0.132722
H68   H     H_    0.110083 0.954713 0.634569 0.038301
H69   H     H_    0.955058 0.166886 0.423834 0.071233
H70   H     H_    0.101989 0.176678 0.366285 0.131287
N1    N     N_R   0.996775 0.488401 0.848753 -0.422446
N2    N     N_R   0.209351 0.505445 0.149921 -0.421300
N3    N     N_2   0.534046 0.985824 0.493090 -0.235709
N4    N     N_2   0.681516 0.005712 0.503055 -0.158250
O1    O     O_2   0.899090 0.455560 0.360740 -0.456087
O2    O     O_2   0.255999 0.215287 0.542008 -0.456363
O3    O     O_3   0.149284 0.235069 0.649132 -0.593018
O4    O     O_3   0.139470 0.456390 0.431790 -0.497830
O5    O     O_3   0.555510 0.597400 0.529070 -0.496832
O6    O     O_2   0.384010 0.302440 0.472310 -0.456668
O7    O     O_3   0.562141 0.275819 0.376503 -0.637015
O8    O     O_2   0.453853 0.473470 0.708590 -0.482553
O9    O     O_3   0.459251 0.314764 0.701933 -0.563012
O10   O     O_2   0.045936 0.624272 0.856940 -0.598011
O11   O     O_2   0.962396 0.352473 0.847784 -0.628564
O12   O     O_3   0.637019 0.705759 0.621684 -0.635885
O13   O     O_2   0.151389 0.370120 0.142198 -0.596123
O14   O     O_2   0.275273 0.639124 0.148170 -0.643420
O15   O     O_3   0.652060 0.602710 0.395680 -0.488345
O16   O     O_2   0.788830 0.549815 0.293683 -0.492254
O17   O     O_3   0.053781 0.326296 0.353038 -0.628778
O18   O     O_3   0.689821 0.696790 0.300574 -0.613873
O19   O     O_2   0.805680 0.697590 0.527730 -0.434620
O20   O     O_3   0.061950 0.644310 0.424380 -0.492985
O21   O     O_2   0.963491 0.789007 0.468447 -0.451123
O22   O     O_3   0.136427 0.832521 0.250560 -0.626062
O23   O     O_3   0.038270 0.779881 0.358240 -0.587547
O24   O     O_3   0.694345 0.871652 0.559446 -0.614765
O25   O     O_3   0.997900 0.068408 0.534332 -0.620314
O26   O     O_2   0.290610 0.544470 0.639300 -0.457634
O27   O     O_3   0.050220 0.543670 0.568220 -0.502058
O28   O     O_3   0.537630 0.397360 0.604330 -0.475116
O29   O     O_3   0.132018 0.673158 0.646376 -0.632373
O30   O     O_3   0.634180 0.402670 0.470930 -0.478568
O31   O     O_3   0.127750 0.355750 0.575620 -0.466045
P1    P     P_3+3 0.070660 0.431690 0.369620 0.994120
P2    P     P_3+3 0.630590 0.685720 0.544880 1.016958
P3    P     P_3+3 0.090832 0.750261 0.425970 0.971199
P4    P     P_3+3 0.119040 0.568370 0.630390 0.988001
P5    P     P_3+3 0.110040 0.250871 0.576510 0.993881
P6    P     P_3+3 0.646031 0.598804 0.319201 0.945953
P7    P     P_3+3 0.566157 0.300823 0.452970 0.960467
P8    P     P_3+3 0.555259 0.403800 0.680847 0.972249

loop_
_geom_bond_atom_site_label_1
_geom_bond_atom_site_label_2
_ccdc_geom_bond_type
C19   C24   D    
C27   C61   A    
O29   P4    S    
C42   N4    S    
C3    O10   D    
C12   O18   S    
C12   H8    S    
Ba1   Ba2   S    
C16   H46   S    
O6    P7    D    
C1    H16   S    
C37   H41   S    
C51   C52   S    
C57   H63   S    
C40   H12   S    
C16   O22   S    
C28   H47   S    
C32   C38   A    
O30   P7    S    
C33   C35   A    
C35   C36   A    
C22   C24   S    
C23   H11   S    
C34   H14   S    
C56   H19   S    
C55   H62   S    
C36   C37   A    
O21   P3    D    
C46   O25   S    
Ba1   O30   S    
C57   H64   S    
C13   C14   A    
C60   H27   S    
Ba1   P2    S    
C17   O13   D    
C54   C55   S    
Ba1   O15   S    
C32   C33   A    
C49   H2    S    
C4    H38   S    
O19   P2    D    
C20   C31   S    
C7    C11   A    
C16   H44   S    
Ba1   O5    S    
C34   H13   S    
C13   H29   S    
C41   P7    S    
C21   P4    S    
Ba1   O27   S    
O3    P5    S    
C21   C31   D    
C52   H53   S    
C45   O3    S    
C21   C22   D    
C50   H6    S    
C29   H36   S    
C48   H67   S    
C50   H5    S    
O5    P2    S    
O15   P6    S    
C9    H30   S    
C57   C58   S    
C19   C20   S    
O1    P1    D    
Ba2   O6    S    
C39   C41   A    
O31   P5    S    
C45   H17   S    
C58   H68   S    
C51   H50   S    
C47   H45   S    
C53   H57   S    
C3    N1    Am   
C4    C16   S    
C44   C46   A    
C51   O22   S    
O12   P2    S    
C47   O17   S    
C58   H65   S    
C50   H7    S    
C28   O29   S    
C5    N1    Am   
C5    C6    A    
C40   H34   S    
Ba2   O27   S    
C37   C38   A    
C6    C7    A    
C43   C44   A    
C60   H25   S    
O16   P6    D    
C48   H70   S    
C31   H39   S    
O17   P1    S    
O9    P8    S    
O28   P8    S    
C49   H3    S    
C54   H59   S    
Ba2   O26   S    
Ba1   O19   S    
C59   O9    S    
C61   H37   S    
C24   N1    S    
C55   H60   S    
C4    O23   S    
C29   C30   A    
O8    P8    D    
C12   H1    S    
C52   H52   S    
C10   C18   A    
O4    P1    S    
C44   P5    S    
Ba1   O20   S    
C48   H69   S    
O26   P4    D    
C41   C43   A    
Ba2   O28   S    
C1    C12   S    
C59   H22   S    
C40   H23   S    
O18   P6    S    
C6    C13   A    
C36   N3    S    
Ba2   O5    S    
C39   C42   A    
O2    P5    D    
C23   O7    S    
C2    C8    A    
Ba2   O31   S    
C43   H43   S    
C51   H49   S    
C35   O24   S    
C5    O11   D    
C53   H54   S    
Ba2   O4    S    
O27   P4    S    
C25   C30   A    
C32   H42   S    
C1    H4    S    
N3    N4    D    
C59   H21   S    
C58   H66   S    
C30   N2    S    
C20   P8    S    
C9    C10   A    
C54   O24   S    
C4    H26   S    
C60   H24   S    
C18   O14   D    
C11   C15   A    
C28   H48   S    
C54   H58   S    
C22   H33   S    
C1    H9    S    
C49   C50   S    
C27   C29   A    
C57   O25   S    
C34   H15   S    
C56   H20   S    
O20   P3    S    
C45   C56   S    
C19   H35   S    
C26   P6    S    
C47   H56   S    
C8    H32   S    
C52   H51   S    
O7    P7    S    
Ba1   P1    S    
C15   C17   A    
O23   P3    S    
C23   H10   S    
C45   H18   S    
C18   N2    Am   
C59   C60   S    
Ba1   O4    S    
C8    C9    A    
C23   C34   S    
C26   C61   A    
C39   H40   S    
C2    C3    A    
C10   C11   A    
C49   O12   S    
C14   H28   S    
C47   C48   S    
C53   C56   S    
C25   C26   A    
C33   P2    S    
C28   C40   S    
C25   H31   S    
C27   P1    S    
C2    C7    A    
C17   N2    Am   
Ba2   O30   S    
C38   P3    S    
Ba1   O1    S    
C42   C46   A    
C14   C15   A    
Ba2   P4    S    
C55   H61   S    
C53   H55   S    
