data_mof_unit_53868.cif
_audit_creation_date              2013-03-05T15:53:33-0500
_audit_creation_method            fapswitch 2.2
_symmetry_space_group_name_H-M    P1
_symmetry_Int_Tables_number       1
_space_group_crystal_system       triclinic
_cell_length_a                    30.569342
_cell_length_b                    7.246811
_cell_length_c                    26.011952
_cell_angle_alpha                 89.937144
_cell_angle_beta                  112.04676
_cell_angle_gamma                 89.725575
_cell_volume                      5340.98503433

loop_
_atom_site_label
_atom_site_type_symbol
_atom_site_description
_atom_site_fract_x
_atom_site_fract_y
_atom_site_fract_z
_atom_type_partial_charge
O1    O     O_R   0.295360 0.592990 0.320420 -0.570729
O2    O     O_R   0.704640 0.407010 0.679580 -0.550768
O3    O     O_R   0.204640 0.092990 0.179580 -0.577191
O4    O     O_R   0.795360 0.907010 0.820420 -0.550804
O5    O     O_R   0.294060 0.265620 0.213230 -0.560539
O6    O     O_R   0.705940 0.734380 0.786770 -0.562856
O7    O     O_R   0.205940 0.765620 0.286770 -0.566199
O8    O     O_R   0.794060 0.234380 0.713230 -0.565212
C1    C     C_R   0.304324 0.432046 0.199705 1.088888
C2    C     C_R   0.695846 0.567761 0.800436 1.100521
C3    C     C_R   0.195855 0.932509 0.300437 1.099036
C4    C     C_R   0.804092 0.067501 0.699470 1.098944
O9    O     O_R   0.300850 0.263360 0.322080 -0.582816
O10   O     O_R   0.699150 0.736640 0.677920 -0.600511
O11   O     O_R   0.199150 0.763360 0.177920 -0.570927
O12   O     O_R   0.800850 0.236640 0.822080 -0.598464
O13   O     O_R   0.211480 0.091820 0.289210 -0.571457
O14   O     O_R   0.788520 0.908180 0.710790 -0.571873
O15   O     O_R   0.288520 0.591820 0.210790 -0.570300
O16   O     O_R   0.711480 0.408180 0.789210 -0.571892
C5    C     C_R   0.313362 0.431186 0.343106 0.956227
C6    C     C_R   0.686775 0.568893 0.656741 0.961807
C7    C     C_R   0.186738 0.932324 0.156850 0.977976
C8    C     C_R   0.813166 0.067933 0.843208 0.964051
O17   O     O_3   0.220670 0.426670 0.239090 -0.268497
O18   O     O_3   0.779330 0.573330 0.760910 -0.269300
O19   O     O_3   0.279330 0.926670 0.260910 -0.274427
O20   O     O_3   0.720670 0.073330 0.739090 -0.267644
V1    V     V_3+5 0.255440 0.152290 0.252020 1.316118
V2    V     V_3+5 0.744560 0.847710 0.747980 1.318390
V3    V     V_3+5 0.244560 0.652290 0.247980 1.316285
V4    V     V_3+5 0.755440 0.347710 0.752020 1.316421
C9    C     C_R   0.850000 0.058472 0.899414 -0.132667
C10   C     C_R   0.149896 0.943621 0.100660 -0.135539
C11   C     C_R   0.649829 0.564291 0.600465 -0.123083
C12   C     C_R   0.350459 0.435868 0.399189 -0.120525
C13   C     C_R   0.871066 0.053408 0.998717 -0.119828
C14   C     C_R   0.129177 0.969768 0.001678 -0.125890
C15   C     C_R   0.626805 0.616647 0.501977 -0.119835
C16   C     C_R   0.373794 0.380454 0.497517 -0.122203
C17   C     C_R   0.836999 0.068124 0.945327 -0.063997
C18   C     C_R   0.163238 0.955473 0.055036 -0.064821
C19   C     C_R   0.661508 0.610901 0.555157 -0.060037
C20   C     C_R   0.339028 0.386429 0.444448 -0.063065
C21   C     C_R   0.897862 0.038051 0.907313 -0.200623
C22   C     C_R   0.101765 0.950959 0.092598 -0.195189
C23   C     C_R   0.602669 0.524330 0.592155 -0.213343
C24   C     C_R   0.397471 0.478560 0.407339 -0.192957
C25   C     C_R   0.933572 0.024807 0.961511 0.105921
C26   C     C_R   0.066183 0.972145 0.038544 0.105823
C27   C     C_R   0.566307 0.530884 0.538240 0.106581
C28   C     C_R   0.434004 0.470091 0.461166 0.107060
C29   C     C_R   0.918937 0.030900 0.007207 0.125463
C30   C     C_R   0.081043 0.977993 0.993018 0.128334
C31   C     C_R   0.579546 0.578151 0.493152 0.126945
C32   C     C_R   0.420923 0.420692 0.506247 0.124920
C33   C     C_R   0.983041 0.006237 0.972035 0.049820
C34   C     C_R   0.016679 0.989478 0.028012 0.048471
C35   C     C_R   0.517451 0.494226 0.527492 0.049235
C36   C     C_R   0.482873 0.506644 0.471889 0.051386
C37   C     C_R   0.999773 0.994381 0.071577 -0.147217
C38   C     C_R   0.000065 0.006568 0.928550 -0.147690
C39   C     C_R   0.498385 0.554062 0.428906 -0.146360
C40   C     C_R   0.502026 0.445311 0.570432 -0.155289
C41   C     C_R   0.952044 0.015357 0.061247 -0.160059
C42   C     C_R   0.047957 0.993822 0.938999 -0.160873
C43   C     C_R   0.545616 0.588507 0.439448 -0.158174
C44   C     C_R   0.454885 0.409664 0.559887 -0.159271
H1    H     H_    0.940909 0.019889 0.096199 0.175157
H2    H     H_    0.059264 0.997303 0.904172 0.173780
H3    H     H_    0.555689 0.624620 0.404959 0.175064
H4    H     H_    0.444915 0.371880 0.594333 0.176233
H5    H     H_    0.093484 0.940372 0.129215 0.152684
H6    H     H_    0.905812 0.032572 0.870421 0.157028
H7    H     H_    0.404265 0.514094 0.370814 0.136067
H8    H     H_    0.595549 0.493092 0.628636 0.163786
H9    H     H_    0.200168 0.954045 0.060715 0.193127
H10   H     H_    0.800306 0.086011 0.939800 0.183710
H11   H     H_    0.303026 0.351803 0.438603 0.170557
H12   H     H_    0.697616 0.643775 0.561050 0.171571
H13   H     H_    0.859910 0.059598 0.033619 0.164375
H14   H     H_    0.140576 0.976623 0.966976 0.163995
H15   H     H_    0.636908 0.653238 0.467563 0.163715
H16   H     H_    0.363855 0.342013 0.531917 0.163504
H17   H     H_    0.022682 0.985177 0.114607 0.172136
H18   H     H_    0.977291 0.019525 0.885571 0.169689
H19   H     H_    0.474810 0.565765 0.386208 0.162843
H20   H     H_    0.525617 0.432101 0.613073 0.175978
C45   C     C_R   0.087507 0.076162 0.471466 0.699935
C46   C     C_R   0.911509 0.932392 0.526771 0.672202
C47   C     C_R   0.409502 0.446802 0.021402 0.656197
C48   C     C_R   0.594241 0.488181 0.981310 0.705156
N1    N     N_R   0.073425 0.975208 0.423719 -0.173915
N2    N     N_R   0.926066 0.028509 0.575415 -0.165975
N3    N     N_R   0.428351 0.467516 0.077809 -0.160024
N4    N     N_R   0.574633 0.522535 0.925459 -0.168691
C49   C     C_R   0.031223 0.885021 0.404806 0.681543
C50   C     C_R   0.968777 0.115163 0.595136 0.691867
C51   C     C_R   0.475666 0.498054 0.104892 0.699569
C52   C     C_R   0.526869 0.544528 0.899077 0.686971
C53   C     C_R   0.000723 0.892864 0.434568 -0.283176
C54   C     C_R   0.998881 0.111772 0.564715 -0.223738
C55   C     C_R   0.506691 0.490070 0.075831 -0.222569
C56   C     C_R   0.496316 0.515438 0.927862 -0.282823
C57   C     C_R   0.014758 0.996858 0.484294 -0.057844
C58   C     C_R   0.985125 0.006479 0.515340 -0.023592
C59   C     C_R   0.486836 0.488778 0.017201 -0.028814
C60   C     C_R   0.516377 0.498346 0.986329 -0.069264
C61   C     C_R   0.058346 0.091662 0.502779 -0.174919
C62   C     C_R   0.941630 0.910800 0.496939 -0.250628
C63   C     C_R   0.437321 0.478733 0.989444 -0.260211
C64   C     C_R   0.565979 0.489576 0.013807 -0.176153
C65   C     C_R   0.957347 0.796521 0.416933 0.316351
C66   C     C_R   0.042040 0.210110 0.582213 0.193776
C67   C     C_R   0.556481 0.485804 0.103409 0.200474
C68   C     C_R   0.446576 0.508881 0.900296 0.315585
C69   C     C_R   0.929086 0.800133 0.448636 0.455594
C70   C     C_R   0.071663 0.200474 0.551429 0.479298
C71   C     C_R   0.586054 0.479840 0.072481 0.483476
C72   C     C_R   0.417368 0.494812 0.930806 0.463805
O21   O     O_2   0.129678 0.161400 0.488195 -0.397563
O22   O     O_2   0.867727 0.860349 0.507322 -0.447864
O23   O     O_2   0.364216 0.392913 0.996719 -0.460315
O24   O     O_2   0.640983 0.453666 0.005070 -0.411840
O25   O     O_2   0.019495 0.786095 0.357712 -0.432952
O26   O     O_2   0.981577 0.205023 0.643905 -0.426933
O27   O     O_2   0.492279 0.536739 0.159548 -0.439275
O28   O     O_2   0.509340 0.597355 0.845397 -0.446987
C73   C     C_R   0.902316 0.915205 0.650934 0.264923
C74   C     C_R   0.096850 0.084341 0.347559 0.275533
C75   C     C_R   0.599936 0.407153 0.851005 0.281220
C76   C     C_R   0.404603 0.321197 0.149975 0.276317
C77   C     C_R   0.872477 0.924028 0.681288 0.233632
C78   C     C_R   0.126857 0.074637 0.317439 0.231025
C79   C     C_R   0.628999 0.419791 0.819871 0.230425
C80   C     C_R   0.374837 0.314576 0.180455 0.226445
C81   C     C_R   0.835914 0.058158 0.667784 -0.498332
C82   C     C_R   0.163808 0.942063 0.331791 -0.497482
C83   C     C_R   0.663961 0.558374 0.831972 -0.499546
C84   C     C_R   0.336680 0.440674 0.168641 -0.502419
C85   C     C_R   0.829365 0.181735 0.623172 0.241933
C86   C     C_R   0.170522 0.820529 0.376896 0.247005
C87   C     C_R   0.669249 0.684762 0.875379 0.249645
C88   C     C_R   0.329345 0.575478 0.126695 0.259035
C89   C     C_R   0.859171 0.171954 0.592791 0.290148
C90   C     C_R   0.140693 0.831660 0.407232 0.272784
C91   C     C_R   0.639247 0.675481 0.905493 0.279442
C92   C     C_R   0.360310 0.587499 0.098023 0.278691
C93   C     C_R   0.895628 0.038844 0.606671 -0.157556
C94   C     C_R   0.103876 0.963454 0.392538 -0.166820
C95   C     C_R   0.604779 0.535406 0.893732 -0.168641
C96   C     C_R   0.397675 0.458883 0.108970 -0.156272
N5    N     N_R   0.791869 0.315879 0.607844 0.264813
O29   O     O_R   0.800894 0.489985 0.604851 -0.330691
O30   O     O_R   0.748338 0.263207 0.594198 -0.398961
N6    N     N_R   0.208131 0.686834 0.392684 0.264728
O31   O     O_R   0.199226 0.512908 0.396256 -0.328640
O32   O     O_R   0.251615 0.739692 0.406005 -0.398120
N7    N     N_R   0.706253 0.819265 0.890338 0.264457
O33   O     O_R   0.696640 0.993751 0.891980 -0.335019
O34   O     O_R   0.750010 0.766130 0.905330 -0.408154
N8    N     N_R   0.289599 0.698543 0.111998 0.261930
O35   O     O_R   0.246971 0.632719 0.093272 -0.405149
O36   O     O_R   0.295843 0.876273 0.115487 -0.349434
N9    N     N_R   0.851450 0.293688 0.546512 0.274050
O37   O     O_R   0.886498 0.382910 0.541601 -0.359005
O38   O     O_R   0.809431 0.313206 0.508465 -0.263235
N10   N     N_R   0.148905 0.713299 0.454393 0.273034
O39   O     O_R   0.191094 0.696580 0.492272 -0.262389
O40   O     O_R   0.114228 0.624030 0.460234 -0.313078
N11   N     N_R   0.644809 0.805147 0.949342 0.277361
O41   O     O_R   0.608116 0.884088 0.953858 -0.331120
O42   O     O_R   0.686338 0.835279 0.987189 -0.255256
N12   N     N_R   0.353069 0.728485 0.056615 0.266860
O43   O     O_R   0.388324 0.826818 0.055919 -0.336387
O44   O     O_R   0.311615 0.753322 0.017842 -0.280442
N13   N     N_R   0.941582 0.688665 0.367243 0.300409
O45   O     O_R   0.920577 0.769308 0.319500 -0.242421
O46   O     O_R   0.941431 0.509507 0.370401 -0.273133
N14   N     N_R   0.055861 0.323264 0.630779 0.265186
O47   O     O_R   0.086673 0.262076 0.677417 -0.275983
O48   O     O_R   0.041313 0.493599 0.626977 -0.289461
N15   N     N_R   0.577424 0.480384 0.162795 0.263121
O49   O     O_R   0.576063 0.329292 0.189207 -0.262831
O50   O     O_R   0.601362 0.620755 0.190069 -0.275308
N16   N     N_R   0.424894 0.508574 0.840875 0.294352
O51   O     O_R   0.432100 0.370457 0.813050 -0.250496
O52   O     O_R   0.393329 0.632709 0.815207 -0.246696
O53   O     O_3   0.889266 0.692048 0.430982 -0.612277
H21   H     H_    0.890824 0.614539 0.463028 0.387185
O54   O     O_3   0.113609 0.297677 0.567586 -0.615823
H22   H     H_    0.117715 0.376747 0.599966 0.368641
O55   O     O_3   0.634678 0.468745 0.098619 -0.617927
H23   H     H_    0.643685 0.431856 0.137862 0.370277
O56   O     O_3   0.369268 0.500717 0.901764 -0.615165
H24   H     H_    0.355961 0.590001 0.920921 0.376760
N17   N     N_R   0.940536 0.783997 0.666271 0.274042
O57   O     O_R   0.947095 0.680682 0.628902 -0.301323
O58   O     O_R   0.969365 0.768878 0.717722 -0.275005
N18   N     N_R   0.058133 0.213450 0.331248 0.272911
O59   O     O_R   0.029491 0.224960 0.279626 -0.278038
O60   O     O_R   0.050956 0.318578 0.367863 -0.303055
N19   N     N_R   0.564599 0.265788 0.838276 0.276020
O61   O     O_R   0.559924 0.167111 0.877671 -0.322114
O62   O     O_R   0.535434 0.241079 0.787422 -0.262913
N20   N     N_R   0.442604 0.189978 0.161573 0.278724
O63   O     O_R   0.450054 0.106706 0.121308 -0.320948
O64   O     O_R   0.471477 0.160369 0.212378 -0.253933
N21   N     N_R   0.879506 0.795626 0.725829 0.272087
O65   O     O_R   0.886544 0.855042 0.775453 -0.427718
O66   O     O_R   0.880729 0.619057 0.717371 -0.305671
N22   N     N_R   0.119622 0.200612 0.272269 0.271220
O67   O     O_R   0.113078 0.138587 0.223035 -0.428656
O68   O     O_R   0.117961 0.377583 0.279833 -0.306870
N23   N     N_R   0.622764 0.290853 0.775791 0.272886
O69   O     O_R   0.613910 0.349978 0.725650 -0.431675
O70   O     O_R   0.623988 0.114106 0.785129 -0.307795
N24   N     N_R   0.383768 0.179584 0.223717 0.274901
O71   O     O_R   0.385048 0.004790 0.212932 -0.308727
O72   O     O_R   0.392395 0.231695 0.274435 -0.404465

loop_
_geom_bond_atom_site_label_1
_geom_bond_atom_site_label_2
_geom_bond_distance
_ccdc_geom_bond_type
O17   V3    1.773586 S    
C51   C55   1.418462 A    
N19   O61   1.300464 A    
C25   C29   1.419186 A    
C77   C81   1.418300 A    
N9    O37   1.300557 A    
O19   V1    1.766655 S    
C53   C65   1.417406 A    
C86   C90   1.414294 A    
O1    C5    1.332104 A    
C75   C95   1.414588 A    
C10   C18   1.394854 A    
C48   N4    1.369622 A    
C88   C92   1.410837 A    
O4    V2    1.989538 S    
O15   V3    1.976101 S    
N24   O71   1.301269 A    
C25   C33   1.437752 A    
C33   C38   1.411470 A    
C5    C12   1.474391 S    
C89   N9    1.437175 S    
C75   N19   1.438352 S    
N2    C93   1.449068 S    
O18   V4    1.773587 S    
C6    C11   1.476099 S    
C38   H18   1.076189 S    
C35   C40   1.411312 A    
C26   C30   1.419319 A    
C45   O21   1.349032 S    
C36   C39   1.411290 A    
C40   C44   1.387671 A    
O9    V1    2.002683 S    
N6    O31   1.301302 A    
C3    C82   1.492977 S    
C23   H8    1.074330 S    
C14   C18   1.391046 A    
C75   C79   1.412197 A    
N23   O70   1.301166 A    
C58   C62   1.417573 A    
C76   N20   1.438888 S    
O4    C8    1.331544 A    
C1    C84   1.495221 S    
N3    C51   1.369592 A    
N10   O40   1.300979 A    
C44   H4    1.084412 S    
C43   H3    1.084347 S    
C80   N24   1.436066 S    
N2    C50   1.366732 A    
C45   C61   1.419508 A    
C77   N21   1.436397 S    
O1    V3    1.985428 S    
O13   V1    1.978482 S    
C31   C43   1.394329 A    
O2    V4    1.985427 S    
C47   C63   1.414185 A    
O3    V1    1.989535 S    
C16   H16   1.083960 S    
N12   O43   1.300601 A    
C90   N10   1.438087 S    
C28   C36   1.439034 A    
C90   C94   1.411016 A    
O3    C7    1.330184 A    
C80   C84   1.417783 A    
C1    O15   1.325560 A    
C52   C56   1.415630 A    
C15   C31   1.404508 A    
C74   C94   1.410593 A    
C2    O16   1.323363 A    
N18   O59   1.301199 A    
C16   C32   1.403843 A    
O12   C8    1.333155 A    
O2    C6    1.332736 A    
C39   H19   1.076298 S    
C59   C60   1.417789 A    
N7    O34   1.301041 A    
C54   C58   1.417168 A    
C10   C22   1.406840 A    
N5    O30   1.301183 A    
C11   C19   1.395220 A    
N11   O42   1.301319 A    
N8    O36   1.301210 A    
O55   H23   0.988406 S    
C76   C80   1.414515 A    
C13   C29   1.404252 A    
C34   C37   1.411420 A    
O11   C7    1.334762 A    
C65   N13   1.432491 S    
C11   C23   1.406824 A    
C35   C36   1.438189 A    
N9    O38   1.301160 A    
C56   C68   1.417970 A    
C14   H14   1.083963 S    
C45   N1    1.366289 A    
C46   O22   1.348615 S    
C24   H7    1.077134 S    
C13   H13   1.083922 S    
N1    C94   1.448367 S    
O53   H21   0.990718 S    
C83   C87   1.416536 A    
O10   V2    2.002683 S    
C74   N18   1.437968 S    
C62   C69   1.418577 A    
C91   N11   1.439128 S    
C61   C70   1.416849 A    
C46   N2    1.366183 A    
O5    V1    1.997030 S    
C53   C57   1.419046 A    
C79   N23   1.436707 S    
C72   O56   1.378393 S    
C78   N22   1.436484 S    
C38   C42   1.387671 A    
O54   H22   0.987866 S    
C26   C34   1.437961 A    
C92   C96   1.414063 A    
O7    V3    1.993284 S    
C49   O25   1.348254 S    
C82   C86   1.417613 A    
C17   H10   1.083095 S    
N20   O63   1.300837 A    
C48   C64   1.417485 A    
C15   C19   1.392276 A    
N13   O46   1.300969 A    
C19   H12   1.083620 S    
C50   C54   1.421334 A    
N4    C95   1.452806 S    
C68   N16   1.435019 S    
C92   N12   1.438563 S    
C68   C72   1.403603 A    
C21   H6    1.075450 S    
C71   O55   1.384981 S    
O8    V4    1.993290 S    
O7    C3    1.328069 A    
N23   O69   1.300212 A    
C39   C43   1.388731 A    
C73   C93   1.410497 A    
C55   C67   1.418460 A    
C54   C66   1.419364 A    
C9    C21   1.406045 A    
N15   O50   1.300978 A    
N19   O62   1.301334 A    
C70   O54   1.386269 S    
C67   N15   1.433473 S    
N7    O33   1.301165 A    
C14   C30   1.403452 A    
C21   C25   1.425394 A    
O8    C4    1.328327 A    
C7    C10   1.474605 S    
N21   O65   1.300566 A    
O9    C5    1.331709 A    
N17   O58   1.301190 A    
O11   V3    1.995715 S    
N11   O41   1.300830 A    
C66   C70   1.417751 A    
C69   O53   1.377102 S    
C51   O27   1.348311 S    
N10   O39   1.301170 A    
O6    V2    1.997030 S    
C48   O24   1.348891 S    
N22   O68   1.301333 A    
C87   C91   1.413875 A    
C66   N14   1.432377 S    
O14   V2    1.978487 S    
C76   C96   1.415676 A    
C65   C69   1.400641 A    
C12   C20   1.394831 A    
C27   C35   1.438649 A    
C2    C83   1.492768 S    
C46   C62   1.417667 A    
N16   O52   1.301094 A    
N1    C49   1.365966 A    
C56   C60   1.415297 A    
C29   C41   1.394077 A    
N14   O47   1.300974 A    
C55   C59   1.414031 A    
N8    O35   1.301092 A    
O16   V4    1.976098 S    
C50   O26   1.348358 S    
C81   C85   1.417854 A    
C3    O13   1.324971 A    
C73   C77   1.414132 A    
N14   O48   1.301041 A    
C88   N8    1.434544 S    
C52   O28   1.348531 S    
C59   C63   1.413674 A    
C20   H11   1.083698 S    
C84   C88   1.416684 A    
O5    C1    1.327535 A    
C73   N17   1.437658 S    
C78   C82   1.417945 A    
C64   C71   1.416745 A    
C23   C27   1.426084 A    
C87   N7    1.435981 S    
C30   C42   1.393616 A    
C85   C89   1.414136 A    
O12   V4    1.995717 S    
C57   C58   1.423493 A    
C22   C26   1.426000 A    
C67   C71   1.418461 A    
C8    C9    1.474189 S    
N24   O72   1.301351 A    
C79   C83   1.417164 A    
C9    C17   1.394798 A    
O10   C6    1.331829 A    
N6    O32   1.301200 A    
C37   H17   1.076399 S    
N5    O29   1.301283 A    
C15   H15   1.083913 S    
C32   C44   1.393744 A    
C85   N5    1.436376 S    
C33   C34   1.437589 A    
C42   H2    1.084398 S    
C57   C61   1.416749 A    
C41   H1    1.084356 S    
C91   C95   1.415335 A    
N4    C52   1.368777 A    
O20   V2    1.766655 S    
N21   O66   1.301313 A    
C12   C24   1.407726 A    
C27   C31   1.418951 A    
C37   C41   1.388376 A    
C13   C17   1.391922 A    
N17   O57   1.300829 A    
C74   C78   1.413925 A    
N15   O49   1.301110 A    
N12   O44   1.301309 A    
O6    C2    1.328351 A    
C47   N3    1.368955 A    
O56   H24   0.991359 S    
C60   C64   1.414003 A    
C24   C28   1.427103 A    
N22   O67   1.300749 A    
C18   H9    1.082159 S    
N18   O60   1.300970 A    
N13   O45   1.300867 A    
C4    O14   1.325165 A    
C16   C20   1.391042 A    
C89   C93   1.410585 A    
C4    C81   1.493875 S    
C63   C72   1.418682 A    
C47   O23   1.348936 S    
N3    C96   1.453033 S    
C86   N6    1.436358 S    
N16   O51   1.301294 A    
N20   O64   1.301303 A    
C40   H20   1.076146 S    
C22   H5    1.076213 S    
C49   C53   1.418922 A    
C28   C32   1.419720 A    
