data_mof_unit_27907.cif
_audit_creation_date              2012-12-10T18:31:12-0500
_audit_creation_method            fapswitch 2.2
_symmetry_space_group_name_H-M    P1
_symmetry_Int_Tables_number       1
_space_group_crystal_system       triclinic
_cell_length_a                    13.691627
_cell_length_b                    14.971223
_cell_length_c                    15.476477
_cell_angle_alpha                 99.521551
_cell_angle_beta                  91.958868
_cell_angle_gamma                 99.306995
_cell_volume                      3081.42685738

loop_
_atom_site_label
_atom_site_type_symbol
_atom_type_description
_atom_site_fract_x
_atom_site_fract_y
_atom_site_fract_z
_atom_type_partial_charge
C1    C     C_R   0.515036 0.558805 0.662648 0.886329
C2    C     C_R   0.524585 0.395465 0.922002 -0.273400
C3    C     C_R   0.471015 0.663808 0.023820 -0.015756
C4    C     C_R   0.503406 0.325783 0.972259 -0.020236
C5    C     C_R   0.317045 0.161633 0.592576 -0.140923
C6    C     C_R   0.647063 0.821778 0.356886 -0.138105
C7    C     C_R   0.360447 0.253263 0.593587 0.316539
C8    C     C_R   0.627059 0.739228 0.389977 0.307038
C9    C     C_R   0.494879 0.206895 0.514978 -0.132141
C10   C     C_R   0.503283 0.794215 0.478290 -0.093678
C11   C     C_R   0.454679 0.112918 0.508268 -0.009367
C12   C     C_R   0.483820 0.441521 0.337078 0.897527
C13   C     C_R   0.517284 0.877522 0.445723 -0.014999
C14   C     C_R   0.364193 0.091124 0.549043 0.027781
C15   C     C_R   0.592958 0.892069 0.387224 0.036374
C16   C     C_R   0.318623 0.513288 0.497021 0.892859
C17   C     C_R   0.681346 0.486635 0.502968 0.887750
C18   C     C_R   0.499330 0.040142 0.462200 0.009813
C19   C     C_R   0.460972 0.947869 0.472530 -0.017018
C20   C     C_R   0.365994 0.927970 0.505636 0.179015
C21   C     C_R   0.576502 0.052655 0.402672 0.199273
C22   C     C_R   0.319203 0.999451 0.542172 -0.243237
C23   C     C_R   0.521710 0.557754 0.902152 0.048069
C24   C     C_R   0.614362 0.977249 0.361126 -0.266661
C25   C     C_1   0.781841 0.478249 0.503828 -0.194688
C26   C     C_1   0.217968 0.521118 0.495656 -0.192356
C27   C     C_2   0.968021 0.463018 0.505251 -0.160420
C28   C     C_2   0.031579 0.535709 0.493090 -0.164504
C29   C     C_1   0.133202 0.529383 0.494185 -0.004137
C30   C     C_1   0.866471 0.469560 0.504725 -0.007104
C31   C     C_R   0.524949 0.597938 0.756793 -0.132519
C32   C     C_R   0.475224 0.404419 0.242252 -0.148955
C33   C     C_R   0.510310 0.715762 0.882472 0.141573
C34   C     C_R   0.494380 0.442960 0.097532 0.060491
C35   C     C_R   0.438147 0.283906 0.112264 0.145062
C36   C     C_R   0.515227 0.689319 0.790687 0.144280
C37   C     C_R   0.431264 0.313467 0.203741 0.180335
C38   C     C_R   0.540130 0.538535 0.813599 -0.315148
C39   C     C_R   0.505080 0.467438 0.187804 -0.319003
C40   C     C_R   0.221295 0.140680 0.633514 0.123880
C41   C     C_R   0.218226 0.106381 0.712681 -0.172764
C42   C     C_R   0.127790 0.085325 0.750250 -0.143810
C43   C     C_R   0.039893 0.097669 0.708707 -0.106935
C44   C     C_R   0.042276 0.130759 0.629340 -0.133982
C45   C     C_R   0.501622 0.646995 0.936820 0.035738
C46   C     C_R   0.132599 0.151906 0.591588 -0.178804
C47   C     C_R   0.727459 0.835481 0.295306 0.131492
C48   C     C_R   0.814498 0.899439 0.322865 -0.177284
C49   C     C_R   0.890204 0.912460 0.265547 -0.150171
C50   C     C_R   0.880067 0.861453 0.180585 -0.107441
C51   C     C_R   0.794397 0.797043 0.152937 -0.132463
C52   C     C_R   0.718471 0.783827 0.209999 -0.177231
C53   C     C_3   0.261366 0.803166 0.560986 -0.819126
C54   C     C_3   0.712776 0.177888 0.407441 -0.834645
C55   C     C_R   0.417936 0.740822 0.057252 0.183131
C56   C     C_R   0.479178 0.349054 0.060189 -0.004430
C57   C     C_R   0.333356 0.753754 0.009768 -0.126069
C58   C     C_R   0.279765 0.822405 0.043073 -0.141211
C59   C     C_R   0.309139 0.877932 0.124491 -0.128232
C60   C     C_R   0.392634 0.865473 0.172490 -0.132141
C61   C     C_R   0.446445 0.796948 0.139409 -0.154769
C62   C     C_R   0.523632 0.233406 0.934563 0.150203
C63   C     C_R   0.474629 0.185406 0.855106 -0.195033
C64   C     C_R   0.498154 0.100729 0.817078 -0.136235
C65   C     C_R   0.571328 0.063910 0.857647 -0.119207
C66   C     C_R   0.621469 0.111831 0.936018 -0.163643
C67   C     C_R   0.516374 0.488142 0.955100 0.084104
C68   C     C_R   0.598095 0.196496 0.974283 -0.120179
C69   C     C_3   0.408445 0.202891 0.304774 -0.718051
C70   C     C_3   0.601599 0.804803 0.714979 -0.752861
C71   C     C_3   0.609268 0.851419 0.970822 -0.780797
C72   C     C_3   0.424521 0.115406 0.090442 -0.764263
C73   C     C_3   0.783875 0.683892 0.401006 -0.734631
C74   C     C_3   0.335779 0.350541 0.729180 -0.749818
C75   C     C_R   0.499347 0.511064 0.044300 0.084271
C76   C     C_R   0.475548 0.597976 0.077031 -0.314827
H1    H     H_    0.007830 0.599223 0.482674 0.155449
H2    H     H_    0.563925 0.231811 0.490692 0.208510
H3    H     H_    0.285564 0.095554 0.744880 0.126452
H4    H     H_    0.125814 0.059142 0.811411 0.126969
H5    H     H_    0.969911 0.081223 0.737809 0.121750
H6    H     H_    0.974114 0.139784 0.596954 0.126807
H7    H     H_    0.133555 0.176844 0.529739 0.120226
H8    H     H_    0.823465 0.939056 0.388717 0.136391
H9    H     H_    0.956821 0.961991 0.287066 0.128398
H10   H     H_    0.938792 0.871539 0.136309 0.119132
H11   H     H_    0.786912 0.757087 0.087319 0.131439
H12   H     H_    0.991770 0.399532 0.515745 0.154232
H13   H     H_    0.653459 0.732666 0.187794 0.113631
H14   H     H_    0.266955 0.822520 0.430323 0.233986
H15   H     H_    0.243003 0.727122 0.545439 0.258808
H16   H     H_    0.191285 0.830575 0.571785 0.234100
H17   H     H_    0.310900 0.822400 0.621937 0.240679
H18   H     H_    0.602653 0.133664 0.308721 0.221321
H19   H     H_    0.730193 0.248321 0.391896 0.249622
H20   H     H_    0.765949 0.136193 0.375375 0.239479
H21   H     H_    0.722153 0.182641 0.479779 0.250624
H22   H     H_    0.308444 0.710090 0.947355 0.115457
H23   H     H_    0.536609 0.537698 0.215584 0.173243
H24   H     H_    0.214803 0.831922 0.006136 0.124339
H25   H     H_    0.266759 0.930198 0.150656 0.117406
H26   H     H_    0.415119 0.908317 0.235755 0.137218
H27   H     H_    0.509602 0.787451 0.178287 0.122561
H28   H     H_    0.418571 0.213768 0.822767 0.128403
H29   H     H_    0.460258 0.063941 0.755843 0.133859
H30   H     H_    0.589666 0.998615 0.828025 0.128143
H31   H     H_    0.678685 0.083553 0.966973 0.129194
H32   H     H_    0.638167 0.233442 0.034554 0.126032
H33   H     H_    0.299753 0.226194 0.217935 0.235539
H34   H     H_    0.561720 0.474939 0.784964 0.168872
H35   H     H_    0.398440 0.130552 0.270687 0.210388
H36   H     H_    0.370036 0.204081 0.366761 0.248830
H37   H     H_    0.488394 0.229250 0.320470 0.257332
H38   H     H_    0.452720 0.791710 0.744176 0.198372
H39   H     H_    0.636228 0.850925 0.775444 0.218990
H40   H     H_    0.588992 0.847331 0.664654 0.225097
H41   H     H_    0.653300 0.757954 0.689800 0.255306
H42   H     H_    0.493481 0.852931 0.881205 0.224491
H43   H     H_    0.604311 0.922413 0.002949 0.237936
H44   H     H_    0.672102 0.853986 0.927340 0.226258
H45   H     H_    0.448993 0.611710 0.142212 0.161006
H46   H     H_    0.623964 0.811711 0.022956 0.250115
H47   H     H_    0.354132 0.189506 0.009383 0.227464
H48   H     H_    0.442541 0.073794 0.028679 0.253141
H49   H     H_    0.366276 0.072144 0.120226 0.235382
H50   H     H_    0.492291 0.134516 0.135694 0.239666
H51   H     H_    0.675851 0.641688 0.298061 0.200975
H52   H     H_    0.832487 0.732257 0.367664 0.229071
H53   H     H_    0.813004 0.618201 0.391164 0.234606
H54   H     H_    0.787724 0.711318 0.472545 0.239604
H55   H     H_    0.241813 0.322681 0.616503 0.215533
H56   H     H_    0.546277 0.373606 0.856886 0.145089
H57   H     H_    0.291455 0.299067 0.762567 0.222236
H58   H     H_    0.315713 0.418917 0.752990 0.240313
H59   H     H_    0.415640 0.353787 0.746408 0.240527
H60   H     H_    0.245553 0.982287 0.564122 0.178316
H61   H     H_    0.665970 0.988430 0.311074 0.170126
H62   H     H_    0.454372 0.781795 0.529609 0.193357
N1    N     N_R   0.445040 0.272490 0.551770 -0.128348
N2    N     N_2   0.315624 0.327031 0.635161 -0.249866
N3    N     N_R   0.554960 0.727510 0.448230 -0.124953
N4    N     N_2   0.310297 0.837039 0.488343 -0.312105
N5    N     N_2   0.611690 0.137705 0.375812 -0.337175
N6    N     N_2   0.365360 0.259149 0.251783 -0.297291
N7    N     N_2   0.507973 0.752778 0.732491 -0.292644
N8    N     N_2   0.517167 0.810542 0.920469 -0.301047
N9    N     N_2   0.386702 0.195464 0.071578 -0.315844
N10   N     N_2   0.682332 0.667536 0.364284 -0.247659
O1    O     O_R   0.527700 0.614770 0.606110 -0.585571
O2    O     O_R   0.472300 0.385230 0.393890 -0.593920
O3    O     O_R   0.492440 0.468680 0.639380 -0.594389
O4    O     O_R   0.507560 0.531320 0.360620 -0.613849
O5    O     O_R   0.379820 0.583550 0.480950 -0.604408
O6    O     O_R   0.620180 0.416450 0.519050 -0.618867
O7    O     O_R   0.344560 0.437460 0.514220 -0.597651
O8    O     O_R   0.655440 0.562540 0.485780 -0.583261
Zn1   Zn    Zn3+2 0.523550 0.597550 0.477790 0.956414
Zn2   Zn    Zn3+2 0.476450 0.402450 0.522210 0.947118

loop_
_geom_bond_atom_site_label_1
_geom_bond_atom_site_label_2
_ccdc_geom_bond_type
C66   C68   A    
C11   C18   A    
C34   C56   A    
C23   C45   A    
C37   N6    S    
C18   C21   A    
C33   C45   A    
C41   C42   A    
C12   O4    A    
C71   H46   S    
C19   C20   A    
C66   H31   S    
C75   C76   A    
C4    C56   A    
C64   H29   S    
C69   N6    S    
C40   C46   A    
C69   H37   S    
C71   H44   S    
H18   N5    S    
C28   C29   S    
C35   C37   A    
O6    Zn2   S    
C44   H6    S    
C42   H4    S    
C11   C14   A    
C70   H41   S    
C74   H57   S    
C4    C62   S    
C1    C31   S    
C33   C36   A    
C53   N4    S    
C32   C39   A    
C23   C67   A    
H55   N2    S    
C20   N4    S    
C6    C15   A    
O4    Zn1   S    
C3    C55   S    
N1    Zn2   S    
C53   H15   S    
C2    H56   S    
C54   H21   S    
C1    O1    A    
C8    N3    A    
C38   H34   S    
C54   H20   S    
C34   C75   A    
C54   N5    S    
C59   C60   A    
C12   C32   S    
O7    Zn2   S    
C52   H13   S    
C8    N10   S    
C16   O7    A    
C60   H26   S    
C17   O6    A    
C9    N1    A    
C44   C46   A    
C16   C26   S    
C73   H53   S    
C6    C47   S    
C13   C19   A    
C73   N10   S    
C53   H17   S    
C51   C52   A    
C59   H25   S    
O3    Zn2   S    
C12   O2    A    
H42   N8    S    
C58   H24   S    
C21   N5    S    
C2    C67   A    
C51   H11   S    
C74   H58   S    
C5    C7    A    
C18   C19   A    
C6    C8    A    
C70   H40   S    
C58   C59   A    
C63   C64   A    
C74   N2    S    
C3    C45   A    
C34   C39   A    
C22   H60   S    
C60   C61   A    
C10   N3    A    
O8    Zn1   S    
C2    C4    A    
C43   C44   A    
C62   C63   A    
C3    C76   A    
C49   H9    S    
C39   H23   S    
C47   C48   A    
C74   H59   S    
C53   H16   S    
C50   C51   A    
C54   H19   S    
C70   N7    S    
C35   N9    S    
C32   C37   A    
C28   H1    S    
C9    C11   A    
C5    C14   A    
H14   N4    S    
N3    Zn1   S    
C15   C24   A    
C20   C22   A    
C49   C50   A    
C13   C15   A    
C70   H39   S    
C21   C24   A    
C67   C75   A    
C42   C43   A    
C76   H45   S    
C72   N9    S    
C65   H30   S    
C16   O5    A    
C25   C30   T    
C73   H54   S    
C48   C49   A    
O2    Zn2   S    
C61   H27   S    
C35   C56   A    
H38   N7    S    
H47   N9    S    
C63   H28   S    
C10   C13   A    
C41   H3    S    
C31   C38   A    
C47   C52   A    
C71   H43   S    
C24   H61   S    
C73   H52   S    
C10   H62   S    
H51   N10   S    
C23   C38   A    
C62   C68   A    
C72   H49   S    
C17   C25   S    
C64   C65   A    
C14   C22   A    
C55   C57   A    
C7    N1    A    
C69   H35   S    
C57   C58   A    
C7    N2    S    
C43   H5    S    
C57   H22   S    
C55   C61   A    
C69   H36   S    
C1    O3    A    
H33   N6    S    
C9    H2    S    
O5    Zn1   S    
C27   H12   S    
C33   N8    S    
C50   H10   S    
C46   H7    S    
C48   H8    S    
C36   N7    S    
C71   N8    S    
C26   C29   T    
C65   C66   A    
C5    C40   S    
C72   H50   S    
C27   C28   D    
C31   C36   A    
C40   C41   A    
C68   H32   S    
C17   O8    A    
O1    Zn1   S    
C72   H48   S    
C27   C30   S    
