data_mof_unit_29607.cif
_audit_creation_date              2012-12-11T15:34:51-0500
_audit_creation_method            fapswitch 2.2
_symmetry_space_group_name_H-M    P1
_symmetry_Int_Tables_number       1
_space_group_crystal_system       triclinic
_cell_length_a                    30.415438
_cell_length_b                    7.255525
_cell_length_c                    25.998856
_cell_angle_alpha                 89.999542
_cell_angle_beta                  112.279389
_cell_angle_gamma                 90.000944
_cell_volume                      5309.10584222

loop_
_atom_site_label
_atom_site_type_symbol
_atom_type_description
_atom_site_fract_x
_atom_site_fract_y
_atom_site_fract_z
_atom_type_partial_charge
O1    O     O_R   0.295360 0.592990 0.320420 -0.535361
O2    O     O_R   0.704640 0.407010 0.679580 -0.535360
O3    O     O_R   0.204640 0.092990 0.179580 -0.535358
O4    O     O_R   0.795360 0.907010 0.820420 -0.535363
O5    O     O_R   0.294060 0.265620 0.213230 -0.540139
O6    O     O_R   0.705940 0.734380 0.786770 -0.540141
O7    O     O_R   0.205940 0.765620 0.286770 -0.540143
O8    O     O_R   0.794060 0.234380 0.713230 -0.540144
C1    C     C_R   0.304166 0.432518 0.199843 0.790654
C2    C     C_R   0.695833 0.567482 0.800157 0.790643
C3    C     C_R   0.195834 0.932514 0.300158 0.790651
C4    C     C_R   0.804165 0.067486 0.699842 0.790651
O9    O     O_R   0.300850 0.263360 0.322080 -0.517931
O10   O     O_R   0.699150 0.736640 0.677920 -0.517933
O11   O     O_R   0.199150 0.763360 0.177920 -0.517933
O12   O     O_R   0.800850 0.236640 0.822080 -0.517933
O13   O     O_R   0.211480 0.091820 0.289210 -0.521473
O14   O     O_R   0.788520 0.908180 0.710790 -0.521473
O15   O     O_R   0.288520 0.591820 0.210790 -0.521475
O16   O     O_R   0.711480 0.408180 0.789210 -0.521464
C5    C     C_R   0.313431 0.432026 0.343235 0.695112
C6    C     C_R   0.686569 0.567974 0.656765 0.695107
C7    C     C_R   0.186568 0.932024 0.156765 0.695113
C8    C     C_R   0.813432 0.067975 0.843235 0.695125
O17   O     O_3   0.220670 0.426670 0.239090 -0.375856
O18   O     O_3   0.779330 0.573330 0.760910 -0.375859
O19   O     O_3   0.279330 0.926670 0.260910 -0.375854
O20   O     O_3   0.720670 0.073330 0.739090 -0.375850
V1    V     V_3+5 0.255440 0.152290 0.252020 1.551004
V2    V     V_3+5 0.744560 0.847710 0.747980 1.550997
V3    V     V_3+5 0.244560 0.652290 0.247980 1.550998
V4    V     V_3+5 0.755440 0.347710 0.752020 1.551002
C9    C     C_R   0.850088 0.056529 0.899979 -0.085597
C10   C     C_R   0.149912 0.943469 0.100020 -0.085591
C11   C     C_R   0.649913 0.556521 0.600020 -0.085580
C12   C     C_R   0.350087 0.443479 0.399980 -0.085582
C13   C     C_R   0.869399 0.008282 0.998652 0.141806
C14   C     C_R   0.130602 0.991710 0.001347 0.141808
C15   C     C_R   0.630603 0.508194 0.501351 0.141823
C16   C     C_R   0.369398 0.491806 0.498649 0.141825
C17   C     C_R   0.836137 0.043501 0.944981 -0.086117
C18   C     C_R   0.163863 0.956491 0.055018 -0.086090
C19   C     C_R   0.663865 0.543439 0.555020 -0.086084
C20   C     C_R   0.336135 0.456560 0.444980 -0.086086
C21   C     C_R   0.898543 0.050758 0.909368 -0.094467
C22   C     C_R   0.101457 0.949243 0.090631 -0.094463
C23   C     C_R   0.601457 0.550780 0.590630 -0.094454
C24   C     C_R   0.398543 0.449222 0.409369 -0.094457
C25   C     C_R   0.933594 0.028158 0.963705 0.077289
C26   C     C_R   0.066406 0.971841 0.036294 0.077288
C27   C     C_R   0.566407 0.528151 0.536294 0.077299
C28   C     C_R   0.433594 0.471851 0.463705 0.077298
C29   C     C_R   0.918080 0.977840 0.006972 -0.027094
C30   C     C_R   0.081921 0.022155 0.993028 -0.027096
C31   C     C_R   0.581921 0.477776 0.493033 -0.027093
C32   C     C_R   0.418079 0.522225 0.506966 -0.027090
C33   C     C_R   0.983476 0.040282 0.975181 -0.110279
C34   C     C_R   0.016525 0.959716 0.024818 -0.110280
C35   C     C_R   0.516525 0.540299 0.524815 -0.110272
C36   C     C_R   0.483475 0.459704 0.475183 -0.110273
C37   C     C_R   0.998343 0.861884 0.059776 0.357275
C38   C     C_R   0.001657 0.138113 0.940223 0.357274
C39   C     C_R   0.501656 0.361821 0.440234 0.357283
C40   C     C_R   0.498345 0.638183 0.559764 0.357279
C41   C     C_R   0.950652 0.883820 0.053861 0.336190
C42   C     C_R   0.049348 0.116174 0.946139 0.336192
C43   C     C_R   0.549348 0.383724 0.446151 0.336186
C44   C     C_R   0.450652 0.616279 0.553848 0.336185
H1    H     H_    0.091663 0.946733 0.126434 0.139490
H2    H     H_    0.908337 0.053271 0.873566 0.139491
H3    H     H_    0.408337 0.446671 0.373567 0.139490
H4    H     H_    0.591663 0.553334 0.626432 0.139484
H5    H     H_    0.201208 0.943222 0.062022 0.172934
H6    H     H_    0.798793 0.056764 0.937978 0.172947
H7    H     H_    0.298791 0.443312 0.437977 0.172913
H8    H     H_    0.701210 0.556685 0.562023 0.172913
C45   C     C_R   0.093071 0.979853 0.480846 0.724833
C46   C     C_R   0.906929 0.020147 0.519154 0.724832
C47   C     C_R   0.406929 0.480011 0.019155 0.724823
C48   C     C_R   0.593070 0.520186 0.980839 0.724843
N1    N     N_R   0.073300 0.959108 0.423824 -0.535180
N2    N     N_R   0.926700 0.040892 0.576176 -0.535180
N3    N     N_R   0.426699 0.459228 0.076177 -0.535181
N4    N     N_R   0.573297 0.540953 0.923817 -0.535177
C49   C     C_R   0.027768 0.888397 0.402644 0.651387
C50   C     C_R   0.972232 0.111603 0.597356 0.651387
C51   C     C_R   0.472229 0.388507 0.097354 0.651390
C52   C     C_R   0.527770 0.611713 0.902643 0.651406
C53   C     C_R   0.995852 0.922066 0.429616 -0.121628
C54   C     C_R   0.004148 0.077934 0.570384 -0.121628
C55   C     C_R   0.504146 0.422183 0.070383 -0.121629
C56   C     C_R   0.495854 0.578077 0.929618 -0.121625
C57   C     C_R   0.014862 0.985720 0.484972 -0.059298
C58   C     C_R   0.985137 0.014280 0.515028 -0.059298
C59   C     C_R   0.485138 0.485864 0.015029 -0.059296
C60   C     C_R   0.514863 0.514406 0.984972 -0.059296
C61   C     C_R   0.064075 0.010943 0.511264 -0.104371
C62   C     C_R   0.935924 0.989057 0.488736 -0.104371
C63   C     C_R   0.435926 0.511114 0.988739 -0.104370
C64   C     C_R   0.564074 0.489137 0.011261 -0.104369
C65   C     C_R   0.946018 0.895969 0.403622 0.415321
C66   C     C_R   0.053981 0.104031 0.596378 0.415321
C67   C     C_R   0.553978 0.396056 0.096375 0.415324
C68   C     C_R   0.446023 0.604213 0.903626 0.415313
C69   C     C_R   0.916699 0.933028 0.432902 -0.116831
C70   C     C_R   0.083300 0.066972 0.567098 -0.116831
C71   C     C_R   0.583298 0.433094 0.067093 -0.116832
C72   C     C_R   0.416703 0.567168 0.932907 -0.116835
O21   O     O_2   0.140070 0.956299 0.509023 -0.455098
O22   O     O_2   0.859930 0.043700 0.490977 -0.455099
O23   O     O_2   0.359930 0.456471 0.990976 -0.455096
O24   O     O_2   0.640071 0.543676 0.009013 -0.455099
O25   O     O_2   0.014732 0.772875 0.358934 -0.466568
O26   O     O_2   0.985268 0.227125 0.641065 -0.466567
O27   O     O_2   0.485263 0.272967 0.141059 -0.466568
O28   O     O_2   0.514740 0.727251 0.858938 -0.466569
H9    H     H_    0.878695 0.914077 0.411992 0.217830
H10   H     H_    0.121305 0.085922 0.588008 0.217830
H11   H     H_    0.621301 0.414114 0.088002 0.217828
H12   H     H_    0.378699 0.586139 0.911998 0.217829
C73   C     C_R   0.917566 0.037359 0.670323 0.109767
C74   C     C_R   0.082434 0.962640 0.329677 0.109768
C75   C     C_R   0.582426 0.537431 0.829668 0.109771
C76   C     C_R   0.417566 0.462712 0.170325 0.109787
C77   C     C_R   0.886504 0.080948 0.697938 0.016826
C78   C     C_R   0.113496 0.919052 0.302062 0.016826
C79   C     C_R   0.613493 0.580999 0.802057 0.016834
C80   C     C_R   0.386505 0.419091 0.197938 0.016847
C81   C     C_R   0.836951 0.054179 0.669854 -0.202121
C82   C     C_R   0.163049 0.945820 0.330146 -0.202123
C83   C     C_R   0.663044 0.554169 0.830140 -0.202120
C84   C     C_R   0.336951 0.445837 0.169854 -0.202116
C85   C     C_R   0.820376 0.972717 0.616704 0.280445
C86   C     C_R   0.179624 0.027283 0.383296 0.280445
C87   C     C_R   0.679610 0.472653 0.883283 0.280467
C88   C     C_R   0.320374 0.527310 0.116705 0.280446
C89   C     C_R   0.851836 0.937517 0.589832 0.397686
C90   C     C_R   0.148164 0.062483 0.410168 0.397686
C91   C     C_R   0.648146 0.437471 0.910151 0.397686
C92   C     C_R   0.351834 0.562553 0.089836 0.397695
C93   C     C_R   0.898600 0.011168 0.611456 0.142581
C94   C     C_R   0.101399 0.988832 0.388544 0.142581
C95   C     C_R   0.601390 0.511191 0.888533 0.142584
C96   C     C_R   0.398600 0.488923 0.111458 0.142582
Cl1   Cl    Cl    0.931503 0.757702 0.100028 -0.526008
Cl2   Cl    Cl    0.068498 0.242288 0.899970 -0.526000
Cl3   Cl    Cl    0.568500 0.257523 0.400001 -0.525992
Cl4   Cl    Cl    0.431501 0.742481 0.599998 -0.526004
Cl5   Cl    Cl    0.760022 0.907704 0.583762 -0.575346
Cl6   Cl    Cl    0.239978 0.092296 0.416238 -0.575346
Cl7   Cl    Cl    0.739959 0.407574 0.916224 -0.575386
Cl8   Cl    Cl    0.260018 0.592286 0.083762 -0.575370
Cl9   Cl    Cl    0.837702 0.749310 0.542810 -0.480793
Cl10  Cl    Cl    0.162297 0.250690 0.457190 -0.480792
Cl11  Cl    Cl    0.662263 0.249239 0.957164 -0.480789
Cl12  Cl    Cl    0.337698 0.750794 0.042826 -0.480805
C97   C     C_3   0.851660 0.019962 0.045416 -0.515018
H13   H     H_    0.821518 0.118386 0.035011 0.225390
H14   H     H_    0.838866 0.882984 0.052745 0.253129
H15   H     H_    0.879782 0.073430 0.083842 0.239252
C98   C     C_3   0.148340 0.980026 0.954583 -0.514998
H16   H     H_    0.178483 0.881602 0.964989 0.225395
H17   H     H_    0.120218 0.926556 0.916157 0.239249
H18   H     H_    0.161134 0.117003 0.947254 0.253134
C99   C     C_3   0.648342 0.519827 0.454586 -0.515009
H19   H     H_    0.678480 0.618271 0.464982 0.225389
H20   H     H_    0.661142 0.382843 0.447273 0.253129
H21   H     H_    0.620218 0.573244 0.416154 0.239245
C100  C     C_3   0.351660 0.480173 0.545414 -0.515012
H22   H     H_    0.321522 0.381727 0.535019 0.225389
H23   H     H_    0.379783 0.426757 0.583846 0.239243
H24   H     H_    0.338859 0.617156 0.552727 0.253129
Cl13  Cl    Cl    0.031267 0.679898 0.103135 -0.587261
Cl14  Cl    Cl    0.968734 0.320100 0.896864 -0.587263
Cl15  Cl    Cl    0.468727 0.179824 0.396884 -0.587221
Cl16  Cl    Cl    0.531273 0.820185 0.603113 -0.587231
Cl17  Cl    Cl    0.917374 0.831794 0.333288 -0.470028
Cl18  Cl    Cl    0.082625 0.168205 0.666712 -0.470026
Cl19  Cl    Cl    0.582621 0.331865 0.166708 -0.470041
Cl20  Cl    Cl    0.417380 0.668408 0.833293 -0.470050
C101  C     C_3   0.966943 0.968550 0.705704 -0.515464
H25   H     H_    0.984612 0.898848 0.680767 0.214182
H26   H     H_    0.989508 0.082793 0.730204 0.263731
H27   H     H_    0.964383 0.862007 0.735101 0.189301
C102  C     C_3   0.033057 0.031450 0.294296 -0.515466
H28   H     H_    0.010492 0.917207 0.269796 0.263730
H29   H     H_    0.015388 0.101152 0.319233 0.214182
H30   H     H_    0.035617 0.137992 0.264899 0.189302
C103  C     C_3   0.533043 0.468687 0.794283 -0.515475
H31   H     H_    0.515367 0.399003 0.819215 0.214196
H32   H     H_    0.510490 0.582962 0.769787 0.263721
H33   H     H_    0.535595 0.362146 0.764881 0.189295
C104  C     C_3   0.466943 0.531524 0.205707 -0.515498
H34   H     H_    0.489508 0.417279 0.230205 0.263714
H35   H     H_    0.484612 0.601238 0.180772 0.214187
H36   H     H_    0.464382 0.638055 0.235106 0.189303
C105  C     C_3   0.907413 0.140786 0.758293 -0.633968
H37   H     H_    0.880577 0.192798 0.773889 0.188786
H38   H     H_    0.926061 0.023619 0.785116 0.205604
H39   H     H_    0.933098 0.254624 0.763242 0.261453
C106  C     C_3   0.092587 0.859216 0.241707 -0.633970
H40   H     H_    0.119423 0.807201 0.226111 0.188788
H41   H     H_    0.066901 0.745379 0.236757 0.261453
H42   H     H_    0.073940 0.976383 0.214884 0.205603
C107  C     C_3   0.592590 0.640893 0.741707 -0.633958
H43   H     H_    0.619431 0.692837 0.726108 0.188774
H44   H     H_    0.573920 0.523774 0.714876 0.205614
H45   H     H_    0.566924 0.754792 0.736769 0.261421
C108  C     C_3   0.407414 0.359239 0.258292 -0.634011
H46   H     H_    0.380579 0.307211 0.273887 0.188787
H47   H     H_    0.433100 0.245409 0.263239 0.261439
H48   H     H_    0.426061 0.476404 0.285117 0.205592

loop_
_geom_bond_atom_site_label_1
_geom_bond_atom_site_label_2
_ccdc_geom_bond_type
O17   V3    S    
N3    C51   A    
C25   C29   A    
O1    C5    A    
C97   H13   S    
C51   C55   A    
O12   V4    S    
O19   V1    S    
C9    C21   A    
C100  H22   S    
C72   H12   S    
O3    C7    A    
C59   C60   A    
C10   C18   A    
C56   C60   A    
C85   C89   A    
C48   N4    A    
C11   C23   A    
C98   H16   S    
C102  H28   S    
C25   C33   A    
C33   C38   A    
C5    C12   S    
C27   C31   A    
C101  H25   S    
C87   C91   A    
C6    C11   S    
C35   C40   A    
C57   C58   A    
C62   C69   A    
C36   C39   A    
C40   C44   A    
C47   C63   A    
C14   C18   A    
C83   C87   A    
N3    C96   S    
O4    C8    A    
C59   C63   A    
C102  H29   S    
C78   C82   A    
C38   Cl14  S    
O1    V3    S    
C108  H48   S    
O13   V1    S    
C31   C43   A    
O2    V4    S    
C106  H40   S    
C13   C97   S    
O3    V1    S    
C2    C83   S    
C54   C66   A    
C22   H1    S    
C89   C93   A    
C28   C36   A    
C88   Cl8   S    
C17   H6    S    
C91   C95   A    
C1    O15   A    
C14   C98   S    
C15   C31   A    
C52   C56   A    
C20   H7    S    
C2    O16   A    
C16   C32   A    
C76   C104  S    
C46   C62   A    
C45   C61   A    
C10   C22   A    
C21   C25   A    
O8    C4    A    
C75   C103  S    
C11   C19   A    
C16   C20   A    
C51   O27   S    
C44   Cl4   S    
C88   C92   A    
C76   C80   A    
C13   C29   A    
C90   Cl10  S    
C34   C37   A    
O11   C7    A    
O15   V3    S    
C35   C36   A    
O12   C8    A    
C70   H10   S    
C53   C57   A    
C106  H41   S    
C69   H9    S    
C82   C86   A    
O10   V2    S    
N2    C93   S    
C80   C84   A    
C71   H11   S    
C16   C100  S    
C98   H17   S    
N1    C49   A    
C54   C58   A    
O5    V1    S    
C107  H44   S    
C78   C106  S    
C65   C69   A    
C39   C43   A    
O7    V3    S    
C4    C81   S    
C38   C42   A    
O9    C5    A    
C103  H33   S    
C26   C34   A    
C73   C93   A    
C37   Cl13  S    
C52   O28   S    
C50   C54   A    
C101  H26   S    
C85   Cl5   S    
C49   C53   A    
O18   V4    S    
C102  H30   S    
C15   C19   A    
C15   C99   S    
C1    C84   S    
N4    C95   S    
C104  H35   S    
C32   C44   A    
C55   C59   A    
O11   V3    S    
O4    V2    S    
O8    V4    S    
C74   C78   A    
C105  H39   S    
O7    C3    A    
O5    C1    A    
C63   C72   A    
C37   C41   A    
C80   C108  S    
C46   N2    A    
C75   C79   A    
C14   C30   A    
C91   Cl11  S    
C84   C88   A    
C104  H36   S    
C48   O24   S    
C4    O14   A    
C108  H46   S    
C89   Cl9   S    
C103  H31   S    
C46   O22   S    
C26   C30   A    
C45   O21   S    
C92   Cl12  S    
C81   C85   A    
C61   C70   A    
N1    C94   S    
O6    V2    S    
C73   C77   A    
C104  H34   S    
C99   H21   S    
C90   C94   A    
O14   V2    S    
C66   Cl18  S    
C106  H42   S    
C12   C20   A    
C97   H14   S    
C27   C35   A    
C74   C94   A    
C24   H3    S    
C41   Cl1   S    
C3    C82   S    
C57   C61   A    
C68   C72   A    
C98   H18   S    
C29   C41   A    
C73   C101  S    
O16   V4    S    
C107  H45   S    
O9    V1    S    
C19   H8    S    
C107  H43   S    
C3    O13   A    
C64   C71   A    
C101  H27   S    
C53   C65   A    
C21   H2    S    
C92   C96   A    
C55   C67   A    
C74   C102  S    
C86   C90   A    
C23   C27   A    
C39   Cl15  S    
C30   C42   A    
C97   H15   S    
C22   C26   A    
C8    C9    S    
C47   O23   S    
C50   O26   S    
C9    C17   A    
O10   C6    A    
C105  H38   S    
C40   Cl16  S    
C79   C107  S    
O20   V2    S    
N2    C50   A    
O2    C6    A    
C43   Cl3   S    
C33   C34   A    
C68   Cl20  S    
N4    C52   A    
C87   Cl7   S    
C60   C64   A    
C49   O25   S    
C18   H5    S    
C12   C24   A    
C67   Cl19  S    
C58   C62   A    
C13   C17   A    
C105  H37   S    
C79   C83   A    
C23   H4    S    
C42   Cl2   S    
C65   Cl17  S    
O6    C2    A    
C56   C68   A    
C77   C105  S    
C47   N3    A    
C77   C81   A    
C99   H19   S    
C24   C28   A    
C7    C10   S    
C99   H20   S    
C45   N1    A    
C66   C70   A    
C75   C95   A    
C108  H47   S    
C76   C96   A    
C67   C71   A    
C100  H24   S    
C103  H32   S    
C48   C64   A    
C28   C32   A    
C100  H23   S    
C86   Cl6   S    
