data_mof_unit_63975.cif
_audit_creation_date              2013-03-05T16:42:32-0500
_audit_creation_method            fapswitch 2.2
_symmetry_space_group_name_H-M    P1
_symmetry_Int_Tables_number       1
_space_group_crystal_system       triclinic
_cell_length_a                    17.758841
_cell_length_b                    16.413266
_cell_length_c                    19.360349
_cell_angle_alpha                 90.000471
_cell_angle_beta                  89.995428
_cell_angle_gamma                 90.003146
_cell_volume                      5643.1657518

loop_
_atom_site_label
_atom_site_type_symbol
_atom_site_description
_atom_site_fract_x
_atom_site_fract_y
_atom_site_fract_z
_atom_type_partial_charge
O1    O     O_R   0.391260 0.567930 0.500000 -0.570255
O2    O     O_R   0.608740 0.432070 0.500000 -0.569710
O3    O     O_R   0.608740 0.567930 0.500000 -0.570229
O4    O     O_R   0.391260 0.432070 0.500000 -0.569664
C1    C     C_R   0.355227 0.499996 0.500015 0.790393
C2    C     C_R   0.644775 0.499999 0.500005 0.790107
O5    O     O_R   0.499990 0.567930 0.400140 -0.586876
O6    O     O_R   0.500010 0.432070 0.599860 -0.587202
O7    O     O_R   0.500010 0.567930 0.599860 -0.586821
O8    O     O_R   0.499990 0.432070 0.400140 -0.587035
C3    C     C_R   0.499970 0.499998 0.367161 0.780243
C4    C     C_R   0.500015 0.499999 0.632838 0.779915
Cu1   Cu    Cu3+1 0.500000 0.580420 0.500000 0.950316
Cu2   Cu    Cu3+1 0.500000 0.419580 0.500000 0.950570
C5    C     C_R   0.490132 0.573038 0.254782 -0.209934
C6    C     C_R   0.489975 0.426981 0.745210 -0.209861
C7    C     C_R   0.510044 0.573002 0.745219 -0.209947
C8    C     C_R   0.509669 0.426932 0.254781 -0.209729
H1    H     H_    0.482058 0.630195 0.281754 0.142178
H2    H     H_    0.481696 0.369862 0.718234 0.141805
H3    H     H_    0.518337 0.630123 0.718250 0.142149
H4    H     H_    0.517740 0.369775 0.281751 0.142004
C9    C     C_R   0.490377 0.573099 0.182832 -0.164864
C10   C     C_R   0.490218 0.426910 0.817160 -0.164840
C11   C     C_R   0.509758 0.573066 0.817169 -0.164874
C12   C     C_R   0.509381 0.426861 0.182831 -0.165050
H5    H     H_    0.482649 0.630408 0.156054 0.148539
H6    H     H_    0.482281 0.369632 0.843934 0.148507
H7    H     H_    0.517680 0.630341 0.843951 0.148551
H8    H     H_    0.517089 0.369548 0.156053 0.148514
C13   C     C_R   0.499877 0.499979 0.146142 0.064503
C14   C     C_R   0.499973 0.499987 0.853854 0.064465
C15   C     C_R   0.499926 0.499991 0.291322 -0.029760
C16   C     C_R   0.500014 0.499995 0.708676 -0.029808
N1    N     N_R   0.499810 0.428829 0.034340 -0.246691
N2    N     N_R   0.500101 0.571136 0.965656 -0.246669
N3    N     N_R   0.499750 0.428831 0.965652 -0.246687
N4    N     N_R   0.499990 0.571134 0.034344 -0.246668
C17   C     C_R   0.499941 0.499985 0.929948 0.407642
C18   C     C_R   0.499887 0.499980 0.070048 0.407648
C19   C     C_R   0.847221 0.564406 0.469808 -0.199912
C20   C     C_R   0.152853 0.435443 0.469768 -0.199961
C21   C     C_R   0.152808 0.564353 0.530396 -0.199903
C22   C     C_R   0.847137 0.435433 0.530332 -0.199994
H9    H     H_    0.878350 0.613866 0.445984 0.138216
H10   H     H_    0.121788 0.385966 0.445905 0.138238
H11   H     H_    0.121696 0.613791 0.554267 0.138219
H12   H     H_    0.878196 0.385934 0.554164 0.138210
C23   C     C_R   0.768566 0.564913 0.468659 -0.027530
C24   C     C_R   0.231503 0.435033 0.468640 -0.027692
C25   C     C_R   0.231464 0.564868 0.531502 -0.027567
C26   C     C_R   0.768484 0.435005 0.531427 -0.027494
C27   C     C_R   0.728035 0.499979 0.500031 -0.132106
C28   C     C_R   0.271970 0.499971 0.500059 -0.132089
C29   C     C_R   0.885985 0.499900 0.500080 0.111508
C30   C     C_R   0.114024 0.499876 0.500090 0.111502
C31   C     C_1   0.966288 0.499860 0.500090 -0.051481
C32   C     C_1   0.033721 0.499851 0.500091 -0.051477
C33   C     C_R   0.545091 0.828908 0.546365 -0.293387
C34   C     C_R   0.544010 0.171086 0.452757 -0.293839
C35   C     C_R   0.454922 0.828915 0.453652 -0.293378
C36   C     C_R   0.456039 0.171082 0.547286 -0.294363
H13   H     H_    0.580816 0.860544 0.582909 0.129869
H14   H     H_    0.578859 0.139447 0.415488 0.129916
H15   H     H_    0.419200 0.860557 0.417112 0.129892
H16   H     H_    0.421199 0.139441 0.584562 0.129962
C37   C     C_R   0.544323 0.743009 0.545507 0.101155
C38   C     C_R   0.543279 0.256984 0.453632 0.101158
C39   C     C_R   0.455680 0.743016 0.454499 0.101047
C40   C     C_R   0.456746 0.256981 0.546390 0.100860
H17   H     H_    0.579547 0.709788 0.581333 0.111578
H18   H     H_    0.577691 0.290195 0.417118 0.111221
H19   H     H_    0.420452 0.709799 0.418669 0.111608
H20   H     H_    0.422332 0.290188 0.582901 0.111175
N5    N     N_R   0.500000 0.701220 0.500000 -0.157070
N6    N     N_R   0.500000 0.298780 0.500000 -0.156515
C41   C     C_R   0.500009 0.873046 0.500011 0.145253
C42   C     C_R   0.500025 0.126949 0.500023 0.145268
C43   C     C_1   0.500016 0.962679 0.500016 -0.057627
C44   C     C_1   0.500021 0.037317 0.500020 -0.057755
C45   C     C_R   0.730745 0.633127 0.432628 0.131283
C46   C     C_R   0.733529 0.712082 0.460436 -0.152997
C47   C     C_R   0.695446 0.776000 0.427871 -0.131496
C48   C     C_R   0.654909 0.761613 0.367210 -0.106300
C49   C     C_R   0.652796 0.683388 0.338744 -0.120871
C50   C     C_R   0.690496 0.619193 0.371279 -0.105015
H21   H     H_    0.764112 0.723739 0.507816 0.119754
H22   H     H_    0.696976 0.836594 0.449885 0.127866
H23   H     H_    0.625218 0.811090 0.342236 0.121958
H24   H     H_    0.621857 0.672500 0.291523 0.127778
H25   H     H_    0.687830 0.558646 0.349148 0.105134
C51   C     C_R   0.269430 0.366937 0.432567 0.131482
C52   C     C_R   0.267675 0.288164 0.460829 -0.151054
C53   C     C_R   0.306049 0.224433 0.428279 -0.130693
C54   C     C_R   0.345836 0.238827 0.367187 -0.106329
C55   C     C_R   0.346934 0.316874 0.338295 -0.121449
C56   C     C_R   0.308974 0.380891 0.370831 -0.106981
H26   H     H_    0.237709 0.276531 0.508554 0.119379
H27   H     H_    0.305342 0.163989 0.450644 0.127985
H28   H     H_    0.375753 0.189499 0.342225 0.121819
H29   H     H_    0.377314 0.327771 0.290759 0.128015
H30   H     H_    0.310891 0.441325 0.348395 0.105795
C57   C     C_R   0.269319 0.633056 0.567544 0.131227
C58   C     C_R   0.266530 0.712028 0.539774 -0.152902
C59   C     C_R   0.304657 0.775920 0.572340 -0.131463
C60   C     C_R   0.345240 0.761489 0.632967 -0.106357
C61   C     C_R   0.347359 0.683247 0.661396 -0.120784
C62   C     C_R   0.309618 0.619078 0.628857 -0.105075
H31   H     H_    0.235913 0.723719 0.492420 0.119753
H32   H     H_    0.303124 0.836527 0.550354 0.127877
H33   H     H_    0.374964 0.810946 0.657942 0.121954
H34   H     H_    0.378335 0.672324 0.708589 0.127906
H35   H     H_    0.312291 0.558515 0.650958 0.105126
C63   C     C_R   0.730555 0.366808 0.567391 0.131225
C64   C     C_R   0.732951 0.287953 0.539352 -0.151911
C65   C     C_R   0.694635 0.224095 0.571786 -0.130913
C66   C     C_R   0.654265 0.238442 0.632552 -0.106519
C67   C     C_R   0.652538 0.316564 0.661245 -0.121018
C68   C     C_R   0.690459 0.380703 0.628832 -0.105536
H36   H     H_    0.763388 0.276340 0.491883 0.119657
H37   H     H_    0.695851 0.163585 0.549589 0.127944
H38   H     H_    0.624390 0.189015 0.657423 0.121944
H39   H     H_    0.621708 0.327424 0.708534 0.127874
H40   H     H_    0.688060 0.441185 0.651118 0.105340

loop_
_geom_bond_atom_site_label_1
_geom_bond_atom_site_label_2
_geom_bond_distance
_ccdc_geom_bond_type
C22   H12   1.085021 S    
C59   H32   1.082350 S    
C52   C53   1.398474 A    
C61   H34   1.081502 S    
C54   C55   1.397934 A    
C8    C12   1.392991 A    
O3    C2    1.285595 A    
C33   C41   1.404053 A    
C63   C64   1.404149 A    
C68   H40   1.083250 S    
C13   C18   1.473206 S    
O5    C3    1.284842 A    
C34   C42   1.404331 A    
C24   C28   1.422134 A    
O1    C1    1.285552 A    
N1    N3    1.329830 A    
C50   H25   1.083252 S    
C58   H31   1.083072 S    
C42   C44   1.471160 S    
C60   C61   1.397706 A    
C25   C57   1.480334 S    
C46   H21   1.083074 S    
C65   C66   1.397616 A    
C36   C40   1.410036 A    
C20   H10   1.085017 S    
C14   C17   1.473208 S    
C23   C45   1.480349 S    
O7    Cu1   1.944163 S    
C67   C68   1.398349 A    
C19   C29   1.392295 A    
C33   C37   1.410034 A    
Cu1   N5    1.982721 S    
C35   C41   1.404062 A    
C40   H20   1.081768 S    
C61   C62   1.398333 A    
C39   H19   1.081580 S    
C57   C62   1.404993 A    
C9    H5    1.082772 S    
C56   H30   1.083384 S    
O3    Cu1   1.941959 S    
C6    H2    1.083186 S    
C20   C30   1.392315 A    
C22   C26   1.396977 A    
C11   C14   1.404742 A    
C5    C9    1.392988 A    
C47   H22   1.082351 S    
C12   C13   1.404756 A    
C6    C10   1.392987 A    
Cu1   Cu2   2.639911 S    
O2    C2    1.285504 A    
C19   C23   1.397027 A    
C58   C59   1.398460 A    
O7    C4    1.284828 A    
C51   C56   1.405003 A    
C45   C46   1.404150 A    
C60   H33   1.082297 S    
C41   C43   1.471167 S    
C11   H7    1.082763 S    
C65   H37   1.082372 S    
C36   H16   1.083168 S    
C1    C28   1.478543 S    
C3    C15   1.468289 S    
C48   C49   1.397708 A    
O8    Cu2   1.944165 S    
C54   H28   1.082291 S    
C49   C50   1.398338 A    
C46   C47   1.398464 A    
C7    H3    1.083184 S    
C38   H18   1.081773 S    
C9    C13   1.404756 A    
C62   H35   1.083252 S    
C5    H1    1.083194 S    
C66   H38   1.082304 S    
C10   C14   1.404743 A    
C47   C48   1.397626 A    
O6    C4    1.284800 A    
C6    C16   1.402919 A    
C55   C56   1.398327 A    
C45   C50   1.404999 A    
C20   C24   1.396915 A    
C24   C51   1.480069 S    
C12   H8    1.082778 S    
C29   C31   1.426083 S    
C40   N6    1.366451 A    
O1    Cu1   1.941938 S    
C48   H23   1.082302 S    
C2    C27   1.478598 S    
C4    C16   1.468256 S    
C26   C27   1.422283 A    
C35   C39   1.410044 A    
O6    Cu2   1.944159 S    
C8    H4    1.083201 S    
C36   C42   1.404324 A    
N2    C17   1.357102 A    
C10   H6    1.082758 S    
O4    C1    1.285515 A    
C49   H24   1.081507 S    
C26   C63   1.480295 S    
C38   N6    1.366430 A    
C59   C60   1.397622 A    
C33   H13   1.082925 S    
C34   H14   1.083158 S    
C25   C28   1.422193 A    
C7    C11   1.392992 A    
N2    N4    1.329827 A    
N1    C18   1.357102 A    
N3    C17   1.357104 A    
C66   C67   1.397736 A    
N4    C18   1.357104 A    
C22   C29   1.392274 A    
C21   C25   1.397037 A    
C31   C32   1.197539 T    
C63   C68   1.404948 A    
C53   H27   1.082519 S    
C23   C27   1.422238 A    
C51   C52   1.404278 A    
C30   C32   1.426079 S    
C39   N5    1.366130 A    
C37   H17   1.081579 S    
C67   H39   1.081500 S    
O4    Cu2   1.941960 S    
C53   C54   1.397794 A    
O2    Cu2   1.941936 S    
C8    C15   1.402961 A    
O8    C3    1.284804 A    
C43   C44   1.225052 T    
C35   H15   1.082925 S    
C21   C30   1.392332 A    
O5    Cu1   1.944161 S    
C37   N5    1.366128 A    
C34   C38   1.410034 A    
C64   H36   1.083056 S    
C7    C16   1.402912 A    
C57   C58   1.404147 A    
C19   H9    1.085023 S    
C55   H29   1.081640 S    
C21   H11   1.085021 S    
C52   H26   1.083188 S    
C5    C15   1.402933 A    
C64   C65   1.398479 A    
Cu2   N6    1.982721 S    
