data_mof_unit_66292.cif
_audit_creation_date              2012-12-10T17:00:08-0500
_audit_creation_method            fapswitch 2.2
_symmetry_space_group_name_H-M    P1
_symmetry_Int_Tables_number       1
_space_group_crystal_system       triclinic
_cell_length_a                    13.172655
_cell_length_b                    13.171878
_cell_length_c                    16.062462
_cell_angle_alpha                 80.354859
_cell_angle_beta                  100.442951
_cell_angle_gamma                 90.876155
_cell_volume                      2701.74161253

loop_
_atom_site_label
_atom_site_type_symbol
_atom_type_description
_atom_site_fract_x
_atom_site_fract_y
_atom_site_fract_z
_atom_type_partial_charge
C1    C     C_R   0.462669 0.777138 0.468880 0.515370
C2    C     C_2   0.055026 0.517474 0.493995 -0.148365
C3    C     C_2   0.888002 0.551653 0.530195 -0.104556
C4    C     C_R   0.537359 0.223461 0.531940 0.509929
C5    C     C_2   0.944524 0.498832 0.490308 -0.150927
C6    C     C_R   0.777036 0.533771 0.524066 0.515644
C7    C     C_R   0.223350 0.466289 0.475121 0.509364
C8    C     C_R   0.515869 0.487636 0.726902 0.503800
C9    C     C_R   0.484062 0.512435 0.273074 0.505161
C10   C     C_1   0.521546 0.483249 0.817362 0.011501
C11   C     C_2   0.529587 0.477043 0.984034 -0.098002
C12   C     C_1   0.470397 0.523056 0.105972 -0.032586
C13   C     C_2   0.461720 0.529791 0.014360 0.005335
C14   C     C_3   0.376676 0.595870 0.955727 -0.370895
C15   C     C_1   0.525669 0.480066 0.893284 -0.044006
C16   C     C_1   0.477060 0.517880 0.182366 0.004929
C17   C     C_2   0.552569 0.112685 0.543888 -0.081104
C18   C     C_2   0.482482 0.055134 0.503402 -0.148806
C19   C     C_2   0.443465 0.888108 0.459330 -0.105105
C20   C     C_2   0.502215 0.944611 0.510556 -0.151789
C21   C     C_2   0.112554 0.452626 0.466071 -0.081082
H1    H     H_    0.079237 0.384588 0.442459 0.093066
H2    H     H_    0.410332 0.657485 0.913270 0.139360
H3    H     H_    0.325438 0.547898 0.915726 0.139005
H4    H     H_    0.625442 0.079315 0.580415 0.094051
H5    H     H_    0.589929 0.430157 0.028254 0.122216
H6    H     H_    0.566880 0.909219 0.558118 0.161668
H7    H     H_    0.412409 0.090403 0.462979 0.132580
H8    H     H_    0.379865 0.923611 0.410779 0.109857
H9    H     H_    0.909152 0.439926 0.454897 0.161989
H10   H     H_    0.090315 0.582284 0.521769 0.132213
H11   H     H_    0.923485 0.609451 0.566721 0.108955
H12   H     H_    0.329177 0.632795 0.993215 0.135971
O1    O     O_3   0.500000 0.500000 0.500000 -0.439753
O2    O     O_R   0.564890 0.556920 0.685230 -0.537579
O3    O     O_R   0.419250 0.562810 0.301190 -0.536032
O4    O     O_R   0.461010 0.422870 0.688230 -0.535231
O5    O     O_R   0.554850 0.457400 0.325340 -0.536593
O6    O     O_R   0.732880 0.470090 0.478000 -0.539915
O7    O     O_R   0.260330 0.535210 0.424090 -0.532607
O8    O     O_R   0.533020 0.732860 0.528350 -0.540286
O9    O     O_R   0.473780 0.261850 0.569570 -0.531973
O10   O     O_R   0.406490 0.723840 0.419860 -0.536388
O11   O     O_R   0.586720 0.281460 0.482230 -0.534842
O12   O     O_R   0.723810 0.584530 0.562340 -0.537303
O13   O     O_R   0.282980 0.410180 0.535580 -0.533896
Zn1   Zn    Zn3+2 0.592010 0.428480 0.447310 0.942539
Zn2   Zn    Zn3+2 0.579060 0.591980 0.567800 0.942260
Zn3   Zn    Zn3+2 0.430650 0.400450 0.572090 0.946247
Zn4   Zn    Zn3+2 0.398290 0.579090 0.412800 0.946609

loop_
_geom_bond_atom_site_label_1
_geom_bond_atom_site_label_2
_ccdc_geom_bond_type
C14   H2    S    
C9    O3    A    
C7    O7    A    
O10   Zn4   S    
C6    O12   A    
O4    Zn3   S    
C19   C20   D    
O11   Zn1   S    
C3    C6    S    
C17   H4    S    
C2    C21   D    
C17   C18   D    
O3    Zn4   S    
C7    C21   S    
C21   H1    S    
C11   C13   D    
O13   Zn3   S    
O5    Zn1   S    
C4    O9    A    
C14   H12   S    
O7    Zn4   S    
C4    C17   S    
C1    O8    A    
C9    O5    A    
C20   H6    S    
O8    Zn2   S    
C18   C20   S    
C10   C15   T    
C3    H11   S    
O1    Zn4   S    
C2    C5    S    
O1    Zn2   S    
C8    O4    A    
O2    Zn2   S    
O9    Zn3   S    
C19   H8    S    
C7    O13   A    
C18   H7    S    
C12   C13   S    
O6    Zn1   S    
C5    H9    S    
O12   Zn2   S    
C14   H3    S    
C6    O6    A    
O1    Zn3   S    
O1    Zn1   S    
C4    O11   A    
C11   H5    S    
C13   C14   S    
C1    C19   S    
C11   C15   S    
C1    O10   A    
C8    C10   S    
C12   C16   T    
C9    C16   S    
C2    H10   S    
C3    C5    D    
C8    O2    A    
