data_mof_unit_33621.cif
_audit_creation_date              2012-12-11T15:32:40-0500
_audit_creation_method            fapswitch 2.2
_symmetry_space_group_name_H-M    P1
_symmetry_Int_Tables_number       1
_space_group_crystal_system       triclinic
_cell_length_a                    7.053581
_cell_length_b                    20.412728
_cell_length_c                    24.233257
_cell_angle_alpha                 90.163025
_cell_angle_beta                  90.400718
_cell_angle_gamma                 89.020159
_cell_volume                      3488.56443799

loop_
_atom_site_label
_atom_site_type_symbol
_atom_type_description
_atom_site_fract_x
_atom_site_fract_y
_atom_site_fract_z
_atom_type_partial_charge
O1    O     O_R   0.507320 0.423560 0.460500 -0.534887
O2    O     O_R   0.170760 0.556250 0.437010 -0.540103
O3    O     O_R   0.004030 0.576440 0.539500 -0.514486
C1    C     C_R   0.337507 0.576296 0.421428 0.713474
O4    O     O_R   0.177370 0.422820 0.454110 -0.526064
O5    O     O_R   0.010680 0.442050 0.556720 -0.527835
C2    C     C_R   0.346777 0.399020 0.443312 0.864892
O6    O     O_R   0.500680 0.557950 0.443280 -0.547543
O7    O     O_3   0.340380 0.506470 0.533650 -0.361185
V1    V     V_3+5 0.064130 0.498800 0.493760 1.516831
O8    O     O_R   0.681160 0.443750 0.562990 -0.540034
C3    C     C_R   0.850422 0.424256 0.578855 0.762903
O9    O     O_R   0.674560 0.577180 0.545890 -0.546875
C4    C     C_R   0.840923 0.601912 0.555702 0.768568
V2    V     V_3+5 0.564560 0.501200 0.506240 1.469956
O10   O     O_3   0.838180 0.493530 0.466350 -0.380212
C5    C     C_R   0.980910 0.837256 0.910704 -0.160551
C6    C     C_R   0.832513 0.664825 0.586421 -0.200284
C7    C     C_R   0.063283 0.722414 0.900108 -0.096302
C8    C     C_R   0.066675 0.779799 0.931174 0.359901
C9    C     C_R   0.908662 0.837617 0.856512 -0.222427
C10   C     C_R   0.904790 0.779675 0.823380 0.065384
C11   C     C_R   0.981535 0.721064 0.846960 -0.098312
C12   C     C_R   0.835461 0.778048 0.767187 -0.160581
C13   C     C_R   0.869121 0.720486 0.734668 -0.136921
C14   C     C_R   0.908298 0.661007 0.762941 0.460669
C15   C     C_R   0.973908 0.661748 0.817399 0.302285
C16   C     C_R   0.726271 0.829741 0.742697 0.380461
C17   C     C_R   0.675718 0.827864 0.686630 0.347819
C18   C     C_R   0.720612 0.772576 0.653632 -0.192618
C19   C     C_R   0.836538 0.721459 0.676201 -0.070390
C20   C     C_R   0.647346 0.765351 0.599246 0.508921
C21   C     C_R   0.702562 0.711754 0.567086 -0.311109
C22   C     C_R   0.912188 0.672524 0.639391 0.395424
H1    H     H_    0.637649 0.705706 0.526717 0.153848
H2    H     H_    0.128930 0.679029 0.917898 0.210280
H3    H     H_    0.870308 0.885119 0.840648 0.187105
C23   C     C_3   0.803847 0.301703 0.769522 0.248924
C24   C     C_3   0.997650 0.280025 0.794468 0.310928
C25   C     C_1   0.963505 0.121459 0.875819 -0.141780
C26   C     C_1   0.859177 0.379751 0.625212 -0.174022
C27   C     C_3   0.744359 0.229032 0.767107 0.321775
C28   C     C_3   0.936767 0.207854 0.792445 -0.163627
C29   C     C_3   0.828253 0.222060 0.708498 0.241523
C30   C     C_3   0.888126 0.295059 0.710482 -0.271861
C31   C     C_3   0.021111 0.201188 0.734205 0.342738
C32   C     C_3   0.083110 0.273237 0.736199 0.254060
C33   C     C_1   0.954309 0.160139 0.838033 0.210685
C34   C     C_1   0.865853 0.342000 0.663944 0.051823
C35   C     C_3   0.525815 0.722899 0.215295 0.232194
C36   C     C_3   0.331318 0.693057 0.229910 0.292522
C37   C     C_1   0.340917 0.622302 0.375886 -0.207675
C38   C     C_1   0.477838 0.879869 0.125833 -0.212835
C39   C     C_3   0.555039 0.738511 0.277090 0.333344
C40   C     C_3   0.363782 0.708193 0.291813 -0.170848
C41   C     C_3   0.457714 0.806275 0.269724 0.282264
C42   C     C_3   0.427235 0.791505 0.207381 -0.244274
C43   C     C_3   0.264820 0.775384 0.283287 0.327952
C44   C     C_3   0.231760 0.760488 0.221342 0.199430
C45   C     C_1   0.346045 0.661155 0.338030 0.118410
C46   C     C_1   0.461906 0.840999 0.163544 0.064766
C47   C     C_R   0.464701 0.161880 0.090094 -0.319516
C48   C     C_R   0.354710 0.335726 0.413264 -0.304543
C49   C     C_R   0.415690 0.278952 0.097780 0.458142
C50   C     C_R   0.463658 0.223986 0.065892 0.250636
C51   C     C_R   0.443423 0.155687 0.147615 0.342815
C52   C     C_R   0.376197 0.210253 0.180682 -0.103492
C53   C     C_R   0.352284 0.271728 0.152908 -0.235286
C54   C     C_R   0.331727 0.208274 0.239387 -0.138153
C55   C     C_R   0.298197 0.268814 0.267691 -0.109799
C56   C     C_R   0.221528 0.320994 0.236363 0.414193
C57   C     C_R   0.252756 0.323440 0.179528 0.368663
C58   C     C_R   0.302922 0.150692 0.271552 0.376793
C59   C     C_R   0.299710 0.153960 0.329441 0.401892
C60   C     C_R   0.331449 0.213745 0.357605 -0.243292
C61   C     C_R   0.322527 0.272870 0.326564 -0.062015
C62   C     C_R   0.367407 0.216750 0.415605 0.448912
C63   C     C_R   0.367821 0.277325 0.443130 0.263206
C64   C     C_R   0.348739 0.333795 0.355157 0.394240
O11   O     O_R   0.323550 0.942140 0.056770 -0.524361
O12   O     O_R   0.647080 0.077200 0.045890 -0.558487
O13   O     O_R   0.813610 0.057920 0.943260 -0.538543
C65   C     C_R   0.477778 0.102167 0.055241 0.833907
O14   O     O_R   0.653470 0.943760 0.063000 -0.543441
O15   O     O_R   0.820050 0.923540 0.960490 -0.533929
C66   C     C_R   0.485958 0.924658 0.079326 0.769291
O16   O     O_R   0.317110 0.076520 0.039540 -0.533146
O17   O     O_3   0.483830 0.993580 0.966380 -0.371273
V3    V     V_3+5 0.760140 0.001190 0.006240 1.421633
O18   O     O_R   0.149510 0.922740 0.954070 -0.520760
C67   C     C_R   0.982654 0.898534 0.943678 0.760537
O19   O     O_R   0.143120 0.056170 0.936970 -0.528188
C68   C     C_R   0.973703 0.075955 0.921364 0.697737
V4    V     V_3+5 0.259690 0.998700 0.993700 1.491177
O20   O     O_3   0.986130 0.006420 0.033620 -0.382405
Cl1   Cl    Cl    0.041307 0.585923 0.847676 -0.628969
O21   O     O_3   0.511274 0.807787 0.577720 -0.509876
C69   C     C_3   0.330218 0.781721 0.587715 0.127474
H4    H     H_    0.307213 0.774441 0.632752 0.142435
H5    H     H_    0.312509 0.734149 0.565777 0.124995
C70   C     C_3   0.178580 0.829331 0.566509 -0.548124
H6    H     H_    0.196373 0.837282 0.521535 0.230080
H7    H     H_    0.036036 0.809052 0.573795 0.168971
H8    H     H_    0.189231 0.876987 0.588437 0.258726
O22   O     O_3   0.086185 0.305396 0.842216 -0.528008
C71   C     C_3   0.137937 0.370995 0.833711 0.176240
H9    H     H_    0.012309 0.402683 0.824537 0.174422
H10   H     H_    0.240807 0.374986 0.799526 0.202399
C72   C     C_3   0.231639 0.396691 0.885979 -0.528234
H11   H     H_    0.358834 0.366202 0.896329 0.248636
H12   H     H_    0.275701 0.448092 0.879712 0.216455
H13   H     H_    0.130513 0.395131 0.920867 0.218122
Cl2   Cl    Cl    0.655227 0.365678 0.795968 -0.661267
O23   O     O_3   0.268715 0.293363 0.723186 -0.503791
C73   C     C_3   0.260924 0.333238 0.675994 0.086273
H14   H     H_    0.194969 0.306647 0.640726 0.158611
H15   H     H_    0.190815 0.380985 0.686119 0.137500
C74   C     C_3   0.453066 0.349607 0.656678 -0.580496
H16   H     H_    0.440079 0.379615 0.618712 0.197402
H17   H     H_    0.524912 0.378656 0.688980 0.243410
H18   H     H_    0.529274 0.303316 0.646750 0.281244
O24   O     O_3   0.128601 0.145033 0.719194 -0.516145
C75   C     C_3   0.211028 0.153963 0.666987 0.174606
H19   H     H_    0.329125 0.188847 0.670194 0.218284
H20   H     H_    0.106975 0.172478 0.635827 0.160957
C76   C     C_3   0.290684 0.088627 0.646606 -0.438860
H21   H     H_    0.174972 0.052675 0.642479 0.222407
H22   H     H_    0.357928 0.095114 0.605723 0.233555
H23   H     H_    0.398865 0.069404 0.676199 0.256004
Cl3   Cl    Cl    0.719223 0.181251 0.651797 -0.572706
Cl4   Cl    Cl    0.523444 0.197458 0.789101 -0.517894
O25   O     O_3   0.267825 0.630571 0.213772 -0.532705
C77   C     C_3   0.217462 0.630162 0.157411 0.130256
H24   H     H_    0.328355 0.651958 0.131095 0.167014
H25   H     H_    0.081526 0.656960 0.150885 0.206307
C78   C     C_3   0.189253 0.559790 0.139084 -0.548178
H26   H     H_    0.071137 0.537994 0.162483 0.258852
H27   H     H_    0.154671 0.558197 0.094330 0.189240
H28   H     H_    0.320882 0.530710 0.146887 0.235143
Cl5   Cl    Cl    0.687570 0.677655 0.173375 -0.684008
O26   O     O_3   0.053292 0.767829 0.194339 -0.530923
C79   C     C_3   0.075763 0.797231 0.142051 0.095431
H29   H     H_    0.094104 0.850838 0.147695 0.128543
H30   H     H_    0.195904 0.774622 0.118840 0.167159
C80   C     C_3   0.902203 0.788160 0.105964 -0.542996
H31   H     H_    0.902691 0.823421 0.071171 0.191529
H32   H     H_    0.899408 0.737606 0.089011 0.252000
H33   H     H_    0.775170 0.797565 0.130556 0.251256
Cl6   Cl    Cl    0.126058 0.628980 0.654141 -0.664337
O27   O     O_3   0.133599 0.801354 0.321491 -0.523327
C81   C     C_3   0.050787 0.859743 0.300716 0.168613
H34   H     H_    0.925219 0.847725 0.275006 0.206711
H35   H     H_    0.149385 0.888654 0.275182 0.122565
C82   C     C_3   0.989036 0.902842 0.348836 -0.463801
H36   H     H_    0.114476 0.916155 0.374183 0.250374
H37   H     H_    0.919974 0.948445 0.333105 0.202637
H38   H     H_    0.887301 0.876362 0.375087 0.250610
Cl7   Cl    Cl    0.539598 0.880550 0.299343 -0.648098
O28   O     O_3   0.724871 0.732427 0.307916 -0.513319
C83   C     C_3   0.796906 0.667444 0.306395 0.210622
H39   H     H_    0.923333 0.665724 0.279336 0.204696
H40   H     H_    0.694945 0.630519 0.290627 0.118431
C84   C     C_3   0.857034 0.647324 0.364311 -0.690013
H41   H     H_    0.733677 0.649401 0.392405 0.212576
H42   H     H_    0.915188 0.596487 0.363486 0.191067
H43   H     H_    0.966297 0.681055 0.380348 0.243310
Cl8   Cl    Cl    0.139693 0.387183 0.141370 -0.629068
O29   O     O_3   0.367725 0.392292 0.327198 -0.533812
C85   C     C_3   0.559419 0.400082 0.312835 0.103880
H44   H     H_    0.604693 0.361909 0.282533 0.155680
H45   H     H_    0.653644 0.397514 0.349918 0.137737
C86   C     C_3   0.581321 0.467084 0.286419 -0.586480
H46   H     H_    0.540708 0.506195 0.316240 0.197132
H47   H     H_    0.730814 0.474084 0.274077 0.222582
H48   H     H_    0.488903 0.471251 0.249249 0.239751
Cl9   Cl    Cl    0.390000 0.280264 0.516023 -0.591441
Cl10  Cl    Cl    0.228694 0.081764 0.363638 -0.491288
O30   O     O_3   0.430492 0.340310 0.074211 -0.506034
C87   C     C_3   0.615770 0.364371 0.083192 0.147514
H49   H     H_    0.688695 0.366920 0.042835 0.147561
H50   H     H_    0.707029 0.333915 0.111431 0.107788
C88   C     C_3   0.603705 0.433321 0.106963 -0.575729
H51   H     H_    0.541493 0.432028 0.148872 0.220089
H52   H     H_    0.747790 0.454161 0.110045 0.216746
H53   H     H_    0.514682 0.465190 0.079810 0.230111
O31   O     O_3   0.489045 0.231576 0.009636 -0.529348
C89   C     C_3   0.684731 0.228932 0.997264 0.066481
H54   H     H_    0.732785 0.177332 0.992233 0.134492
H55   H     H_    0.774566 0.252295 0.029583 0.095916
C90   C     C_3   0.717463 0.264111 0.942953 -0.577140
H56   H     H_    0.670857 0.316191 0.946282 0.229857
H57   H     H_    0.870630 0.262147 0.932717 0.200377
H58   H     H_    0.636371 0.240237 0.909233 0.258656
O32   O     O_3   0.466255 0.093203 0.167627 -0.544031
C91   C     C_3   0.641830 0.085794 0.194507 0.112055
H59   H     H_    0.655510 0.121049 0.229357 0.129096
H60   H     H_    0.758258 0.093649 0.164790 0.081619
C92   C     C_3   0.653996 0.016095 0.217421 -0.576516
H61   H     H_    0.686059 0.980752 0.183781 0.180132
H62   H     H_    0.763657 0.011819 0.250119 0.185401
H63   H     H_    0.518321 0.001995 0.236323 0.302292
Cl11  Cl    Cl    0.042072 0.372590 0.264778 -0.624129
O33   O     O_3   0.279303 0.089117 0.249244 -0.512822
C93   C     C_3   0.107234 0.084905 0.219976 0.212119
H64   H     H_    0.092349 0.123350 0.187786 0.097280
H65   H     H_    0.987751 0.090146 0.249234 0.100383
C94   C     C_3   0.102422 0.017814 0.191527 -0.646872
H66   H     H_    0.072645 0.979284 0.222155 0.188995
H67   H     H_    0.993515 0.017026 0.158460 0.159496
H68   H     H_    0.239306 0.005231 0.171747 0.249371
Cl12  Cl    Cl    0.438919 0.147500 0.454988 -0.404675
Cl13  Cl    Cl    0.565400 0.899687 0.659493 -0.543925
Cl14  Cl    Cl    0.187810 0.778128 0.994902 -0.718547
O34   O     O_3   0.874400 0.600883 0.738486 -0.507956
C95   C     C_3   0.678921 0.587542 0.741644 0.142579
H69   H     H_    0.589973 0.627982 0.723798 0.118740
H70   H     H_    0.637412 0.579635 0.785341 0.165424
C96   C     C_3   0.638803 0.525514 0.708947 -0.575528
H71   H     H_    0.727201 0.484172 0.724993 0.245796
H72   H     H_    0.486797 0.512988 0.712580 0.204860
H73   H     H_    0.672301 0.533098 0.664735 0.195415
O35   O     O_3   0.655286 0.881580 0.773419 -0.537062
C97   C     C_3   0.479211 0.863857 0.795930 0.089853
H74   H     H_    0.497023 0.822086 0.825105 0.124100
H75   H     H_    0.376180 0.850281 0.762907 0.144698
C98   C     C_3   0.397124 0.922133 0.827420 -0.572946
H76   H     H_    0.379319 0.964817 0.799418 0.243470
H77   H     H_    0.256791 0.909644 0.844319 0.156590
H78   H     H_    0.493469 0.935390 0.861963 0.215591

loop_
_geom_bond_atom_site_label_1
_geom_bond_atom_site_label_2
_ccdc_geom_bond_type
C13   C19   A    
C32   O23   S    
C65   O16   A    
C47   C65   S    
C90   H56   S    
C8    Cl14  S    
C56   Cl11  S    
C58   C59   A    
C4    C6    S    
O2    C1    A    
C7    C8    A    
C5    C67   S    
C61   C64   A    
C25   C68   S    
C1    O6    A    
C80   H33   S    
C74   H17   S    
O21   C69   S    
O15   C67   A    
C97   C98   S    
C96   H71   S    
C75   H19   S    
C48   C64   A    
C62   C63   A    
C41   C42   S    
C92   H61   S    
C58   O33   S    
C40   C45   S    
C14   C15   A    
C70   H6    S    
O13   V3    S    
C1    C37   S    
C49   C53   A    
C16   C17   A    
C84   H42   S    
O14   C66   A    
C23   C27   S    
C7    H2    S    
C95   H70   S    
O5    C3    A    
C23   C24   S    
C35   Cl5   S    
C75   H20   S    
C71   H9    S    
C29   Cl3   S    
C73   H14   S    
O16   V4    S    
C5    C8    A    
C20   O21   S    
C24   O22   S    
C85   H44   S    
C81   C82   S    
C88   H51   S    
C71   C72   S    
C23   C30   S    
O11   C66   A    
C37   C45   T    
C90   H58   S    
O12   C65   A    
C39   O28   S    
C31   C32   S    
O8    V2    S    
O15   V3    S    
C90   H57   S    
C28   C31   S    
C97   H74   S    
C29   C31   S    
O25   C77   S    
C89   C90   S    
C77   C78   S    
C41   Cl7   S    
C81   H34   S    
C54   C58   A    
C27   Cl4   S    
O1    V2    S    
C11   C15   A    
C64   O29   S    
C28   C33   S    
C50   O31   S    
C82   H37   S    
C86   H48   S    
C87   C88   S    
O12   V3    S    
O32   C91   S    
C87   H50   S    
C70   H7    S    
O13   C68   A    
C9    C10   A    
C74   H16   S    
C63   Cl9   S    
C85   H45   S    
C79   C80   S    
C15   Cl1   S    
V4    O20   S    
C27   C29   S    
C78   H28   S    
C26   C34   T    
C51   O32   S    
C22   Cl6   S    
C86   H47   S    
O18   V4    S    
C39   C41   S    
C30   C32   S    
O17   V4    S    
C79   H29   S    
C59   C60   A    
C80   H32   S    
C94   H66   S    
C83   C84   S    
O30   C87   S    
C84   H43   S    
C12   C13   A    
C82   H38   S    
C78   H27   S    
C95   C96   S    
O4    C2    A    
C23   Cl2   S    
C47   C51   A    
O34   C95   S    
C75   C76   S    
C24   C28   S    
C91   H59   S    
C76   H23   S    
C73   H15   S    
C43   C44   S    
C5    C9    A    
C52   C53   A    
C52   C54   A    
C74   H18   S    
C83   H40   S    
V3    O20   S    
C7    C11   A    
C60   C61   A    
C17   C18   A    
C94   H68   S    
C49   O30   S    
C96   H72   S    
O28   C83   S    
C93   C94   S    
C30   C34   S    
C53   C57   A    
C73   C74   S    
C92   H63   S    
O19   V4    S    
C35   C36   S    
C19   C22   A    
C35   C39   S    
C93   H64   S    
C60   C62   A    
C2    C48   S    
C82   H36   S    
C38   C66   S    
O3    C4    A    
O31   C89   S    
O29   C85   S    
C93   H65   S    
C69   H4    S    
C70   H8    S    
C98   H77   S    
O9    V2    S    
C55   C61   A    
C77   H24   S    
C57   Cl8   S    
C10   C12   A    
C72   H13   S    
C36   C44   S    
O14   V3    S    
C38   C46   T    
O2    V1    S    
C80   H31   S    
C55   C56   A    
C86   H46   S    
C3    C26   S    
C24   C32   S    
O7    V1    S    
C96   H73   S    
C25   C33   T    
C39   C40   S    
C17   Cl13  S    
C76   H22   S    
C47   C50   A    
O1    C2    A    
C35   C42   S    
C29   C30   S    
C12   C16   A    
C78   H26   S    
O5    V1    S    
C36   O25   S    
C97   H75   S    
C42   C46   S    
O6    V2    S    
C98   H78   S    
O22   C71   S    
C69   H5    S    
O27   C81   S    
C69   C70   S    
C14   O34   S    
C83   H39   S    
C91   C92   S    
C72   H12   S    
C13   C14   A    
C89   H54   S    
O3    V1    S    
V1    O10   S    
O26   C79   S    
C20   C21   A    
C18   C20   A    
O18   C67   A    
C18   C19   A    
C59   Cl10  S    
C71   H10   S    
C6    C22   A    
C76   H21   S    
V2    O10   S    
C49   C50   A    
O19   C68   A    
C21   H1    S    
C41   C43   S    
C51   C52   A    
C36   C40   S    
O23   C73   S    
C81   H35   S    
C95   H69   S    
O7    V2    S    
C54   C55   A    
C6    C21   A    
C88   H52   S    
C89   H55   S    
C84   H41   S    
C42   C44   S    
C62   Cl12  S    
C87   H49   S    
O4    V1    S    
C9    H3    S    
O17   V3    S    
C44   O26   S    
C16   O35   S    
C98   H76   S    
C27   C28   S    
C40   C43   S    
C72   H11   S    
C94   H67   S    
C77   H25   S    
C10   C11   A    
C31   O24   S    
C92   H62   S    
C85   C86   S    
O33   C93   S    
C56   C57   A    
O24   C75   S    
O9    C4    A    
O11   V4    S    
O35   C97   S    
C88   H53   S    
C79   H30   S    
C43   O27   S    
O8    C3    A    
C91   H60   S    
C48   C63   A    
