data_mof_unit_20928.cif
_audit_creation_date              2012-12-10T18:04:35-0500
_audit_creation_method            fapswitch 2.2
_symmetry_space_group_name_H-M    P1
_symmetry_Int_Tables_number       1
_space_group_crystal_system       triclinic
_cell_length_a                    10.921974
_cell_length_b                    9.628134
_cell_length_c                    15.926651
_cell_angle_alpha                 90.028048
_cell_angle_beta                  92.813461
_cell_angle_gamma                 89.538742
_cell_volume                      1672.74543146

loop_
_atom_site_label
_atom_site_type_symbol
_atom_type_description
_atom_site_fract_x
_atom_site_fract_y
_atom_site_fract_z
_atom_type_partial_charge
C1    C     C_R   0.870265 0.497272 0.483358 -0.212765
C2    C     C_R   0.127288 0.499310 0.489918 -0.211325
C3    C     C_R   0.262107 0.500295 0.497300 0.813634
C4    C     C_R   0.736936 0.499376 0.494054 0.828555
C5    C     C_R   0.497691 0.499754 0.341420 0.789732
C6    C     C_R   0.496417 0.499447 0.658431 0.815480
C7    C     C_R   0.370188 0.542671 0.952119 0.155708
C8    C     C_R   0.559894 0.402088 0.046230 0.156102
C9    C     C_R   0.372809 0.545087 0.040815 0.149845
C10   C     C_R   0.557809 0.400381 0.957383 0.150749
C11   C     C_R   0.465897 0.475721 0.911295 -0.003644
C12   C     C_R   0.469824 0.478687 0.086864 -0.009750
C13   C     C_1   0.473218 0.486857 0.821592 0.061760
C14   C     C_1   0.479465 0.490974 0.176845 0.051871
C15   C     C_1   0.488638 0.497567 0.252068 -0.167191
C16   C     C_1   0.483597 0.495314 0.747038 -0.198020
C17   C     C_R   0.446722 0.075885 0.434204 0.360785
C18   C     C_R   0.545053 0.926162 0.569178 0.320108
C19   C     C_R   0.553594 0.075317 0.566119 0.351402
C20   C     C_R   0.459248 0.927807 0.430407 0.318146
C21   C     C_R   0.063992 0.373880 0.503460 0.169058
C22   C     C_R   0.932552 0.620193 0.464373 0.188124
C23   C     C_R   0.936416 0.370854 0.490114 0.158658
C24   C     C_R   0.060261 0.618745 0.461988 0.155986
Cu1   Cu    Cu3+1 0.500000 0.640660 0.500000 0.995994
Cu2   Cu    Cu3+1 0.500000 0.359340 0.500000 1.028502
N1    N     N_R   0.500000 0.852070 0.500000 -0.253080
N2    N     N_R   0.500000 0.147930 0.500000 -0.246792
O1    O     O_R   0.319640 0.618740 0.499990 -0.589663
O2    O     O_R   0.680360 0.381260 0.500010 -0.535693
O3    O     O_R   0.680360 0.618740 0.500010 -0.533748
O4    O     O_R   0.319640 0.381260 0.499990 -0.526656
O5    O     O_R   0.499970 0.618750 0.380310 -0.538462
O6    O     O_R   0.500030 0.381250 0.619690 -0.512483
O7    O     O_R   0.500030 0.618750 0.619690 -0.540985
O8    O     O_R   0.499970 0.381250 0.380310 -0.522015
O9    O     O_3   0.395773 0.150450 0.366567 -0.538721
C25   C     C_3   0.275170 0.107323 0.344370 0.128876
H1    H     H_    0.225279 0.069167 0.398919 0.113824
H2    H     H_    0.277299 0.024266 0.296455 0.175003
C26   C     C_3   0.204613 0.228556 0.303976 -0.826578
H3    H     H_    0.252771 0.264720 0.248413 0.237101
H4    H     H_    0.110986 0.195293 0.283113 0.190949
H5    H     H_    0.198016 0.315556 0.349159 0.258202
O10   O     O_3   0.595535 0.855587 0.638384 -0.551363
C27   C     C_3   0.524985 0.879311 0.709627 0.089432
H6    H     H_    0.437208 0.822131 0.702751 0.148707
H7    H     H_    0.501450 0.990202 0.719725 0.154654
C28   C     C_3   0.597357 0.828717 0.788353 -0.831881
H8    H     H_    0.541774 0.840639 0.844376 0.203731
H9    H     H_    0.624566 0.718466 0.781412 0.262258
H10   H     H_    0.682053 0.889762 0.799519 0.225573
O11   O     O_3   0.602517 0.150475 0.633871 -0.547768
C29   C     C_3   0.727362 0.118880 0.652017 0.125746
H11   H     H_    0.775509 0.085056 0.596152 0.124667
H12   H     H_    0.736415 0.035164 0.699187 0.165125
C30   C     C_3   0.790307 0.246237 0.690337 -0.800959
H13   H     H_    0.734375 0.292091 0.739772 0.268327
H14   H     H_    0.881161 0.216514 0.719253 0.181544
H15   H     H_    0.802870 0.326178 0.641685 0.252889
O12   O     O_3   0.431106 0.861846 0.355102 -0.558885
C31   C     C_3   0.523993 0.889413 0.298019 0.106324
H16   H     H_    0.602367 0.816584 0.310021 0.163372
H17   H     H_    0.560974 0.996915 0.302252 0.134650
C32   C     C_3   0.472654 0.868895 0.208322 -0.829581
H18   H     H_    0.548675 0.864587 0.164560 0.202058
H19   H     H_    0.420091 0.771137 0.203326 0.283443
H20   H     H_    0.410717 0.956586 0.189495 0.231505
N3    N     N_2   0.282061 0.620430 0.084033 -0.430075
H21   H     H_    0.248569 0.708337 0.053700 0.261673
C33   C     C_3   0.186396 0.536139 0.116830 -0.718303
H22   H     H_    0.134485 0.482143 0.064908 0.217396
H23   H     H_    0.122047 0.603276 0.150668 0.222812
H24   H     H_    0.226013 0.458298 0.161754 0.239027
N4    N     N_2   0.645609 0.321809 0.913285 -0.426168
H25   H     H_    0.733394 0.318337 0.939725 0.243599
C34   C     C_3   0.602511 0.188470 0.882528 -0.672732
H26   H     H_    0.574971 0.122272 0.935223 0.217797
H27   H     H_    0.676927 0.134361 0.850263 0.220719
H28   H     H_    0.523226 0.202080 0.836855 0.246689
N5    N     N_2   0.267144 0.597702 0.904091 -0.416299
H29   H     H_    0.184190 0.584732 0.931136 0.259976
C35   C     C_3   0.282020 0.736409 0.871716 -0.734029
H30   H     H_    0.307925 0.809839 0.923286 0.218280
H31   H     H_    0.194665 0.772410 0.839986 0.223192
H32   H     H_    0.352697 0.736210 0.824549 0.241154
N6    N     N_2   0.653253 0.331139 0.095918 -0.421609
H33   H     H_    0.740023 0.330562 0.073562 0.241920
C36   C     C_3   0.617850 0.199446 0.130855 -0.673930
H34   H     H_    0.604266 0.121018 0.080356 0.216975
H35   H     H_    0.532051 0.210360 0.165009 0.246736
H36   H     H_    0.691293 0.161825 0.176114 0.215823
N7    N     N_2   0.129242 0.249766 0.526961 -0.396343
H37   H     H_    0.103986 0.161326 0.494519 0.238055
C37   C     C_3   0.148190 0.228532 0.616486 -0.672398
H38   H     H_    0.059746 0.206189 0.644703 0.204631
H39   H     H_    0.190199 0.321790 0.646879 0.235349
H40   H     H_    0.211236 0.138803 0.628196 0.212599
N8    N     N_2   0.865996 0.742928 0.440602 -0.397675
H41   H     H_    0.886929 0.782248 0.382855 0.255952
C38   C     C_3   0.864699 0.848496 0.505085 -0.641239
H42   H     H_    0.955693 0.898913 0.512733 0.202681
H43   H     H_    0.840160 0.803239 0.566152 0.252190
H44   H     H_    0.794486 0.927655 0.486470 0.201397
N9    N     N_2   0.874934 0.241397 0.480109 -0.401793
H45   H     H_    0.912428 0.159886 0.514295 0.238965
C39   C     C_3   0.844273 0.204290 0.393544 -0.662589
H46   H     H_    0.928560 0.174981 0.361403 0.205146
H47   H     H_    0.797505 0.291938 0.359369 0.235566
H48   H     H_    0.780861 0.114829 0.391493 0.206017
N10   N     N_2   0.116995 0.735141 0.425292 -0.433011
H49   H     H_    0.175711 0.792623 0.463793 0.270312
C40   C     C_3   0.153797 0.713583 0.340192 -0.625358
H50   H     H_    0.179918 0.813975 0.312746 0.225240
H51   H     H_    0.076361 0.670958 0.300583 0.201702
H52   H     H_    0.233125 0.640913 0.339192 0.243831

loop_
_geom_bond_atom_site_label_1
_geom_bond_atom_site_label_2
_ccdc_geom_bond_type
Cu1   O3    S    
N6    H33   S    
Cu2   O4    S    
N7    H37   S    
C39   H47   S    
C26   H3    S    
C37   H38   S    
N5    H29   S    
C37   H40   S    
C34   H26   S    
C7    C11   A    
N9    C39   S    
C27   C28   S    
O9    C25   S    
N10   H49   S    
C25   H1    S    
C30   H14   S    
C23   N9    S    
C5    O8    A    
C17   C20   A    
C6    O7    A    
C3    O1    A    
C18   C19   A    
C20   O12   S    
N3    C33   S    
C31   H17   S    
C27   H6    S    
Cu2   O6    S    
C35   H30   S    
C28   H9    S    
C5    O5    A    
C39   H46   S    
C36   H35   S    
O12   C31   S    
C40   H52   S    
C32   H20   S    
C1    C22   A    
C38   H43   S    
C26   H4    S    
N3    H21   S    
C24   N10   S    
N5    C35   S    
C27   H7    S    
C34   H27   S    
Cu1   O1    S    
C29   H12   S    
C38   H42   S    
C25   C26   S    
C33   H23   S    
C30   H15   S    
C32   H19   S    
Cu1   Cu2   S    
O10   C27   S    
C6    O6    A    
N4    H25   S    
C31   H16   S    
C10   N4    S    
N8    H41   S    
C8    C12   A    
C28   H10   S    
C2    C21   A    
N10   C40   S    
C17   O9    S    
C36   H36   S    
C19   N2    A    
N4    C34   S    
Cu1   O7    S    
Cu2   O8    S    
C35   H31   S    
C12   C14   S    
Cu2   O2    S    
C38   H44   S    
N6    C36   S    
C2    C24   A    
C39   H48   S    
C22   C24   A    
C18   O10   S    
C40   H50   S    
C34   H28   S    
C7    C9    A    
C29   H11   S    
C22   N8    S    
C31   C32   S    
C7    N5    S    
C17   N2    A    
C8    C10   A    
C18   N1    A    
C9    N3    S    
C33   H24   S    
C37   H39   S    
O11   C29   S    
C20   N1    A    
Cu1   N1    S    
N9    H45   S    
Cu2   N2    S    
C1    C4    S    
C8    N6    S    
C21   C23   A    
C2    C3    S    
C33   H22   S    
C25   H2    S    
C11   C13   S    
C19   O11   S    
C30   H13   S    
C21   N7    S    
C26   H5    S    
C1    C23   A    
C32   H18   S    
C3    O4    A    
C9    C12   A    
C5    C15   S    
C4    O3    A    
C10   C11   A    
C6    C16   S    
C35   H32   S    
N7    C37   S    
C28   H8    S    
C13   C16   T    
C14   C15   T    
C36   H34   S    
N8    C38   S    
C4    O2    A    
Cu1   O5    S    
C40   H51   S    
C29   C30   S    
