data_mof_unit_59649.cif
_audit_creation_date              2013-03-05T16:11:32-0500
_audit_creation_method            fapswitch 2.2
_symmetry_space_group_name_H-M    P1
_symmetry_Int_Tables_number       1
_space_group_crystal_system       triclinic
_cell_length_a                    10.640144
_cell_length_b                    9.868158
_cell_length_c                    15.764463
_cell_angle_alpha                 89.746458
_cell_angle_beta                  90.54177
_cell_angle_gamma                 90.217753
_cell_volume                      1655.14499808

loop_
_atom_site_label
_atom_site_type_symbol
_atom_site_description
_atom_site_fract_x
_atom_site_fract_y
_atom_site_fract_z
_atom_type_partial_charge
O1    O     O_R   0.316750 0.614620 0.499990 -0.557133
O2    O     O_R   0.316750 0.385380 0.499990 -0.558431
C1    C     C_R   0.261715 0.499451 0.512911 0.951969
O3    O     O_R   0.499990 0.614720 0.377140 -0.583366
O4    O     O_R   0.499990 0.385280 0.377140 -0.585893
C2    C     C_R   0.498753 0.500294 0.338287 0.916786
Zn1   Zn    Zn3+2 0.499980 0.653120 0.500000 1.071593
Zn2   Zn    Zn3+2 0.499980 0.346880 0.500000 1.068560
O5    O     O_R   0.683220 0.614710 0.500000 -0.631484
O6    O     O_R   0.683220 0.385290 0.500000 -0.634612
O7    O     O_R   0.499980 0.614620 0.622860 -0.599890
O8    O     O_R   0.499980 0.385380 0.622860 -0.604447
C3    C     C_R   0.740703 0.500171 0.502310 0.906927
C4    C     C_R   0.500146 0.499696 0.661632 0.874330
C5    C     C_3   0.445575 0.654132 0.047500 0.339101
C6    C     C_3   0.374653 0.396146 0.048140 0.336333
C7    C     C_3   0.380787 0.399008 0.947245 -0.026472
C8    C     C_3   0.444654 0.645945 0.946933 -0.011698
H1    H     H_    0.346612 0.656301 0.922933 0.150505
H2    H     H_    0.292708 0.440987 0.919990 0.154399
C9    C     C_1   0.496273 0.498989 0.750206 -0.046668
C10   C     C_3   0.475297 0.504600 0.082633 -0.178445
C11   C     C_3   0.485355 0.500907 0.916756 -0.080315
C12   C     C_3   0.614852 0.462813 0.955560 -0.284835
C13   C     C_3   0.608839 0.463269 0.052512 -0.413751
C14   C     C_1   0.491700 0.499152 0.825268 0.111804
C15   C     C_1   0.482138 0.502784 0.174399 0.130753
C16   C     C_1   0.490402 0.501218 0.249543 0.011421
H3    H     H_    0.683106 0.529986 0.079009 0.249113
H4    H     H_    0.638814 0.364148 0.078405 0.253328
H5    H     H_    0.688864 0.534812 0.934712 0.252396
H6    H     H_    0.645720 0.361477 0.934046 0.250887
C17   C     C_R   0.063703 0.373481 0.535457 0.299792
C18   C     C_R   0.065169 0.621119 0.544207 0.302714
C19   C     C_R   0.935767 0.376062 0.521976 -0.208321
C20   C     C_R   0.936765 0.621544 0.530635 -0.202889
C21   C     C_R   0.873754 0.499820 0.515179 -0.142723
C22   C     C_R   0.130119 0.497680 0.534886 -0.276685
C23   C     C_R   0.562889 0.071643 0.561508 -0.075247
C24   C     C_R   0.563383 0.928029 0.561278 -0.075540
H7    H     H_    0.613460 0.125695 0.610741 0.179503
H8    H     H_    0.614395 0.873712 0.610313 0.182186
N1    N     N_R   0.499970 0.857200 0.499980 -0.155506
N2    N     N_R   0.499970 0.142800 0.499980 -0.154163
C25   C     C_R   0.436176 0.928111 0.438549 0.293772
C26   C     C_R   0.437525 0.072066 0.437860 0.298889
N3    N     N_R   0.366693 0.857204 0.374779 0.242492
O9    O     O_R   0.249766 0.825702 0.388040 -0.273312
O10   O     O_R   0.409944 0.852578 0.298041 -0.251159
N4    N     N_R   0.375725 0.142930 0.370356 0.242481
O11   O     O_R   0.424853 0.143173 0.295138 -0.274318
O12   O     O_R   0.260976 0.184514 0.379609 -0.269860
N5    N     N_R   0.321137 0.701748 0.077293 0.227009
O13   O     O_R   0.251579 0.779259 0.029172 -0.250511
O14   O     O_R   0.296110 0.699891 0.157948 -0.234539
N6    N     N_R   0.246742 0.432685 0.077903 0.221702
O15   O     O_R   0.223383 0.434035 0.158862 -0.263625
O16   O     O_R   0.151570 0.444957 0.025946 -0.317589
N7    N     N_R   0.402996 0.257433 0.080923 0.249737
O17   O     O_R   0.320215 0.191645 0.125562 -0.169282
O18   O     O_R   0.501216 0.190504 0.056311 -0.283775
N8    N     N_R   0.541918 0.752915 0.078072 0.239186
O19   O     O_R   0.510730 0.849747 0.129492 -0.186977
O20   O     O_R   0.655288 0.755437 0.047742 -0.312933
N9    N     N_R   0.387917 0.262045 0.910298 0.276553
O21   O     O_R   0.290922 0.181878 0.915917 -0.220683
O22   O     O_R   0.485363 0.220779 0.868497 -0.313413
N10   N     N_R   0.512757 0.759964 0.907161 0.272487
O23   O     O_R   0.466728 0.881563 0.912693 -0.198074
O24   O     O_R   0.616077 0.742910 0.865031 -0.340926
N11   N     N_R   0.123324 0.245508 0.551925 0.245555
O25   O     O_R   0.201502 0.233212 0.615492 -0.324497
O26   O     O_R   0.082590 0.136782 0.514148 -0.272775
N12   N     N_R   0.126902 0.743959 0.570627 0.244422
O27   O     O_R   0.211159 0.740333 0.631000 -0.341539
O28   O     O_R   0.083573 0.860821 0.545991 -0.273853
H9    H     H_    0.884743 0.280972 0.518467 0.207538
H10   H     H_    0.886038 0.716325 0.534165 0.205929

loop_
_geom_bond_atom_site_label_1
_geom_bond_atom_site_label_2
_geom_bond_distance
_ccdc_geom_bond_type
C5    C8    1.587732 S    
C9    C14   1.184785 T    
C6    N6    1.489880 S    
C23   H7    1.081672 S    
N5    O13   1.302626 A    
Zn1   O7    1.972081 S    
C7    C11   1.573977 S    
N12   O28   1.299994 A    
C5    N5    1.487583 S    
C4    C9    1.397303 S    
C20   C21   1.394664 A    
C19   C21   1.393551 A    
O4    C2    1.287363 A    
O7    C4    1.285927 A    
C11   C14   1.444663 S    
C8    N10   1.476596 S    
C7    H2    1.108277 S    
N6    O15   1.302690 A    
C8    H1    1.111226 S    
C5    C10   1.605351 S    
C25   N3    1.426550 S    
O5    C3    1.287416 A    
N8    O20   1.301881 A    
C24   N1    1.366615 A    
C2    C16   1.400975 S    
C1    C22   1.445621 S    
C6    C7    1.592630 S    
N9    O22   1.301389 A    
C10   C13   1.558740 S    
N4    O12   1.299257 A    
C11   C12   1.549190 S    
Zn1   N1    2.013893 S    
C3    C21   1.428262 S    
C24   H8    1.081699 S    
N7    O17   1.302227 A    
C18   C22   1.411698 A    
O3    Zn1   1.975189 S    
N2    C26   1.370364 A    
N5    O14   1.301566 A    
C13   H3    1.106620 S    
N7    O18   1.301590 A    
N12   O27   1.301780 A    
C8    C11   1.573845 S    
C12   C13   1.530368 S    
O3    C2    1.286945 A    
C23   C24   1.417259 A    
N11   O26   1.300347 A    
N10   O23   1.301366 A    
C25   C26   1.420584 A    
C19   H9    1.083669 S    
O1    C1    1.292743 A    
C6    N7    1.491880 S    
C12   H6    1.109288 S    
N8    O19   1.301781 A    
N3    O9    1.299840 A    
Zn2   O8    1.975380 S    
N4    O11   1.300385 A    
N1    C25   1.368733 A    
C18   N12   1.437912 S    
N10   O24   1.301602 A    
O8    C4    1.285394 A    
C10   C15   1.447827 S    
C13   H4    1.105202 S    
Zn1   O5    1.987617 S    
C6    C10   1.604146 S    
O1    Zn1   1.984847 S    
O2    Zn2   1.987681 S    
Zn2   N2    2.013895 S    
O6    C3    1.286576 A    
O4    Zn2   1.971898 S    
C23   N2    1.366504 A    
N3    O10   1.299426 A    
C26   N4    1.427427 S    
C7    N9    1.476598 S    
C17   C22   1.412454 A    
O2    C1    1.288732 A    
C12   H5    1.109747 S    
N11   O25   1.301840 A    
C20   H10   1.083566 S    
C17   C19   1.376074 A    
C5    N8    1.490164 S    
N6    O16   1.302065 A    
C18   C20   1.380908 A    
C17   N11   1.436913 S    
Zn2   O6    1.984788 S    
N9    O21   1.301421 A    
C15   C16   1.187065 T    
