data_mof_unit_50412.cif
_audit_creation_date              2012-12-10T19:07:35-0500
_audit_creation_method            fapswitch 2.2
_symmetry_space_group_name_H-M    P1
_symmetry_Int_Tables_number       1
_space_group_crystal_system       triclinic
_cell_length_a                    10.831546
_cell_length_b                    10.853685
_cell_length_c                    9.53552
_cell_angle_alpha                 91.09384
_cell_angle_beta                  89.800423
_cell_angle_gamma                 90.397201
_cell_volume                      1120.77908811

loop_
_atom_site_label
_atom_site_type_symbol
_atom_type_description
_atom_site_fract_x
_atom_site_fract_y
_atom_site_fract_z
_atom_type_partial_charge
C1    C     C_R   0.494640 0.262221 0.498185 0.807836
C2    C     C_R   0.935870 0.510603 0.625887 0.118292
C3    C     C_3   0.928553 0.421296 0.743007 -0.463947
C4    C     C_3   0.068595 0.422800 0.744153 -0.484530
C5    C     C_R   0.480682 0.066803 0.621178 0.085818
C6    C     C_R   0.477842 0.128868 0.494503 -0.125766
C7    C     C_R   0.453344 0.059026 0.369345 0.157286
C8    C     C_R   0.455537 0.929967 0.374821 -0.217730
C9    C     C_R   0.480050 0.870346 0.501251 -0.144900
C10   C     C_R   0.480480 0.940369 0.625193 0.128073
C11   C     C_3   0.565405 0.940713 0.748247 -0.481478
C12   C     C_R   0.262293 0.501597 0.500202 0.794553
C13   C     C_3   0.566225 0.080245 0.742789 -0.441926
C14   C     C_R   0.603121 0.534846 0.074075 0.259678
C15   C     C_R   0.403531 0.452047 0.073710 -0.092073
C16   C     C_R   0.403622 0.451947 0.924845 -0.083707
C17   C     C_R   0.603587 0.533616 0.926603 0.257229
C18   C     C_3   0.668441 0.654646 0.922297 -0.517775
C19   C     C_3   0.666475 0.657123 0.081408 -0.499372
C20   C     C_R   0.496534 0.737712 0.500996 0.813312
C21   C     C_R   0.737714 0.501318 0.499803 0.801750
C22   C     C_R   0.063057 0.511334 0.626307 0.136526
C23   C     C_R   0.129231 0.512348 0.500424 -0.094543
C24   C     C_R   0.065054 0.528694 0.374288 -0.220974
C25   C     C_R   0.936424 0.527950 0.373965 -0.219909
C26   C     C_R   0.870932 0.511481 0.499775 -0.097715
Cu1   Cu    Cu3+1 0.499990 0.499980 0.640670 0.938755
Cu2   Cu    Cu3+1 0.500010 0.500020 0.359330 0.933114
H1    H     H_    0.113547 0.536250 0.275252 0.160789
H2    H     H_    0.656590 0.898946 0.723510 0.196238
H3    H     H_    0.521119 0.125012 0.835289 0.201270
H4    H     H_    0.657530 0.119631 0.713173 0.193331
H5    H     H_    0.324655 0.414701 0.128580 0.137791
H6    H     H_    0.325267 0.413999 0.868818 0.139631
H7    H     H_    0.762796 0.647337 0.877067 0.193045
H8    H     H_    0.610036 0.725749 0.875841 0.216881
H9    H     H_    0.760052 0.651866 0.127800 0.187573
H10   H     H_    0.606965 0.730945 0.126704 0.215108
H11   H     H_    0.889039 0.534342 0.274764 0.156218
H12   H     H_    0.887420 0.462595 0.839720 0.191459
H13   H     H_    0.888387 0.330817 0.709740 0.195225
H14   H     H_    0.107311 0.466213 0.841071 0.189901
H15   H     H_    0.110170 0.333008 0.712550 0.194293
H16   H     H_    0.443665 0.876356 0.278707 0.165427
H17   H     H_    0.518295 0.907100 0.844009 0.193839
N1    N     N_R   0.500790 0.500930 0.147930 -0.184180
N2    N     N_R   0.500790 0.500890 0.852020 -0.183274
O1    O     O_R   0.500000 0.319640 0.618810 -0.581752
O2    O     O_R   0.500010 0.319680 0.381230 -0.576490
O3    O     O_R   0.319650 0.499970 0.618810 -0.585246
O4    O     O_R   0.319660 0.500010 0.381230 -0.594863
O5    O     O_R   0.499990 0.680320 0.618770 -0.576238
O6    O     O_R   0.500000 0.680360 0.381190 -0.586902
O7    O     O_R   0.680340 0.499990 0.618770 -0.580189
O8    O     O_R   0.680350 0.500030 0.381190 -0.584237
C27   C     C_3   0.429456 0.116505 0.229058 -0.826987
H18   H     H_    0.352142 0.182845 0.238399 0.232243
H19   H     H_    0.514109 0.163479 0.190774 0.246274
H20   H     H_    0.402881 0.046466 0.147982 0.207950

loop_
_geom_bond_atom_site_label_1
_geom_bond_atom_site_label_2
_ccdc_geom_bond_type
Cu1   O1    S    
C2    C22   A    
C12   O3    A    
C23   C24   A    
C27   H20   S    
C1    O1    A    
C6    C7    A    
C19   H10   S    
C4    C22   S    
C18   H7    S    
C9    C20   S    
C5    C13   S    
C14   C17   A    
Cu1   O3    S    
C21   C26   S    
C17   C18   S    
Cu1   O7    S    
C7    C8    A    
C2    C26   A    
Cu1   O5    S    
Cu2   O6    S    
C11   C13   S    
C12   C23   S    
Cu2   N1    S    
C5    C6    A    
C4    H14   S    
C7    C27   S    
C20   O6    A    
C16   N2    A    
C24   C25   A    
C4    H15   S    
Cu2   O8    S    
C27   H19   S    
C3    H12   S    
C2    C3    S    
C21   O7    A    
Cu2   O4    S    
C11   H17   S    
C10   C11   S    
C1    C6    S    
C8    H16   S    
C5    C10   A    
C12   O4    A    
C27   H18   S    
C11   H2    S    
C20   O5    A    
C18   C19   S    
C9    C10   A    
Cu1   N2    S    
Cu1   Cu2   S    
C21   O8    A    
C24   H1    S    
C3    H13   S    
C19   H9    S    
C15   N1    A    
C16   H6    S    
C25   C26   A    
C22   C23   A    
C13   H4    S    
C18   H8    S    
C14   C19   S    
C13   H3    S    
C25   H11   S    
C3    C4    S    
C15   C16   A    
C17   N2    A    
C15   H5    S    
C8    C9    A    
C14   N1    A    
Cu2   O2    S    
C1    O2    A    
