data_mof_unit_51514.cif
_audit_creation_date              2012-12-10T18:13:26-0500
_audit_creation_method            fapswitch 2.2
_symmetry_space_group_name_H-M    P1
_symmetry_Int_Tables_number       1
_space_group_crystal_system       triclinic
_cell_length_a                    12.691242
_cell_length_b                    13.143344
_cell_length_c                    17.261291
_cell_angle_alpha                 88.965671
_cell_angle_beta                  99.575477
_cell_angle_gamma                 98.77325
_cell_volume                      2805.86164301

loop_
_atom_site_label
_atom_site_type_symbol
_atom_type_description
_atom_site_fract_x
_atom_site_fract_y
_atom_site_fract_z
_atom_type_partial_charge
C1    C     C_R   0.559600 0.690952 0.517922 0.886641
C2    C     C_R   0.614072 0.535251 0.242383 -0.253458
C3    C     C_R   0.573097 0.496588 0.867880 -0.204156
C4    C     C_R   0.579970 0.512847 0.789496 -0.019618
C5    C     C_R   0.383926 0.466743 0.756916 -0.243383
C6    C     C_R   0.377379 0.451638 0.835876 0.034509
C7    C     C_R   0.472537 0.468143 0.891524 0.122539
C8    C     C_2   0.527202 0.533336 0.024216 -0.214063
C9    C     C_2   0.468279 0.461077 0.974959 -0.215440
C10   C     C_R   0.484493 0.496717 0.733168 -0.095377
C11   C     C_R   0.262394 0.043958 0.466595 0.020314
C12   C     C_R   0.511389 0.497029 0.350399 0.870521
C13   C     C_R   0.400049 0.196579 0.477133 -0.098026
C14   C     C_R   0.702474 0.848614 0.551777 0.147214
C15   C     C_R   0.727806 0.946586 0.518421 0.219067
C16   C     C_R   0.642142 0.996400 0.480986 0.129659
C17   C     C_R   0.536375 0.964190 0.499220 -0.003775
C18   C     C_R   0.513208 0.866058 0.532071 0.002530
C19   C     C_R   0.453813 0.026759 0.488316 0.088964
C20   C     C_R   0.345336 0.983900 0.489952 0.023534
C21   C     C_R   0.324543 0.887047 0.523892 -0.242649
C22   C     C_R   0.409860 0.834945 0.554183 0.227429
C23   C     C_R   0.438891 0.308015 0.487924 0.877227
C24   C     C_R   0.479434 0.132936 0.489199 -0.299883
C25   C     C_R   0.289830 0.151376 0.456206 0.131188
C26   C     C_R   0.593450 0.801494 0.539817 -0.198265
C27   C     C_R   0.898774 0.334923 0.605687 -0.101788
C28   C     C_R   0.198826 0.614449 0.394790 0.348737
C29   C     C_R   0.090529 0.614941 0.363154 -0.228844
C30   C     C_R   0.010854 0.560636 0.399169 -0.239544
C31   C     C_R   0.037815 0.512297 0.471194 0.047599
C32   C     C_R   0.147191 0.500381 0.495280 0.172543
C33   C     C_R   0.957907 0.467573 0.515422 -0.024847
C34   C     C_R   0.488487 0.502604 0.649659 0.844150
C35   C     C_R   0.983089 0.389046 0.570230 0.006423
C36   C     C_R   0.092205 0.369753 0.587584 -0.047797
C37   C     C_R   0.171376 0.427551 0.551872 -0.276475
C38   C     C_R   0.855017 0.501074 0.508565 0.217502
C39   C     C_R   0.795001 0.364414 0.590741 0.251583
C40   C     C_R   0.514701 0.501489 0.266859 -0.095461
C41   C     C_R   0.419150 0.479853 0.211130 -0.019642
C42   C     C_R   0.424469 0.494698 0.132396 -0.206767
C43   C     C_R   0.523921 0.526684 0.107865 0.126423
C44   C     C_R   0.619254 0.548328 0.163027 0.040198
H1    H     H_    0.244336 0.857415 0.535720 0.163712
H2    H     H_    0.563126 0.166294 0.504985 0.200387
H3    H     H_    0.928014 0.557148 0.370124 0.176307
H4    H     H_    0.067740 0.656288 0.309558 0.169772
H5    H     H_    0.250884 0.408182 0.565085 0.219546
H6    H     H_    0.310563 0.453556 0.713888 0.168953
H7    H     H_    0.414360 0.397890 0.995511 0.164473
H8    H     H_    0.646651 0.507161 0.911007 0.154443
H9    H     H_    0.687387 0.553038 0.285154 0.156597
H10   H     H_    0.580982 0.596346 0.003262 0.164788
H11   H     H_    0.350533 0.480493 0.089836 0.152450
N1    N     N_R   0.774070 0.445420 0.541180 -0.104454
N2    N     N_R   0.226730 0.554050 0.459240 -0.134623
O1    O     O_R   0.631480 0.627510 0.519670 -0.610794
O2    O     O_R   0.455770 0.662400 0.493360 -0.615180
O3    O     O_R   0.598240 0.480510 0.398910 -0.611833
O4    O     O_R   0.422540 0.515400 0.372600 -0.615964
O5    O     O_R   0.544230 0.337600 0.506640 -0.625333
O6    O     O_R   0.368520 0.372490 0.480330 -0.623663
O7    O     O_R   0.577460 0.484600 0.627400 -0.622610
O8    O     O_R   0.401760 0.519490 0.601090 -0.649013
Zn1   Zn    Zn3+2 0.617320 0.476700 0.517570 0.938780
Zn2   Zn    Zn3+2 0.382680 0.523300 0.482430 0.925256
C45   C     C_1   0.314955 0.440005 0.232055 0.189369
N3    N     N_1   0.231490 0.408251 0.248622 -0.199653
C46   C     C_1   0.272410 0.421935 0.858469 0.155392
N4    N     N_1   0.188298 0.398127 0.876490 -0.183177
C47   C     C_3   0.203192 0.215660 0.424560 -0.825939
H12   H     H_    0.231423 0.270154 0.379835 0.259546
H13   H     H_    0.127827 0.168873 0.394557 0.234794
H14   H     H_    0.182622 0.257795 0.473372 0.248570
C48   C     C_1   0.150352 0.995467 0.455124 0.146977
N5    N     N_1   0.061176 0.956107 0.445754 -0.226636
C49   C     C_3   0.785521 0.803716 0.609444 -0.870397
H15   H     H_    0.813451 0.857249 0.660261 0.250337
H16   H     H_    0.751545 0.729005 0.633010 0.256217
H17   H     H_    0.856726 0.794272 0.582496 0.236840
C50   C     C_3   0.664000 0.075725 0.418388 -0.904442
H18   H     H_    0.588527 0.093793 0.382177 0.253318
H19   H     H_    0.712982 0.147419 0.445469 0.245976
H20   H     H_    0.708901 0.044490 0.376610 0.248970
C51   C     C_3   0.843276 0.998490 0.520287 -0.840076
H21   H     H_    0.904127 0.959651 0.558002 0.252677
H22   H     H_    0.863044 0.001697 0.460021 0.250972
H23   H     H_    0.852441 0.078181 0.543250 0.240570
C52   C     C_3   0.389878 0.755600 0.616490 -0.801179
H24   H     H_    0.360879 0.791769 0.665014 0.219830
H25   H     H_    0.326267 0.691844 0.591487 0.262681
H26   H     H_    0.464350 0.724887 0.642793 0.221730
C53   C     C_3   0.711607 0.306447 0.635526 -0.793058
H27   H     H_    0.634582 0.333460 0.629535 0.286633
H28   H     H_    0.743420 0.311777 0.699539 0.218485
H29   H     H_    0.695307 0.224074 0.617638 0.205313
C54   C     C_1   0.685827 0.548234 0.769715 0.193511
N6    N     N_1   0.770623 0.576369 0.754056 -0.198339
C55   C     C_1   0.130861 0.294645 0.643291 0.162977
N7    N     N_1   0.163563 0.235146 0.687592 -0.181439
C56   C     C_1   0.914231 0.246792 0.656284 0.180743
N8    N     N_1   0.924677 0.176403 0.696588 -0.181772
C57   C     C_3   0.839460 0.607959 0.482715 -0.832734
H30   H     H_    0.813515 0.642867 0.531617 0.266838
H31   H     H_    0.914646 0.660067 0.476449 0.218717
H32   H     H_    0.778738 0.607147 0.428487 0.251518
C58   C     C_3   0.278228 0.677119 0.350325 -0.823209
H33   H     H_    0.263625 0.649520 0.288454 0.221842
H34   H     H_    0.265988 0.759030 0.350437 0.210745
H35   H     H_    0.363040 0.675504 0.373101 0.286619
C59   C     C_1   0.723152 0.581459 0.139578 0.133294
N9    N     N_1   0.806383 0.607966 0.120830 -0.199189

loop_
_geom_bond_atom_site_label_1
_geom_bond_atom_site_label_2
_ccdc_geom_bond_type
C4    C54   S    
C41   C42   A    
C35   C36   A    
C9    H7    S    
C8    C43   S    
C57   H31   S    
C28   N2    A    
C36   C37   A    
C3    C7    A    
C11   C48   S    
C1    O2    A    
C5    C6    A    
C33   C35   A    
C49   H16   S    
C11   C25   A    
C15   C16   A    
C58   H33   S    
C13   C23   S    
C6    C46   S    
C59   N9    T    
C38   C57   S    
O2    Zn2   S    
C45   N3    T    
O1    Zn1   S    
C23   O5    A    
C19   C20   A    
C2    C44   A    
C8    C9    D    
O8    Zn2   S    
C18   C26   A    
C31   C33   A    
C46   N4    T    
C23   O6    A    
O3    Zn1   S    
C21   C22   A    
C13   C25   A    
C53   H27   S    
C32   N2    A    
N2    Zn2   S    
C47   H14   S    
C34   O8    A    
C16   C50   S    
C57   H30   S    
C41   C45   S    
C21   H1    S    
O6    Zn2   S    
C11   C20   A    
O5    Zn1   S    
C29   H4    S    
C30   H3    S    
C48   N5    T    
C10   C34   S    
C27   C39   A    
C51   H21   S    
C16   C17   A    
C53   H29   S    
C27   C35   A    
C51   H23   S    
C13   C24   A    
O7    Zn1   S    
C12   C40   S    
C43   C44   A    
C39   C53   S    
C29   C30   A    
C42   H11   S    
C37   H5    S    
O4    Zn2   S    
C52   H25   S    
C31   C32   A    
C34   O7    A    
C17   C18   A    
C22   C52   S    
C36   C55   S    
C25   C47   S    
C32   C37   A    
C14   C26   A    
C53   H28   S    
C15   C51   S    
C44   C59   S    
C47   H13   S    
C40   C41   A    
C54   N6    T    
C50   H19   S    
C1    C26   S    
C5    H6    S    
C42   C43   A    
C4    C10   A    
C3    C4    A    
C39   N1    A    
C52   H26   S    
C7    C9    S    
C28   C29   A    
C18   C22   A    
C47   H12   S    
C2    H9    S    
C3    H8    S    
C6    C7    A    
C50   H20   S    
C27   C56   S    
C33   C38   A    
C58   H35   S    
C8    H10   S    
C24   H2    S    
C19   C24   A    
C5    C10   A    
C1    O1    A    
C12   O4    A    
C49   H15   S    
C49   H17   S    
C52   H24   S    
C30   C31   A    
C28   C58   S    
N1    Zn1   S    
C55   N7    T    
C17   C19   A    
C58   H34   S    
C51   H22   S    
C14   C49   S    
C56   N8    T    
C12   O3    A    
C2    C40   A    
C38   N1    A    
C20   C21   A    
C50   H18   S    
C14   C15   A    
C57   H32   S    
