data_mof_unit_42560.cif
_audit_creation_date              2012-12-10T20:53:07-0500
_audit_creation_method            fapswitch 2.2
_symmetry_space_group_name_H-M    P1
_symmetry_Int_Tables_number       1
_space_group_crystal_system       triclinic
_cell_length_a                    18.251763
_cell_length_b                    18.352526
_cell_length_c                    18.351351
_cell_angle_alpha                 60.060597
_cell_angle_beta                  60.207666
_cell_angle_gamma                 59.895817
_cell_volume                      4351.96411504

loop_
_atom_site_label
_atom_site_type_symbol
_atom_type_description
_atom_site_fract_x
_atom_site_fract_y
_atom_site_fract_z
_atom_type_partial_charge
C1    C     C_R   0.390086 0.109815 0.110249 0.474338
C2    C     C_R   0.337035 0.798400 0.806226 -0.137786
C3    C     C_R   0.035711 0.551022 0.910416 0.012648
C4    C     C_R   0.433463 0.082397 0.972416 0.002080
C5    C     C_R   0.565909 0.917046 0.027650 0.004064
C6    C     C_R   0.945859 0.946032 0.554696 0.003179
C7    C     C_R   0.053788 0.054226 0.445670 0.005057
C8    C     C_R   0.945763 0.554330 0.946086 0.009484
C9    C     C_R   0.054062 0.445809 0.054117 0.005047
C10   C     C_R   0.553613 0.945973 0.945911 -0.011076
C11   C     C_R   0.446391 0.053931 0.053891 -0.010991
C12   C     C_3   0.942341 0.617074 0.253317 0.017586
C13   C     C_R   0.173022 0.003844 0.636293 -0.111849
C14   C     C_3   0.841281 0.639146 0.283013 -0.264628
C15   C     C_3   0.820255 0.584122 0.259798 -0.486525
C16   C     C_3   0.114719 0.291986 0.690879 0.000820
C17   C     C_3   0.196045 0.316635 0.614577 -0.253417
C18   C     C_3   0.262826 0.241598 0.575602 -0.483726
C19   C     C_3   0.600890 0.231438 0.955662 0.015883
C20   C     C_3   0.619294 0.252991 0.857483 -0.274926
C21   C     C_3   0.574108 0.210114 0.846339 -0.472232
C22   C     C_3   0.352518 0.771852 0.082920 -0.010448
C23   C     C_3   0.387168 0.835507 0.077812 -0.252179
C24   C     C_R   0.826067 0.992328 0.343553 -0.119423
C25   C     C_3   0.322941 0.880057 0.148894 -0.474869
C26   C     C_3   0.427940 0.835286 0.434071 0.009567
C27   C     C_3   0.440793 0.738845 0.453465 -0.263935
C28   C     C_3   0.480357 0.717625 0.368053 -0.486713
C29   C     C_3   0.565392 0.208817 0.477606 -0.002080
C30   C     C_3   0.485732 0.252552 0.545280 -0.252771
C31   C     C_3   0.440143 0.351090 0.500145 -0.493978
C32   C     C_R   0.187772 0.563646 0.290362 -0.114148
C33   C     C_R   0.826844 0.418732 0.715966 -0.138203
C34   C     C_R   0.591427 0.294810 0.172913 -0.135969
C35   C     C_R   0.383839 0.709894 0.846078 -0.149880
C36   C     C_R   0.251726 0.018866 0.610140 -0.115393
C37   C     C_R   0.743844 0.981288 0.375058 -0.120621
C38   C     C_R   0.095056 0.583669 0.316642 0.068405
C39   C     C_R   0.609953 0.890160 0.889650 0.480355
C40   C     C_R   0.916004 0.413964 0.684557 0.066532
C41   C     C_R   0.587152 0.316362 0.089923 0.080278
C42   C     C_R   0.409927 0.686933 0.917118 0.065822
C43   C     C_R   0.334064 0.968836 0.562856 0.060502
C44   C     C_R   0.668801 0.023582 0.434748 0.057949
C45   C     C_R   0.049701 0.645126 0.254094 0.296177
C46   C     C_R   0.964988 0.367097 0.744013 0.310306
C47   C     C_R   0.634983 0.251593 0.047506 0.300370
C48   C     C_R   0.385867 0.753097 0.950918 0.328885
C49   C     C_R   0.337949 0.900407 0.545026 0.284973
C50   C     C_R   0.110112 0.110179 0.389724 0.484099
C51   C     C_R   0.676293 0.078664 0.461587 0.282177
C52   C     C_R   0.097390 0.687248 0.166917 -0.094747
C53   C     C_R   0.923255 0.327020 0.834551 -0.091147
C54   C     C_R   0.687995 0.166397 0.088535 -0.098225
C55   C     C_R   0.341649 0.843010 0.907264 -0.090796
C56   C     C_R   0.258200 0.884604 0.573638 -0.109238
C57   C     C_R   0.759463 0.088702 0.430027 -0.098073
C58   C     C_R   0.189623 0.666618 0.141410 -0.150979
C59   C     C_R   0.834098 0.332525 0.865420 -0.130970
C60   C     C_R   0.692111 0.145778 0.170923 -0.145392
C61   C     C_R   0.889597 0.890076 0.610343 0.483811
C62   C     C_R   0.316788 0.864937 0.836150 -0.154568
C63   C     C_R   0.176164 0.937245 0.617493 -0.136162
C64   C     C_R   0.833927 0.045784 0.371186 -0.132144
C65   C     C_R   0.989772 0.590893 0.464950 -0.122923
C66   C     C_R   0.010260 0.410073 0.533645 -0.157153
C67   C     C_R   0.590752 0.465817 0.989049 -0.145129
C68   C     C_R   0.408235 0.535124 0.012268 -0.166355
C69   C     C_R   0.470993 0.938465 0.584376 -0.130098
C70   C     C_R   0.528294 0.059307 0.416700 -0.163888
C71   C     C_R   0.945572 0.552471 0.554887 0.022468
C72   C     C_R   0.110164 0.389766 0.110224 0.478168
C73   C     C_R   0.055717 0.447929 0.444326 -0.000285
C74   C     C_R   0.551308 0.556219 0.946288 0.033334
C75   C     C_R   0.447763 0.444701 0.055216 0.013403
C76   C     C_R   0.553740 0.948140 0.553982 0.043658
C77   C     C_R   0.445413 0.050311 0.447029 0.023794
C78   C     C_R   0.957142 0.460498 0.589836 0.000196
C79   C     C_R   0.046037 0.539511 0.409476 -0.010155
C80   C     C_R   0.458191 0.591908 0.959027 0.000484
C81   C     C_R   0.540271 0.409673 0.043766 0.001362
C82   C     C_R   0.582912 0.009132 0.469303 0.000183
C83   C     C_R   0.889730 0.610253 0.889891 0.480971
C84   C     C_R   0.416502 0.988393 0.531469 0.003472
C85   C     C_R   0.110980 0.390512 0.389548 0.489604
C86   C     C_R   0.889619 0.609527 0.610270 0.503279
C87   C     C_R   0.390623 0.389637 0.110735 0.497376
C88   C     C_R   0.609205 0.610522 0.889636 0.513292
C89   C     C_R   0.389937 0.107984 0.390127 0.499669
C90   C     C_R   0.609882 0.891146 0.610093 0.523290
C91   C     C_R   0.181439 0.926015 0.403048 -0.099749
C92   C     C_R   0.818496 0.073801 0.598537 -0.095249
C93   C     C_R   0.926902 0.399703 0.179485 -0.101165
C94   C     C_R   0.234830 0.604630 0.202906 -0.120489
C95   C     C_R   0.073052 0.600140 0.820597 -0.086629
C96   C     C_R   0.369405 0.165775 0.942196 -0.102765
C97   C     C_R   0.629027 0.832991 0.058126 -0.093426
C98   C     C_R   0.217054 0.836589 0.409707 -0.139990
C99   C     C_R   0.782727 0.163220 0.592063 -0.126864
C100  C     C_R   0.837755 0.404710 0.213903 -0.128494
C101  C     C_R   0.162020 0.595626 0.786353 -0.121766
C102  C     C_R   0.358941 0.193741 0.861090 -0.131145
C103  C     C_R   0.643973 0.807294 0.136143 -0.127534
C104  C     C_R   0.163836 0.782844 0.464143 -0.130841
C105  C     C_R   0.785969 0.378648 0.806174 -0.107820
C106  C     C_R   0.835942 0.217041 0.537405 -0.133812
C107  C     C_R   0.783678 0.459332 0.160438 -0.125221
C108  C     C_R   0.215842 0.541707 0.840088 -0.126477
C109  C     C_R   0.413009 0.140904 0.807169 -0.128204
C110  C     C_R   0.594193 0.862491 0.187501 -0.135534
C111  C     C_R   0.074444 0.818362 0.512033 -0.098125
C112  C     C_R   0.925261 0.181693 0.489054 -0.101526
C113  C     C_R   0.818590 0.508919 0.072201 -0.098730
C114  C     C_R   0.180948 0.492071 0.928308 -0.099243
C115  C     C_R   0.477891 0.059949 0.833978 -0.098041
C116  C     C_R   0.644505 0.210106 0.212689 -0.138153
C117  C     C_R   0.527247 0.942318 0.162620 -0.107083
C118  C     C_R   0.036276 0.909337 0.505816 0.003952
C119  C     C_R   0.963428 0.090821 0.494923 0.003821
C120  C     C_R   0.909359 0.504151 0.035343 0.005659
C121  C     C_R   0.090360 0.496289 0.964974 0.008087
C122  C     C_R   0.488234 0.028472 0.917560 -0.005331
C123  C     C_R   0.513051 0.972045 0.081387 0.000385
C124  C     C_R   0.090618 0.963884 0.450745 0.007207
C125  C     C_R   0.909155 0.036196 0.550163 0.000336
C126  C     C_R   0.964130 0.449094 0.089778 0.006186
H1    H     H_    0.807813 0.286633 0.532094 0.103533
H2    H     H_    0.337571 0.562219 0.020024 0.139412
H3    H     H_    0.450169 0.889598 0.648277 0.142133
H4    H     H_    0.549652 0.107032 0.352367 0.133574
H5    H     H_    0.226064 0.964637 0.360687 0.115108
H6    H     H_    0.773931 0.035108 0.640872 0.132718
H7    H     H_    0.965689 0.357492 0.224297 0.117440
H8    H     H_    0.034364 0.642074 0.775686 0.120220
H9    H     H_    0.328213 0.211914 0.978969 0.135107
H10   H     H_    0.667600 0.785695 0.022720 0.131798
H11   H     H_    0.286359 0.808735 0.372790 0.104160
H12   H     H_    0.192004 0.713221 0.469554 0.106412
H13   H     H_    0.713216 0.190998 0.629100 0.109216
H14   H     H_    0.810351 0.366645 0.282597 0.105296
H15   H     H_    0.189416 0.633749 0.717674 0.106248
H16   H     H_    0.309651 0.257483 0.839320 0.117570
H17   H     H_    0.693922 0.743908 0.157153 0.110391
H18   H     H_    0.036072 0.773530 0.554296 0.115964
H19   H     H_    0.963585 0.226572 0.446693 0.114193
H20   H     H_    0.773459 0.551279 0.033681 0.117318
H21   H     H_    0.225973 0.450117 0.966942 0.116783
H22   H     H_    0.520188 0.023568 0.787496 0.146245
H23   H     H_    0.285103 0.537880 0.813196 0.104818
H24   H     H_    0.487293 0.979444 0.208352 0.132757
H25   H     H_    0.225978 0.698832 0.073911 0.114239
H26   H     H_    0.802037 0.301998 0.935450 0.136439
H27   H     H_    0.734000 0.080489 0.201245 0.119226
H28   H     H_    0.282274 0.933827 0.803716 0.111907
H29   H     H_    0.115172 0.925243 0.638401 0.128591
H30   H     H_    0.897812 0.053748 0.347266 0.126646
H31   H     H_    0.306380 0.588418 0.182841 0.126697
H32   H     H_    0.716553 0.384675 0.829915 0.174092
H33   H     H_    0.649590 0.194680 0.275467 0.106333
H34   H     H_    0.714238 0.463664 0.187527 0.105367
H35   H     H_    0.317451 0.815609 0.751269 0.136479
H36   H     H_    0.109573 0.043638 0.671528 0.114913
H37   H     H_    0.883829 0.959094 0.297961 0.122138
H38   H     H_    0.223471 0.516033 0.337600 0.093440
H39   H     H_    0.788617 0.455002 0.670849 0.099990
H40   H     H_    0.556003 0.344606 0.205286 0.097127
H41   H     H_    0.400149 0.659045 0.821407 0.111465
H42   H     H_    0.248476 0.069965 0.625999 0.099431
H43   H     H_    0.738764 0.939053 0.353737 0.119037
H44   H     H_    0.062822 0.735758 0.118939 0.113197
H45   H     H_    0.606508 0.842371 0.247838 0.102605
H46   H     H_    0.959601 0.292783 0.881041 0.116875
H47   H     H_    0.728751 0.117170 0.055109 0.106134
H48   H     H_    0.326790 0.896496 0.927350 0.099709
H49   H     H_    0.259504 0.830855 0.563337 0.112722
H50   H     H_    0.766230 0.129841 0.451180 0.120386
H51   H     H_    0.973170 0.544128 0.285395 0.157420
H52   H     H_    0.970191 0.633796 0.179550 0.136704
H53   H     H_    0.812237 0.624922 0.356251 0.176084
H54   H     H_    0.809588 0.711345 0.249914 0.170304
H55   H     H_    0.847385 0.598259 0.186667 0.162414
H56   H     H_    0.405373 0.163213 0.743768 0.108662
H57   H     H_    0.746496 0.601478 0.282339 0.139075
H58   H     H_    0.849939 0.511728 0.293709 0.148436
H59   H     H_    0.089265 0.264853 0.668827 0.110986
H60   H     H_    0.135997 0.238501 0.749009 0.132899
H61   H     H_    0.173304 0.377552 0.560821 0.180552
H62   H     H_    0.229984 0.331590 0.639199 0.162382
H63   H     H_    0.289070 0.180492 0.627118 0.136471
H64   H     H_    0.319801 0.262451 0.519436 0.144311
H65   H     H_    0.230171 0.226817 0.549548 0.183677
H66   H     H_    0.527141 0.254764 0.989695 0.172557
H67   H     H_    0.982690 0.660961 0.437929 0.152512
H68   H     H_    0.628739 0.157668 0.986146 0.136211
H69   H     H_    0.593919 0.326595 0.825207 0.164537
H70   H     H_    0.692847 0.228270 0.823531 0.172932
H71   H     H_    0.597983 0.136453 0.878507 0.165894
H72   H     H_    0.590288 0.225475 0.774452 0.142242
H73   H     H_    0.500344 0.237421 0.876522 0.152554
H74   H     H_    0.346182 0.719659 0.149796 0.145979
H75   H     H_    0.283550 0.806993 0.078370 0.108422
H76   H     H_    0.453759 0.797498 0.087515 0.177038
H77   H     H_    0.395609 0.887939 0.011199 0.179624
H78   H     H_    0.016223 0.340379 0.560325 0.127438
H79   H     H_    0.256650 0.920808 0.138846 0.157981
H80   H     H_    0.350525 0.924434 0.144614 0.163152
H81   H     H_    0.314212 0.828757 0.216233 0.141202
H82   H     H_    0.488129 0.851482 0.380166 0.151426
H83   H     H_    0.370531 0.882726 0.408269 0.101850
H84   H     H_    0.486633 0.691679 0.493412 0.183673
H85   H     H_    0.375250 0.727830 0.492996 0.142149
H86   H     H_    0.444072 0.770636 0.320289 0.148386
H87   H     H_    0.475433 0.653015 0.384103 0.139326
H88   H     H_    0.552251 0.711465 0.336349 0.149643
H89   H     H_    0.661472 0.438521 0.981221 0.138969
H90   H     H_    0.541031 0.215529 0.428853 0.125365
H91   H     H_    0.614718 0.244384 0.442068 0.120815
H92   H     H_    0.436355 0.217259 0.581748 0.167576
H93   H     H_    0.509165 0.246577 0.594176 0.165987
H94   H     H_    0.487717 0.388160 0.465637 0.142800
H95   H     H_    0.381797 0.380315 0.551049 0.142826
H96   H     H_    0.415964 0.358784 0.451001 0.140244
O1    O     O_3   0.250000 0.250000 0.250000 -0.430269
O2    O     O_R   0.865800 0.694910 0.573470 -0.553609
O3    O     O_R   0.305090 0.426530 0.134200 -0.544343
O4    O     O_R   0.694910 0.573470 0.865800 -0.556971
O5    O     O_R   0.426530 0.134200 0.305090 -0.547160
O6    O     O_R   0.573470 0.865800 0.694910 -0.551691
O7    O     O_R   0.134190 0.426530 0.134200 -0.555758
O8    O     O_R   0.865810 0.573470 0.865800 -0.534519
O9    O     O_R   0.426530 0.134200 0.134190 -0.565812
O10   O     O_R   0.573470 0.865800 0.865810 -0.545465
O11   O     O_R   0.134200 0.134190 0.426530 -0.539282
O12   O     O_3   0.750000 0.750000 0.750000 -0.445127
O13   O     O_R   0.865800 0.865810 0.573470 -0.535666
O14   O     O_R   0.426530 0.305080 0.134210 -0.549867
O15   O     O_R   0.573470 0.694920 0.865790 -0.509799
O16   O     O_R   0.305080 0.134210 0.426530 -0.546972
O17   O     O_R   0.694920 0.865790 0.573470 -0.530843
O18   O     O_R   0.134210 0.426530 0.305080 -0.547636
O19   O     O_R   0.865790 0.573470 0.694920 -0.522202
O20   O     O_3   0.958142 0.667167 0.279264 -0.583884
O21   O     O_3   0.050269 0.368457 0.715244 -0.565612
O22   O     O_3   0.641091 0.276705 0.960578 -0.611615
O23   O     O_R   0.305080 0.134200 0.134200 -0.547005
O24   O     O_3   0.415900 0.728218 0.019235 -0.565951
O25   O     O_3   0.421254 0.843321 0.510137 -0.582255
O26   O     O_3   0.603943 0.117847 0.523008 -0.584203
O27   O     O_R   0.694920 0.865800 0.865800 -0.545920
O28   O     O_R   0.134200 0.134200 0.305080 -0.546123
O29   O     O_R   0.865800 0.865800 0.694920 -0.547954
O30   O     O_R   0.134200 0.305080 0.134200 -0.543615
O31   O     O_R   0.865800 0.694920 0.865800 -0.551964
O32   O     O_R   0.134200 0.305090 0.426530 -0.558597
Zn1   Zn    Zn3+2 0.206620 0.206630 0.380140 0.908118
Zn2   Zn    Zn3+2 0.793380 0.793370 0.619860 0.940306
Zn3   Zn    Zn3+2 0.206630 0.380140 0.206620 0.910619
Zn4   Zn    Zn3+2 0.793370 0.619860 0.793380 0.940375
Zn5   Zn    Zn3+2 0.380140 0.206620 0.206630 0.907250
Zn6   Zn    Zn3+2 0.619860 0.793380 0.793370 0.947661
Zn7   Zn    Zn3+2 0.206620 0.206620 0.206620 0.911574
Zn8   Zn    Zn3+2 0.793380 0.793380 0.793380 0.918065

loop_
_geom_bond_atom_site_label_1
_geom_bond_atom_site_label_2
_ccdc_geom_bond_type
O31   Zn8   S    
C109  H56   S    
C48   C55   A    
C32   C94   A    
C18   H63   S    
C68   C80   A    
C65   C79   A    
C96   C102  A    
C8    C83   S    
C67   H89   S    
C19   C20   S    
C1    C11   S    
C9    C72   S    
C70   H4    S    
C7    C124  A    
C106  H1    S    
O23   Zn7   S    
C92   C125  A    
O4    Zn4   S    
C107  H34   S    
C53   C59   A    
C13   H36   S    
C55   H48   S    
C106  C112  A    
C59   H26   S    
C26   O25   S    
C68   C75   A    
O12   Zn6   S    
C8    C120  A    
C85   O32   A    
C59   C105  A    
C90   O17   A    
C83   O31   A    
C103  C110  A    
C6    C61   S    
C90   O6    A    
C92   H6    S    
C21   H73   S    
C114  H21   S    
C102  C109  A    
C44   C82   S    
C16   H59   S    
C37   H43   S    
C47   O22   S    
C120  C126  A    
C91   H5    S    
C38   C79   S    
C17   H62   S    
C34   C116  A    
C71   C86   S    
C55   C62   A    
C32   H38   S    
C36   H42   S    
C112  H19   S    
C2    H35   S    
C69   C76   A    
C108  C114  A    
C35   C42   A    
C60   H27   S    
C107  C113  A    
C38   C45   A    
C48   O24   S    
C100  H14   S    
C53   H46   S    
C31   H95   S    
C114  C121  A    
C101  H15   S    
C88   O4    A    
O8    Zn4   S    
C34   H40   S    
C16   C17   S    
C87   O3    A    
C15   H57   S    
C5    C123  A    
C9    C121  A    
C117  H24   S    
C51   C57   A    
C32   C38   A    
O18   Zn3   S    
C21   H72   S    
C20   H69   S    
C14   H53   S    
C50   O28   A    
O5    Zn5   S    
C19   H66   S    
C30   H92   S    
C117  C123  A    
C66   H78   S    
C110  H45   S    
C101  C108  A    
C29   H91   S    
C12   H51   S    
C118  C124  A    
C24   C64   A    
C115  C122  A    
C74   C80   A    
C17   H61   S    
C70   C77   A    
C43   C84   S    
C99   H13   S    
C34   C41   A    
C86   O2    A    
C46   O21   S    
C89   O5    A    
C25   H79   S    
C110  C117  A    
C17   C18   S    
C96   H9    S    
C65   H67   S    
C28   H88   S    
C66   C78   A    
C33   H39   S    
C18   H65   S    
C33   C40   A    
O19   Zn4   S    
C56   H49   S    
C7    C119  A    
C33   C105  A    
C6    C125  A    
C13   C36   A    
C20   H70   S    
C3    C8    A    
C72   O7    A    
C52   H44   S    
C22   O24   S    
C2    C35   A    
O11   Zn1   S    
C43   C49   A    
C29   H90   S    
C54   C60   A    
C23   H76   S    
C45   C52   A    
O2    Zn2   S    
C65   C71   A    
C66   C73   A    
O9    Zn5   S    
C115  H22   S    
C95   H8    S    
C87   O14   A    
C62   H28   S    
C23   H77   S    
C10   C39   S    
C113  H20   S    
C50   O11   A    
C40   C46   A    
O28   Zn7   S    
C29   C30   S    
C104  C111  A    
C31   H96   S    
C1    O9    A    
C35   H41   S    
C105  H32   S    
C39   O27   A    
O12   Zn8   S    
C61   O29   A    
C41   C81   S    
C15   H58   S    
O15   Zn6   S    
C27   H85   S    
C24   C37   A    
C41   C47   A    
C56   C63   A    
C4    C122  A    
C67   C74   A    
C42   C48   A    
C72   O30   A    
C4    C11   A    
C100  C107  A    
C93   C100  A    
C73   C85   S    
C97   C103  A    
C21   H71   S    
C52   C58   A    
C111  H18   S    
C116  H33   S    
C47   C54   A    
C119  C125  A    
C44   C51   A    
C75   C87   S    
O30   Zn7   S    
C67   C81   A    
C94   H31   S    
C12   O20   S    
C91   C124  A    
C111  C118  A    
C26   C27   S    
O27   Zn8   S    
C29   O26   S    
C40   C78   S    
C60   C116  A    
C24   H37   S    
C76   C82   A    
C25   H80   S    
O12   Zn2   S    
O1    Zn7   S    
C58   H25   S    
C54   H47   S    
C57   C64   A    
O1    Zn3   S    
C31   H94   S    
C22   H74   S    
C28   H87   S    
O12   Zn4   S    
C99   C106  A    
C68   H2    S    
C18   H64   S    
O14   Zn5   S    
C22   H75   S    
C22   C23   S    
C89   O16   A    
C11   C123  A    
C7    C50   S    
C5    C97   A    
C10   C122  A    
C103  H17   S    
C93   C126  A    
O13   Zn2   S    
C112  C119  A    
C3    C95   A    
O6    Zn6   S    
C19   O22   S    
C98   H11   S    
C77   C89   S    
C83   O8    A    
C75   C81   A    
C28   H86   S    
C49   C56   A    
C64   H30   S    
C93   H7    S    
C9    C126  A    
C77   C84   A    
O16   Zn1   S    
C85   O18   A    
O32   Zn1   S    
C51   O26   S    
C12   C14   S    
O3    Zn3   S    
C5    C10   A    
C69   C84   A    
C16   H60   S    
C73   C79   A    
O1    Zn5   S    
O17   Zn2   S    
C30   C31   S    
C113  C120  A    
C37   C44   A    
C86   O19   A    
C61   O13   A    
C88   O15   A    
C15   H55   S    
C46   C53   A    
C49   O25   S    
C104  H12   S    
C4    C96   A    
C26   H83   S    
C3    C121  A    
C13   C63   A    
C23   C25   S    
C91   C98   A    
C58   C94   A    
C70   C82   A    
C14   H54   S    
C109  C115  A    
O29   Zn8   S    
C63   H29   S    
C108  H23   S    
C16   O21   S    
O1    Zn1   S    
C39   O10   A    
C20   C21   S    
C19   H68   S    
C69   H3    S    
C27   H84   S    
O10   Zn6   S    
C57   H50   S    
C76   C90   S    
C42   C80   S    
C14   C15   S    
C36   C43   A    
C1    O23   A    
C102  H16   S    
C97   H10   S    
C74   C88   S    
C12   H52   S    
C25   H81   S    
C2    C62   A    
C45   O20   S    
C98   C104  A    
C71   C78   A    
C26   H82   S    
C95   C101  A    
C92   C99   A    
C6    C118  A    
C30   H93   S    
C27   C28   S    
O7    Zn3   S    
