data_mof_unit_6984.cif
_audit_creation_date              2012-12-11T14:58:30-0500
_audit_creation_method            fapswitch 2.2
_symmetry_space_group_name_H-M    P1
_symmetry_Int_Tables_number       1
_space_group_crystal_system       triclinic
_cell_length_a                    10.921701
_cell_length_b                    10.951567
_cell_length_c                    18.825249
_cell_angle_alpha                 90.516633
_cell_angle_beta                  90.733615
_cell_angle_gamma                 59.775804
_cell_volume                      1945.42641642

loop_
_atom_site_label
_atom_site_type_symbol
_atom_type_description
_atom_site_fract_x
_atom_site_fract_y
_atom_site_fract_z
_atom_type_partial_charge
C1    C     C_R   0.360020 0.768864 0.396054 0.538301
C2    C     C_R   0.614507 0.130643 0.164859 0.053054
C3    C     C_R   0.354969 0.330489 0.163888 -0.004649
C4    C     C_R   0.482264 0.243540 0.273987 -0.149611
C5    C     C_R   0.482423 0.239086 0.200599 -0.029919
C6    C     C_R   0.039815 0.689246 0.289306 -0.100261
C7    C     C_R   0.926306 0.795549 0.327086 -0.110425
C8    C     C_R   0.682087 0.988465 0.186703 -0.104101
C9    C     C_R   0.797351 0.884159 0.149028 -0.125508
C10   C     C_R   0.236401 0.432472 0.201671 -0.155177
C11   C     C_R   0.236346 0.437189 0.275665 -0.041124
C12   C     C_R   0.385431 0.354012 0.387780 0.532570
C13   C     C_R   0.877781 0.762150 0.387953 -0.114094
C14   C     C_R   0.941173 0.621986 0.410408 -0.095191
C15   C     C_R   0.051479 0.514459 0.371380 -0.053692
C16   C     C_R   0.106217 0.547678 0.312036 0.045989
C17   C     C_R   0.361696 0.339816 0.312352 -0.002692
C18   C     C_R   0.861102 0.228622 0.295960 -0.145565
C19   C     C_R   0.883049 0.216356 0.223449 -0.130858
C20   C     C_R   0.861324 0.334280 0.183875 0.026880
C21   C     C_R   0.813800 0.464771 0.216647 -0.138854
C22   C     C_R   0.793249 0.476576 0.288690 -0.123949
C23   C     C_R   0.773816 0.381311 0.401897 0.544045
C24   C     C_R   0.818388 0.358285 0.328923 0.029280
C25   C     C_R   0.341815 0.711499 0.272653 -0.122272
C26   C     C_R   0.338665 0.734859 0.200395 -0.144694
C27   C     C_R   0.356922 0.844415 0.176061 0.032852
C28   C     C_R   0.386630 0.925197 0.224286 -0.132515
C29   C     C_R   0.389053 0.901813 0.297143 -0.153006
C30   C     C_R   0.359364 0.799266 0.321240 0.037692
C31   C     C_R   0.385097 0.201490 0.694490 -0.154644
C32   C     C_R   0.375071 0.190165 0.766502 -0.154382
C33   C     C_R   0.300708 0.311579 0.809380 0.028647
C34   C     C_R   0.344415 0.769448 0.604713 0.545798
C35   C     C_R   0.226766 0.446548 0.777877 0.226305
C36   C     C_R   0.234459 0.456000 0.704697 -0.063811
C37   C     C_R   0.320373 0.334527 0.663826 -0.018734
C38   C     C_R   0.746208 0.474871 0.731682 -0.115257
C39   C     C_R   0.755756 0.462316 0.804498 -0.120839
C40   C     C_R   0.813624 0.329028 0.835701 0.026791
C41   C     C_R   0.844680 0.210653 0.793240 -0.129686
C42   C     C_R   0.829165 0.224598 0.719513 -0.133796
C43   C     C_R   0.785549 0.356197 0.688342 0.033414
C44   C     C_R   0.199429 0.835399 0.712415 -0.124684
C45   C     C_R   0.368368 0.350719 0.595258 0.544976
C46   C     C_R   0.191273 0.845664 0.785525 -0.105025
C47   C     C_R   0.301587 0.843768 0.824959 0.032865
C48   C     C_R   0.421670 0.828481 0.790311 -0.147649
C49   C     C_R   0.429194 0.819601 0.716963 -0.149856
C50   C     C_R   0.319815 0.819389 0.677699 0.028262
C51   C     C_R   0.912267 0.314877 0.112141 0.542882
C52   C     C_R   0.328865 0.294731 0.092467 0.534342
C53   C     C_R   0.309474 0.897819 0.104913 0.543688
C54   C     C_R   0.878629 0.310497 0.905786 0.540432
C55   C     C_R   0.293872 0.286810 0.884432 0.532848
C56   C     C_R   0.757369 0.380093 0.612349 0.547676
C57   C     C_R   0.275756 0.893563 0.897875 0.543038
C58   C     C_R   0.846180 0.920238 0.089152 -0.105440
C59   C     C_R   0.780412 0.060871 0.067197 -0.083650
C60   C     C_R   0.667567 0.166390 0.105780 -0.063918
Cr1   Cr    Cr6+3 0.601770 0.606860 0.505860 0.996504
Cr2   Cr    Cr6+3 0.291380 0.601660 0.495070 1.021028
Cr3   Cr    Cr6+3 0.606880 0.291510 0.499120 1.010790
Cr4   Cr    Cr6+3 0.062440 0.063090 0.008210 0.988551
Cr5   Cr    Cr6+3 0.062880 0.375170 0.998920 1.021661
Cr6   Cr    Cr6+3 0.374700 0.061720 0.992470 1.023085
H1    H     H_    0.581121 0.173184 0.301105 0.140414
H2    H     H_    0.791574 0.844933 0.417917 0.105089
H3    H     H_    0.905703 0.596898 0.458578 0.135920
H4    H     H_    0.098474 0.406204 0.389308 0.100386
H5    H     H_    0.876879 0.137882 0.326048 0.119857
H6    H     H_    0.921628 0.113606 0.199030 0.152621
H7    H     H_    0.796316 0.556745 0.187073 0.129988
H8    H     H_    0.753822 0.580118 0.312320 0.154032
H9    H     H_    0.328837 0.625663 0.291053 0.141544
H10   H     H_    0.315185 0.672275 0.163775 0.112191
H11   H     H_    0.396902 0.012997 0.205919 0.136192
H12   H     H_    0.847200 0.774898 0.165521 0.109045
H13   H     H_    0.407967 0.966746 0.334321 0.111130
H14   H     H_    0.450117 0.106960 0.663536 0.134791
H15   H     H_    0.428499 0.084891 0.788757 0.149233
H16   H     H_    0.183968 0.560271 0.681119 0.156801
H17   H     H_    0.707984 0.578549 0.709386 0.135849
H18   H     H_    0.729348 0.555532 0.836042 0.131615
H19   H     H_    0.889528 0.106525 0.816385 0.128059
H20   H     H_    0.855077 0.132744 0.687004 0.120724
H21   H     H_    0.113262 0.835084 0.683430 0.132592
H22   H     H_    0.877615 0.904255 0.309857 0.105045
H23   H     H_    0.096292 0.860165 0.810774 0.155312
H24   H     H_    0.507349 0.829067 0.819657 0.121182
H25   H     H_    0.522191 0.808837 0.691207 0.117968
H26   H     H_    0.934200 0.839111 0.059422 0.110189
H27   H     H_    0.816291 0.087991 0.019873 0.144235
H28   H     H_    0.617724 0.274943 0.087955 0.095597
H29   H     H_    0.077908 0.718325 0.243331 0.102951
H30   H     H_    0.643587 0.957476 0.231832 0.099131
H31   H     H_    0.138693 0.503012 0.173714 0.136790
O1    O     O_R   0.748800 0.497470 0.428000 -0.541105
O2    O     O_R   0.300070 0.471040 0.567100 -0.513372
O3    O     O_R   0.491670 0.258900 0.574910 -0.514613
O4    O     O_R   0.718780 0.304180 0.577850 -0.499491
O5    O     O_3   0.500010 0.500010 0.500020 -0.245702
O6    O     O_R   0.186690 0.923650 0.086970 -0.522167
O7    O     O_R   0.957250 0.194250 0.084630 -0.518265
O8    O     O_R   0.934970 0.407490 0.085330 -0.526127
O9    O     O_R   0.203780 0.365190 0.067090 -0.512275
O10   O     O_R   0.417600 0.174890 0.067840 -0.504737
O11   O     O_R   0.375320 0.946260 0.070860 -0.499154
O12   O     O_R   0.476420 0.724060 0.429470 -0.504781
O13   O     O_R   0.160600 0.919630 0.926660 -0.529231
O14   O     O_R   0.933060 0.190520 0.936020 -0.524516
O15   O     O_R   0.908880 0.403460 0.925020 -0.508281
O16   O     O_R   0.179600 0.361450 0.918490 -0.489468
O17   O     O_R   0.391510 0.170860 0.907530 -0.531013
O18   O     O_R   0.351130 0.942530 0.922260 -0.509241
O19   O     O_3   0.166667 0.166667 0.999870 -0.242590
O20   O     O_R   0.264580 0.744340 0.416750 -0.509165
O21   O     O_R   0.309380 0.472470 0.418200 -0.495200
O22   O     O_R   0.501710 0.260430 0.414300 -0.533861
O23   O     O_R   0.728090 0.305600 0.428960 -0.503382
O24   O     O_R   0.738760 0.495930 0.588610 -0.531232
O25   O     O_R   0.467110 0.722640 0.578360 -0.508736
O26   O     O_R   0.254530 0.742800 0.577360 -0.528329
O27   O     O_3   0.152836 0.570680 0.815892 -0.716412
H32   H     H_    0.190082 0.555116 0.865164 0.331255

loop_
_geom_bond_atom_site_label_1
_geom_bond_atom_site_label_2
_ccdc_geom_bond_type
C33   C55   S    
Cr4   O6    S    
C40   C41   A    
C34   O26   A    
Cr4   O19   S    
C38   H17   S    
C41   C42   A    
C35   C36   A    
C8    H30   S    
Cr6   O10   S    
Cr3   O4    S    
Cr1   O12   S    
C31   H14   S    
C57   O18   A    
C46   H23   S    
C32   H15   S    
C28   C29   A    
C26   C27   A    
Cr3   O3    S    
Cr6   O19   S    
C18   C24   A    
C35   O27   S    
C56   O4    A    
C18   C19   A    
C20   C51   S    
C38   C39   A    
C33   C35   A    
C2    C60   A    
C15   C16   A    
C21   H7    S    
C18   H5    S    
Cr1   O24   S    
C9    C58   A    
C7    H22   S    
Cr2   O20   S    
C1    O12   A    
C11   C17   A    
C19   C20   A    
C52   O10   A    
C36   H16   S    
C8    C9    A    
C12   C17   S    
C26   H10   S    
C23   C24   S    
C42   H20   S    
C44   H21   S    
C52   O9    A    
C59   C60   A    
C34   O25   A    
C48   H24   S    
C21   C22   A    
C19   H6    S    
C49   H25   S    
Cr3   O5    S    
Cr5   O8    S    
Cr2   O26   S    
C44   C46   A    
C34   C50   S    
Cr6   O18   S    
C45   O2    A    
C23   O23   A    
Cr4   O14   S    
C55   O16   A    
C51   O7    A    
C31   C37   A    
Cr1   O25   S    
C25   H9    S    
C10   H31   S    
Cr5   O15   S    
C29   C30   A    
C47   C57   S    
C12   O22   A    
Cr3   O22   S    
C11   C16   S    
Cr4   O13   S    
C47   C48   A    
C29   H13   S    
C51   O8    A    
C54   O15   A    
C1    O20   A    
C28   H11   S    
C12   O21   A    
C4    C17   A    
C48   C49   A    
C49   C50   A    
C40   C54   S    
C14   H3    S    
C22   C24   A    
C58   C59   A    
C2    C5    S    
C42   C43   A    
C22   H8    S    
C37   C45   S    
Cr5   O9    S    
C39   C40   A    
C44   C50   A    
C25   C30   A    
Cr4   O7    S    
C15   H4    S    
C46   C47   A    
C36   C37   A    
Cr6   O17   S    
Cr5   O16   S    
C31   C32   A    
C2    C8    A    
Cr6   O11   S    
C4    C5    A    
C3    C5    A    
C45   O3    A    
C39   H18   S    
C4    H1    S    
C3    C52   S    
C27   C53   S    
C57   O13   A    
C6    C7    A    
C55   O17   A    
C41   H19   S    
C56   O24   A    
Cr1   O5    S    
C25   C26   A    
C38   C43   A    
C3    C10   A    
C32   C33   A    
Cr3   O23   S    
Cr1   O1    S    
C53   O6    A    
C53   O11   A    
C1    C30   S    
Cr5   O19   S    
C54   O14   A    
C9    H12   S    
Cr2   O21   S    
C10   C11   A    
C6    C16   A    
Cr2   O2    S    
C43   C56   S    
C7    C13   A    
C23   O1    A    
C20   C21   A    
C6    H29   S    
C27   C28   A    
C14   C15   A    
C59   H27   S    
C13   C14   A    
C58   H26   S    
O27   H32   S    
Cr2   O5    S    
C13   H2    S    
C60   H28   S    
