data_mof_unit_59110.cif
_audit_creation_date              2012-12-11T14:21:19-0500
_audit_creation_method            fapswitch 2.2
_symmetry_space_group_name_H-M    P1
_symmetry_Int_Tables_number       1
_space_group_crystal_system       triclinic
_cell_length_a                    21.963999
_cell_length_b                    7.204433
_cell_length_c                    14.905253
_cell_angle_alpha                 89.999904
_cell_angle_beta                  106.872041
_cell_angle_gamma                 90.000017
_cell_volume                      2257.05549877

loop_
_atom_site_label
_atom_site_type_symbol
_atom_type_description
_atom_site_fract_x
_atom_site_fract_y
_atom_site_fract_z
_atom_type_partial_charge
O1    O     O_R   0.584770 0.505770 0.002090 -0.538382
O2    O     O_R   0.415230 0.005770 0.997910 -0.538379
O3    O     O_R   0.467060 0.173340 0.861950 -0.540844
O4    O     O_R   0.532940 0.673340 0.138050 -0.540843
C1    C     C_R   0.455182 0.344197 0.825944 0.715050
C2    C     C_R   0.544818 0.844197 0.174056 0.715059
O5    O     O_R   0.587510 0.175890 0.993210 -0.507099
O6    O     O_R   0.412490 0.675890 0.006790 -0.507095
O7    O     O_R   0.536540 0.008150 0.130100 -0.531930
O8    O     O_R   0.463460 0.508150 0.869900 -0.531933
C3    C     C_R   0.613414 0.343873 0.999052 0.768422
C4    C     C_R   0.386586 0.843873 0.000948 0.768419
O9    O     O_3   0.483140 0.340040 0.044760 -0.374236
O10   O     O_3   0.516860 0.840040 0.955240 -0.374244
V1    V     V_3+5 0.503130 0.064190 0.991700 1.556068
V2    V     V_3+5 0.496870 0.564190 0.008300 1.556072
C5    C     C_2   0.210607 0.727940 0.989423 -0.155635
C6    C     C_2   0.789395 0.227943 0.010589 -0.155629
C7    C     C_2   0.179408 0.887818 0.992364 -0.324361
C8    C     C_2   0.820591 0.387819 0.007635 -0.324363
H1    H     H_    0.185716 0.597487 0.988959 0.179190
H2    H     H_    0.814288 0.097490 0.011065 0.179191
H3    H     H_    0.201922 0.020257 0.988443 0.158531
H4    H     H_    0.798076 0.520259 0.011546 0.158524
C9    C     C_2   0.276603 0.713804 0.981424 0.412832
C10   C     C_2   0.723399 0.213813 0.018590 0.412837
C11   C     C_2   0.319452 0.855092 0.003353 -0.341345
C12   C     C_2   0.680547 0.355091 0.996646 -0.341337
H5    H     H_    0.305347 0.987529 0.025471 0.126919
H6    H     H_    0.694650 0.487517 0.974514 0.126897
C13   C     C_R   0.927349 0.887627 0.723699 -0.108003
C14   C     C_R   0.072651 0.387626 0.276301 -0.108004
C15   C     C_R   0.573013 0.850914 0.275606 -0.108003
C16   C     C_R   0.426986 0.350915 0.724393 -0.108001
C17   C     C_R   0.936692 0.907243 0.566533 -0.171124
C18   C     C_R   0.063308 0.407257 0.433467 -0.171123
C19   C     C_R   0.965260 0.905090 0.663093 0.369090
C20   C     C_R   0.034739 0.405100 0.336907 0.369090
C21   C     C_R   0.861235 0.872595 0.687499 -0.274654
C22   C     C_R   0.138765 0.372588 0.312501 -0.274652
C23   C     C_R   0.830990 0.876980 0.589695 0.092520
C24   C     C_R   0.169010 0.376979 0.410305 0.092519
C25   C     C_R   0.870306 0.894465 0.529583 0.054354
C26   C     C_R   0.129694 0.394474 0.470417 0.054356
C27   C     C_R   0.763343 0.866250 0.549788 0.081096
C28   C     C_R   0.236657 0.366246 0.450212 0.081094
C29   C     C_R   0.736282 0.873595 0.450208 0.069134
C30   C     C_R   0.263718 0.373597 0.549793 0.069135
C31   C     C_R   0.777886 0.890574 0.393806 -0.154800
C32   C     C_R   0.222113 0.390587 0.606194 -0.154804
C33   C     C_R   0.843294 0.900439 0.432877 -0.118518
C34   C     C_R   0.156706 0.400455 0.567123 -0.118519
C35   C     C_R   0.721913 0.848601 0.606130 -0.199037
C36   C     C_R   0.278087 0.348589 0.393870 -0.199035
C37   C     C_R   0.656549 0.837358 0.567280 -0.109644
C38   C     C_R   0.343451 0.337347 0.432720 -0.109641
C39   C     C_R   0.628906 0.842965 0.470293 0.043073
C40   C     C_R   0.371094 0.342960 0.529706 0.043071
C41   C     C_R   0.668587 0.862538 0.410339 0.031016
C42   C     C_R   0.331413 0.362537 0.589661 0.031017
C43   C     C_R   0.562085 0.827775 0.431861 0.468188
C44   C     C_R   0.437915 0.327773 0.568139 0.468188
C45   C     C_R   0.534887 0.830218 0.334997 -0.175082
C46   C     C_R   0.465113 0.330219 0.665003 -0.175083
C47   C     C_R   0.638822 0.868321 0.312440 -0.194095
C48   C     C_R   0.361178 0.368322 0.687559 -0.194099
H7    H     H_    0.873118 0.913635 0.386595 0.166792
H8    H     H_    0.126882 0.413660 0.613405 0.166790
H9    H     H_    0.665077 0.882870 0.262082 0.150485
H10   H     H_    0.334922 0.382870 0.737917 0.150471
H11   H     H_    0.483829 0.815496 0.305828 0.145572
H12   H     H_    0.516171 0.315498 0.694172 0.145569
H13   H     H_    0.627819 0.823204 0.614841 0.186034
H14   H     H_    0.372181 0.323188 0.385158 0.186036
H15   H     H_    0.966460 0.920694 0.520202 0.164906
H16   H     H_    0.033540 0.420716 0.479799 0.164906
H17   H     H_    0.835084 0.860999 0.738166 0.112926
H18   H     H_    0.164916 0.360986 0.261835 0.112928
H19   H     H_    0.761794 0.896630 0.318511 0.160393
H20   H     H_    0.238207 0.396650 0.681490 0.160381
H21   H     H_    0.738251 0.842101 0.681421 0.126853
H22   H     H_    0.261748 0.342084 0.318579 0.126856
O11   O     O_R   0.036450 0.233070 0.130130 -0.540741
O12   O     O_R   0.963550 0.733070 0.869870 -0.540740
O13   O     O_R   0.912470 0.560570 0.006790 -0.538960
O14   O     O_R   0.087530 0.060570 0.993210 -0.538960
C49   C     C_R   0.887191 0.392157 0.003436 0.782707
C50   C     C_R   0.112809 0.892157 0.996563 0.782708
O15   O     O_R   0.032920 0.562940 0.138050 -0.533882
O16   O     O_R   0.967080 0.062940 0.861950 -0.533883
O17   O     O_R   0.084790 0.730500 0.002090 -0.543582
O18   O     O_R   0.915210 0.230500 0.997910 -0.543583
C51   C     C_R   0.044723 0.394499 0.174531 0.760058
C52   C     C_R   0.955277 0.894499 0.825469 0.760058
O19   O     O_3   0.016820 0.396170 0.955260 -0.380181
O20   O     O_3   0.983180 0.896170 0.044740 -0.380182
V3    V     V_3+5 0.996880 0.672090 0.008300 1.500081
V4    V     V_3+5 0.003120 0.172090 0.991700 1.500079
Cl1   Cl    Cl    0.048626 0.924808 0.706198 -0.653986
Cl2   Cl    Cl    0.951374 0.424826 0.293802 -0.653981
Cl3   Cl    Cl    0.510157 0.802282 0.501911 -0.592814
Cl4   Cl    Cl    0.489843 0.302279 0.498089 -0.592814
Cl5   Cl    Cl    0.295135 0.496450 0.940783 -0.671338
Cl6   Cl    Cl    0.704870 0.996482 0.059255 -0.671344

loop_
_geom_bond_atom_site_label_1
_geom_bond_atom_site_label_2
_ccdc_geom_bond_type
C40   C44   A    
C11   H5    S    
C43   Cl3   S    
C6    C10   S    
C36   H22   S    
O2    C4    A    
C16   C48   A    
C2    O7    A    
O19   V4    S    
C15   C47   A    
C29   C31   A    
O5    C3    A    
C17   H15   S    
O12   V3    S    
C21   H17   S    
C17   C19   A    
O14   C50   A    
C39   C41   A    
C40   C42   A    
O11   C51   A    
C8    C49   S    
C35   H21   S    
C24   C28   A    
C27   C29   A    
C43   C45   A    
C44   C46   A    
C18   H16   S    
C10   Cl6   S    
C8    H4    S    
C13   C21   A    
C31   C33   A    
O11   V4    S    
O1    C3    A    
C32   C34   A    
C30   C42   A    
C14   C20   A    
C17   C25   A    
C34   H8    S    
O6    C4    A    
C26   C34   A    
C30   C32   A    
C14   C51   S    
C42   C48   A    
O6    V2    S    
C49   O18   A    
C1    C16   S    
C23   C25   A    
C24   C26   A    
O16   C52   A    
C28   C30   A    
C35   C37   A    
C36   C38   A    
C38   H14   S    
O13   C49   A    
O18   V4    S    
C20   Cl2   S    
C7    C50   S    
C9    Cl5   S    
O12   C52   A    
C4    C11   S    
C27   C35   A    
C5    H1    S    
C31   H19   S    
O15   V3    S    
O4    V2    S    
C7    H3    S    
C50   O17   A    
C15   C45   A    
O20   V3    S    
C28   C36   A    
C16   C46   A    
O1    V2    S    
C33   H7    S    
O17   V3    S    
O2    V1    S    
O4    C2    A    
C45   H11   S    
C37   C39   A    
C22   H18   S    
C18   C26   A    
C18   C20   A    
C19   Cl1   S    
C14   C22   A    
O3    V1    S    
C6    H2    S    
C22   C24   A    
O3    C1    A    
C32   H20   S    
C39   C43   A    
C9    C11   D    
C13   C52   S    
C10   C12   D    
C2    C15   S    
C5    C9    S    
C12   H6    S    
O7    V1    S    
C1    O8    A    
O8    V2    S    
C41   C47   A    
C25   C33   A    
C48   H10   S    
C3    C12   S    
C47   H9    S    
O5    V1    S    
C5    C7    D    
C38   C40   A    
C6    C8    D    
C46   H12   S    
O15   C51   A    
O14   V4    S    
O13   V3    S    
C29   C41   A    
C37   H13   S    
C13   C19   A    
C21   C23   A    
O9    V2    S    
C23   C27   A    
O10   V1    S    
O16   V4    S    
C44   Cl4   S    
