data_mof_unit_27163.cif
_audit_creation_date              2013-03-05T16:11:54-0500
_audit_creation_method            fapswitch 2.2
_symmetry_space_group_name_H-M    P1
_symmetry_Int_Tables_number       1
_space_group_crystal_system       triclinic
_cell_length_a                    15.735493
_cell_length_b                    10.637641
_cell_length_c                    9.840019
_cell_angle_alpha                 90.594462
_cell_angle_beta                  90.165912
_cell_angle_gamma                 89.846935
_cell_volume                      1647.00496711

loop_
_atom_site_label
_atom_site_type_symbol
_atom_site_description
_atom_site_fract_x
_atom_site_fract_y
_atom_site_fract_z
_atom_type_partial_charge
O1    O     O_R   0.499990 0.316750 0.614620 -0.602365
O2    O     O_R   0.500010 0.683250 0.385380 -0.602347
O3    O     O_R   0.500000 0.316780 0.385290 -0.573306
O4    O     O_R   0.500000 0.683220 0.614710 -0.573314
C1    C     C_R   0.500285 0.260250 0.499095 1.033284
C2    C     C_R   0.499714 0.739749 0.500905 1.033263
O5    O     O_R   0.376780 0.499970 0.614640 -0.596536
O6    O     O_R   0.623220 0.500030 0.385360 -0.596452
O7    O     O_R   0.376780 0.500000 0.385310 -0.599612
O8    O     O_R   0.623220 0.500000 0.614690 -0.600352
C3    C     C_R   0.337994 0.500029 0.499815 0.885960
C4    C     C_R   0.662005 0.499969 0.500186 0.885952
Zn1   Zn    Zn3+2 0.500000 0.499980 0.653120 1.016559
Zn2   Zn    Zn3+2 0.500000 0.500020 0.346880 1.016925
C5    C     C_3   0.972484 0.383642 0.528224 0.356513
C6    C     C_3   0.027515 0.616335 0.471794 0.356551
C7    C     C_3   0.028390 0.418338 0.405319 0.333530
C8    C     C_3   0.971609 0.581639 0.594699 0.333460
C9    C     C_1   0.249395 0.500211 0.499659 -0.149380
C10   C     C_1   0.750605 0.499780 0.500345 -0.149824
C11   C     C_3   0.026942 0.465674 0.623700 0.099434
C12   C     C_3   0.973058 0.534304 0.376318 0.099471
C13   C     C_3   0.083685 0.500105 0.501663 -0.210355
C14   C     C_3   0.916314 0.499873 0.498355 -0.210308
C15   C     C_1   0.174311 0.500315 0.500376 0.195464
C16   C     C_1   0.825689 0.499669 0.499636 0.195370
C17   C     C_R   0.557319 0.063248 0.414323 0.361380
C18   C     C_R   0.442680 0.936752 0.585678 0.361415
C19   C     C_R   0.560684 0.933555 0.422143 0.363124
C20   C     C_R   0.439316 0.066445 0.577861 0.363154
C21   C     C_R   0.500990 0.872113 0.503112 -0.398728
C22   C     C_R   0.499009 0.127887 0.496889 -0.398725
C23   C     C_R   0.552419 0.578392 0.073309 -0.285858
C24   C     C_R   0.447573 0.421612 0.926690 -0.286450
H1    H     H_    0.592677 0.642312 0.130187 0.202996
H2    H     H_    0.407328 0.357705 0.869778 0.202903
C25   C     C_R   0.553713 0.577424 0.928438 0.554906
C26   C     C_R   0.446276 0.422573 0.071592 0.555400
N1    N     N_R   0.499980 0.499970 0.857200 -0.134584
N2    N     N_R   0.500020 0.500030 0.142800 -0.134606
O9    O     O_3   0.066235 0.335493 0.310004 -0.606352
C27   C     C_3   0.002855 0.276771 0.230496 -0.177235
H3    H     H_    0.975598 0.343197 0.155875 0.238986
H4    H     H_    0.951522 0.235382 0.293074 0.168882
H5    H     H_    0.032599 0.198681 0.171984 0.175535
O10   O     O_3   0.933764 0.664484 0.690014 -0.606412
C28   C     C_3   0.997145 0.723206 0.769522 -0.177214
H6    H     H_    0.048477 0.764595 0.706944 0.168868
H7    H     H_    0.024401 0.656780 0.844143 0.238988
H8    H     H_    0.967401 0.801296 0.828035 0.175571
O11   O     O_3   0.935617 0.265921 0.556567 -0.577697
C29   C     C_3   0.999842 0.176782 0.582897 -0.248295
H9    H     H_    0.032384 0.197154 0.680759 0.207265
H10   H     H_    0.046956 0.170218 0.499252 0.170649
H11   H     H_    0.969798 0.083049 0.591916 0.169006
O12   O     O_3   0.064382 0.734057 0.443451 -0.577682
C30   C     C_3   0.000157 0.823196 0.417122 -0.248261
H12   H     H_    0.953042 0.829759 0.500767 0.170646
H13   H     H_    0.967615 0.802823 0.319260 0.207281
H14   H     H_    0.030200 0.916929 0.408103 0.168996
N3    N     N_R   0.943664 0.571497 0.241900 0.214274
O13   O     O_R   0.998675 0.598606 0.148352 -0.349959
O14   O     O_R   0.862881 0.578278 0.214669 -0.425885
N4    N     N_R   0.056337 0.428480 0.758118 0.214269
O15   O     O_R   0.001326 0.401372 0.851666 -0.350012
O16   O     O_R   0.137119 0.421696 0.785346 -0.425891
O17   O     O_3   0.616315 0.128004 0.337858 -0.585098
C31   C     C_3   0.592605 0.120711 0.199502 -0.173225
H15   H     H_    0.632346 0.187403 0.141708 0.174367
H16   H     H_    0.524984 0.148095 0.183177 0.171356
H17   H     H_    0.604320 0.025131 0.156924 0.186504
O18   O     O_3   0.383683 0.871995 0.662142 -0.585111
C32   C     C_3   0.407391 0.879289 0.800498 -0.173251
H18   H     H_    0.475012 0.851909 0.816826 0.171475
H19   H     H_    0.367651 0.812594 0.858290 0.174401
H20   H     H_    0.395671 0.974867 0.843077 0.186355
O19   O     O_3   0.620583 0.866604 0.347933 -0.592381
C33   C     C_3   0.693794 0.851234 0.429179 -0.240342
H21   H     H_    0.741232 0.795644 0.370695 0.197730
H22   H     H_    0.679513 0.798387 0.523452 0.138471
H23   H     H_    0.723130 0.943526 0.455140 0.189720
O20   O     O_3   0.379421 0.133397 0.652078 -0.592509
C34   C     C_3   0.306205 0.148764 0.570843 -0.240601
H24   H     H_    0.320479 0.201606 0.476565 0.138582
H25   H     H_    0.258771 0.204357 0.629333 0.197693
H26   H     H_    0.276867 0.056471 0.544893 0.189766
O21   O     O_3   0.604424 0.659716 0.857079 -0.613855
C35   C     C_3   0.690776 0.639064 0.889261 -0.222120
H27   H     H_    0.730302 0.685733 0.811482 0.203315
H28   H     H_    0.707778 0.537263 0.887152 0.177205
H29   H     H_    0.707227 0.682006 0.989259 0.177695
O22   O     O_3   0.395582 0.340326 0.143084 -0.613608
C36   C     C_3   0.309261 0.359639 0.109655 -0.223187
H30   H     H_    0.293386 0.314667 0.010425 0.177470
H31   H     H_    0.291796 0.461295 0.109397 0.177329
H32   H     H_    0.269643 0.314047 0.188079 0.203617

loop_
_geom_bond_atom_site_label_1
_geom_bond_atom_site_label_2
_geom_bond_distance
_ccdc_geom_bond_type
C26   N2    1.368713 A    
O21   C35   1.411457 S    
C36   H30   1.110952 S    
C17   C19   1.383430 A    
C8    C11   1.536693 S    
O9    C27   1.409113 S    
C28   H7    1.108928 S    
O2    C2    1.280362 A    
O19   C33   1.410458 S    
O5    C3    1.282626 A    
C3    C9    1.394146 S    
C7    C13   1.547429 S    
C8    C14   1.547428 S    
C14   C16   1.426130 S    
C33   H22   1.113439 S    
C30   H13   1.108999 S    
C26   O22   1.384359 S    
O12   C30   1.409276 S    
C32   H18   1.114085 S    
O4    Zn1   1.989392 S    
N3    O14   1.300292 A    
C11   N4    1.458182 S    
C24   N1    1.364243 A    
C28   H6    1.111695 S    
C31   H15   1.109318 S    
O6    Zn2   1.974475 S    
C5    O11   1.412300 S    
C24   H2    1.081274 S    
C29   H11   1.109125 S    
C1    C22   1.408173 S    
C2    C21   1.408175 S    
C36   H31   1.115074 S    
C32   H19   1.109320 S    
C18   O18   1.385885 S    
C27   H4    1.111696 S    
O2    Zn2   1.981747 S    
C8    O10   1.412167 S    
C29   H10   1.110863 S    
C28   H8    1.109135 S    
C25   N1    1.368738 A    
C23   N2    1.364197 A    
O11   C29   1.409275 S    
O4    C2    1.276562 A    
C33   H21   1.109571 S    
C30   H14   1.109124 S    
C23   C25   1.425675 A    
O17   C31   1.411983 S    
C27   H5    1.109135 S    
N4    O16   1.300292 A    
C20   O20   1.385083 S    
O7    Zn2   1.976536 S    
C6    O12   1.412300 S    
C34   H24   1.113439 S    
C35   H29   1.110727 S    
C5    C11   1.536467 S    
O6    C4    1.282631 A    
C4    C10   1.394143 S    
O7    C3    1.282954 A    
O3    Zn2   1.989392 S    
O8    C4    1.282949 A    
C31   H16   1.114087 S    
C5    C14   1.548069 S    
C34   H25   1.109572 S    
C35   H28   1.114783 S    
C6    C13   1.548068 S    
C11   C13   1.546132 S    
C32   H20   1.110808 S    
O1    C1    1.280359 A    
O1    Zn1   1.981747 S    
C27   H3    1.108928 S    
C29   H9    1.109000 S    
C5    C7    1.545926 S    
O10   C28   1.409113 S    
C6    C12   1.536463 S    
C17   C22   1.401468 A    
C24   C26   1.425967 A    
C25   O21   1.384139 S    
C18   C21   1.401470 A    
O18   C32   1.411984 S    
O3    C1    1.276565 A    
O8    Zn1   1.976535 S    
C36   H32   1.109736 S    
C7    C12   1.536692 S    
N4    O15   1.300493 A    
C18   C20   1.383432 A    
C19   C21   1.400964 A    
C12   N3    1.458182 S    
C20   C22   1.400966 A    
C33   H23   1.112989 S    
C30   H12   1.110862 S    
C10   C16   1.181530 T    
C31   H17   1.110808 S    
O22   C36   1.411631 S    
C23   H1    1.081314 S    
C12   C14   1.546131 S    
C13   C15   1.426133 S    
N3    O13   1.300493 A    
C9    C15   1.181532 T    
C7    O9    1.412167 S    
Zn1   N1    2.008153 S    
C17   O17   1.385884 S    
Zn2   N2    2.008153 S    
O5    Zn1   1.974479 S    
C34   H26   1.112988 S    
C19   O19   1.385082 S    
C35   H27   1.109666 S    
C6    C8    1.545926 S    
O20   C34   1.410455 S    
