data_mof_unit_25305.cif
_audit_creation_date              2013-03-05T15:44:47-0500
_audit_creation_method            fapswitch 2.2
_symmetry_space_group_name_H-M    P1
_symmetry_Int_Tables_number       1
_space_group_crystal_system       triclinic
_cell_length_a                    12.940115
_cell_length_b                    13.052325
_cell_length_c                    15.397125
_cell_angle_alpha                 116.513715
_cell_angle_beta                  64.022333
_cell_angle_gamma                 96.893763
_cell_volume                      2082.69607814

loop_
_atom_site_label
_atom_site_type_symbol
_atom_site_description
_atom_site_fract_x
_atom_site_fract_y
_atom_site_fract_z
_atom_type_partial_charge
C1    C     C_R   0.027529 0.833546 0.025763 -0.193592
H1    H     H_    0.073082 0.896544 0.065984 0.118960
N1    N     N_R   0.037310 0.720000 0.995790 -0.052009
C2    C     C_R   0.696925 0.412540 0.211501 -0.123605
H2    H     H_    0.636372 0.359295 0.184325 0.126232
N2    N     N_R   0.790790 0.446160 0.152010 -0.045226
C3    C     C_R   0.738693 0.584453 0.955117 -0.120071
H3    H     H_    0.745604 0.639841 0.918725 0.166270
N3    N     N_R   0.824890 0.517960 0.936420 -0.047798
C4    C     C_R   0.947766 0.720245 0.314896 -0.075996
H4    H     H_    0.906263 0.696735 0.380529 0.132759
N4    N     N_R   0.003210 0.648190 0.211380 -0.055749
C5    C     C_R   0.661441 0.484239 0.050242 -0.068123
H5    H     H_    0.602897 0.445272 0.099533 0.093561
N5    N     N_R   0.774330 0.457010 0.995840 -0.050172
C6    C     C_R   0.032485 0.820180 0.219403 -0.137628
H6    H     H_    0.071687 0.889275 0.200052 0.102124
N6    N     N_R   0.053760 0.709140 0.151960 -0.044713
C7    C     C_R   0.799131 0.496927 0.306367 -0.092540
H7    H     H_    0.831967 0.522728 0.366022 0.111118
N7    N     N_R   0.853860 0.498840 0.211410 -0.044926
C8    C     C_R   0.933633 0.747869 0.924257 0.357434
N8    N     N_R   0.974240 0.667310 0.936390 -0.080100
C9    C     C_R   0.954892 0.855058 0.989466 -0.053195
C10   C     C_R   0.700877 0.444663 0.307634 0.043774
C11   C     C_R   0.636631 0.566888 0.028244 0.120408
C12   C     C_R   0.962789 0.828849 0.320832 0.137644
C13   C     C_R   0.323248 0.578597 0.010636 -0.107920
H8    H     H_    0.369443 0.641385 0.983953 0.095994
N9    N     N_R   0.225670 0.542990 0.004160 -0.045688
C14   C     C_R   0.908190 0.197483 0.791089 -0.088919
H9    H     H_    0.858501 0.136881 0.819399 0.165463
N10   N     N_R   0.946240 0.290860 0.848040 -0.062501
C15   C     C_R   0.219438 0.449175 0.685347 0.343979
N11   N     N_R   0.146140 0.501160 0.788590 -0.085589
C16   C     C_R   0.098337 0.251500 0.044068 -0.123163
H10   H     H_    0.159252 0.267038 0.078103 0.119646
N12   N     N_R   0.025760 0.332690 0.063610 -0.050184
C17   C     C_R   0.000063 0.167635 0.947045 -0.073408
H11   H     H_    0.970667 0.104769 0.890128 0.145938
N13   N     N_R   0.962690 0.280000 0.004210 -0.047966
C18   C     C_R   0.321335 0.531923 0.781534 -0.164486
H12   H     H_    0.390488 0.568190 0.804017 0.139507
N14   N     N_R   0.209210 0.553840 0.847990 -0.061103
C19   C     C_R   0.244542 0.480459 0.107065 -0.138944
H13   H     H_    0.221878 0.451934 0.168687 0.110220
N15   N     N_R   0.175110 0.482040 0.063580 -0.047401
C20   C     C_R   0.984020 0.299414 0.698403 -0.101494
H14   H     H_    0.997689 0.334230 0.643108 0.186363
N16   N     N_R   0.996790 0.351810 0.788620 -0.060404
Ni1   Ni    Ni4+2 0.130310 0.630310 0.999970 0.222051
Ni2   Ni    Ni4+2 0.869690 0.369690 0.000030 0.250829
Ni3   Ni    Ni4+2 0.985640 0.509470 0.863740 0.295855
Ni4   Ni    Ni4+2 0.014360 0.490530 0.136260 0.220746
C21   C     C_R   0.336934 0.541605 0.075859 0.152264
C22   C     C_R   0.931142 0.202418 0.697578 0.094241
C23   C     C_R   0.329611 0.466157 0.679067 -0.109188
C24   C     C_R   0.086167 0.145871 0.969524 0.076280
C25   C     C_R   0.039984 0.989495 0.418656 -0.195672
H15   H     H_    0.123469 0.962620 0.349284 0.153789
C26   C     C_R   0.032157 0.079809 0.511429 -0.160317
H16   H     H_    0.109419 0.122253 0.512207 0.181153
C27   C     C_R   0.927733 0.112036 0.603559 -0.045480
C28   C     C_R   0.827864 0.056509 0.603430 0.290319
C29   C     C_R   0.835880 0.963468 0.507960 0.275332
C30   C     C_R   0.943404 0.930353 0.417029 -0.045714
C31   C     C_R   0.622743 0.391877 0.456138 -0.152331
H17   H     H_    0.704171 0.345403 0.426802 0.135196
C32   C     C_R   0.530587 0.399084 0.549833 -0.128873
H18   H     H_    0.538904 0.356975 0.593527 0.145818
C33   C     C_R   0.427287 0.460189 0.585540 0.157112
C34   C     C_R   0.415721 0.517522 0.532021 -0.060632
H19   H     H_    0.336930 0.569135 0.562826 0.155937
C35   C     C_R   0.505594 0.507522 0.437778 -0.138344
H20   H     H_    0.496678 0.551334 0.395550 0.136351
C36   C     C_R   0.607930 0.444406 0.400278 0.124469
C37   C     C_2   0.430179 0.564836 0.107822 -0.185290
H21   H     H_    0.432860 0.521450 0.152696 0.134813
C38   C     C_2   0.522328 0.610388 0.058636 -0.155348
H22   H     H_    0.518099 0.658446 0.018106 0.141023
C39   C     C_2   0.889883 0.967130 0.033750 0.318440
C40   C     C_2   0.891633 0.058877 0.119614 -0.144964
H23   H     H_    0.945114 0.059718 0.157865 0.100559
N17   N     N_R   0.188720 0.415568 0.598423 0.202502
O1    O     O_R   0.115655 0.482528 0.605523 -0.391590
O2    O     O_R   0.246723 0.328790 0.506458 -0.419611
Br1   Br    Br    0.682510 0.109734 0.730241 -0.466425
Br2   Br    Br    0.701753 0.884587 0.500757 -0.480318
Br3   Br    Br    0.779087 0.980791 0.987200 -0.499011
Br4   Br    Br    0.918666 0.715077 0.795851 -0.458748

loop_
_geom_bond_atom_site_label_1
_geom_bond_atom_site_label_2
_geom_bond_distance
_ccdc_geom_bond_type
C4    C12   1.374506 A    
N9    Ni1   1.816268 S    
N11   Ni3   1.871057 S    
N1    N8    1.390359 A    
C7    H7    1.081200 S    
C2    C10   1.369816 A    
C3    H3    1.070917 S    
C17   N13   1.343277 A    
C37   H21   1.083654 S    
N10   Ni2   1.892233 S    
C3    C11   1.385506 A    
C35   C36   1.390332 A    
C13   H8    1.079632 S    
C7    N7    1.327051 A    
N17   O2    1.300911 A    
C15   N11   1.325754 A    
C16   C24   1.391544 A    
C25   C30   1.391757 A    
N7    Ni4   1.871059 S    
C21   C37   1.445391 S    
C15   N17   1.428882 S    
C32   C33   1.394925 A    
C1    H1    1.075136 S    
C26   C27   1.392686 A    
C6    H6    1.075703 S    
C15   C23   1.383290 A    
C14   N10   1.332960 A    
C14   C22   1.367118 A    
C28   Br1   1.928237 S    
C39   Br3   1.917488 S    
C6    C12   1.377669 A    
C37   C38   1.337768 D    
C25   H15   1.084696 S    
C5    H5    1.075664 S    
C32   H18   1.083526 S    
C18   N14   1.331046 A    
C18   C23   1.379259 A    
C13   C21   1.371969 A    
N6    Ni1   1.892231 S    
N8    Ni3   1.840717 S    
C19   N15   1.341533 A    
C25   C26   1.356026 A    
N16   Ni3   1.842090 S    
C35   H20   1.084702 S    
C31   H17   1.083561 S    
N9    N15   1.377852 A    
N17   O1    1.300863 A    
N12   N13   1.390359 A    
C34   C35   1.365327 A    
C17   H11   1.077536 S    
N1    Ni1   1.815532 S    
C2    H2    1.081157 S    
N10   N16   1.377836 A    
C19   H13   1.081793 S    
C17   C24   1.394105 A    
C39   C40   1.337384 D    
C27   C28   1.404093 A    
C31   C32   1.382310 A    
C9    C39   1.488207 S    
C14   H9    1.081348 S    
N12   Ni4   1.840716 S    
C8    Br4   1.920828 S    
C22   C27   1.417030 S    
N5    Ni2   1.816267 S    
C23   C33   1.416437 S    
N11   N14   1.390342 A    
C4    N4    1.327210 A    
N15   Ni4   1.869993 S    
N14   Ni1   1.892304 S    
C2    N2    1.327839 A    
C20   H14   1.075581 S    
C40   H23   1.084155 S    
C5    N5    1.322414 A    
C8    C9    1.391606 A    
C5    C11   1.373365 A    
N3    Ni3   1.869994 S    
C18   H12   1.080755 S    
C29   Br2   1.929351 S    
C20   C22   1.362515 A    
C16   H10   1.079677 S    
N13   Ni2   1.815534 S    
C34   H19   1.083643 S    
C11   C38   1.444683 S    
C10   C36   1.407728 S    
N2    Ni2   1.892304 S    
C28   C29   1.396137 A    
C16   N12   1.342468 A    
N3    N5    1.377851 A    
C33   C34   1.395324 A    
C12   C30   1.419264 S    
N2    N7    1.390342 A    
C20   N16   1.323008 A    
C13   N9    1.322236 A    
C26   H16   1.085462 S    
C7    C10   1.365358 A    
C4    H4    1.079663 S    
C38   H22   1.083308 S    
C3    N3    1.344709 A    
C19   C21   1.381037 A    
C1    C9    1.392216 A    
C6    N6    1.325249 A    
C29   C30   1.407294 A    
N4    N6    1.377839 A    
C8    N8    1.345599 A    
C31   C36   1.396087 A    
C1    N1    1.344864 A    
N4    Ni4   1.842090 S    
