data_mof_unit_28787.cif
_audit_creation_date              2012-12-10T18:10:48-0500
_audit_creation_method            fapswitch 2.2
_symmetry_space_group_name_H-M    P1
_symmetry_Int_Tables_number       1
_space_group_crystal_system       triclinic
_cell_length_a                    12.650493
_cell_length_b                    13.055035
_cell_length_c                    15.71359
_cell_angle_alpha                 91.209752
_cell_angle_beta                  102.563317
_cell_angle_gamma                 81.885868
_cell_volume                      2507.52154131

loop_
_atom_site_label
_atom_site_type_symbol
_atom_type_description
_atom_site_fract_x
_atom_site_fract_y
_atom_site_fract_z
_atom_type_partial_charge
C1    C     C_R   0.438700 0.691439 0.493029 0.822376
C2    C     C_3   0.391987 0.466237 0.027991 -0.396784
C3    C     C_3   0.501614 0.493453 0.082902 0.321990
C4    C     C_3   0.596289 0.411472 0.066953 -0.389581
C5    C     C_3   0.599791 0.410243 0.968498 0.042521
C6    C     C_1   0.498725 0.495073 0.173995 -0.113362
C7    C     C_1   0.505352 0.495871 0.826373 -0.140747
C8    C     C_1   0.504014 0.498481 0.750809 -0.194552
C9    C     C_R   0.705583 0.064930 0.635045 0.071645
C10   C     C_R   0.599144 0.199321 0.533333 -0.202608
C11   C     C_R   0.300410 0.839035 0.432343 -0.169962
C12   C     C_R   0.501054 0.500173 0.661390 0.881384
C13   C     C_R   0.272588 0.944456 0.415354 -0.164408
C14   C     C_R   0.346161 0.012002 0.450678 -0.197410
C15   C     C_R   0.447239 0.974897 0.507659 0.125337
C16   C     C_R   0.465483 0.871321 0.535741 0.094266
C17   C     C_R   0.531111 0.036655 0.537194 0.051751
C18   C     C_R   0.622318 0.001265 0.605608 0.079899
C19   C     C_R   0.626382 0.903825 0.643261 -0.222973
C20   C     C_R   0.550337 0.839375 0.607986 -0.220099
C21   C     C_R   0.526771 0.131896 0.498319 -0.347981
C22   C     C_R   0.692631 0.165384 0.598545 0.464402
C23   C     C_R   0.561529 0.308452 0.511913 0.908934
C24   C     C_R   0.398739 0.801800 0.490156 -0.125789
C25   C     C_R   0.097133 0.334215 0.384567 -0.287460
C26   C     C_R   0.805930 0.613075 0.615261 0.031222
C27   C     C_R   0.915319 0.612288 0.653235 -0.275882
C28   C     C_R   0.992772 0.556399 0.613498 -0.137741
C29   C     C_R   0.962796 0.510562 0.531393 0.024762
C30   C     C_R   0.850736 0.501807 0.502170 0.219074
C31   C     C_R   0.041721 0.465974 0.484516 -0.100748
C32   C     C_R   0.015526 0.388325 0.422272 0.170496
C33   C     C_R   0.901589 0.367675 0.395412 -0.597743
C34   C     C_R   0.499117 0.499442 0.338597 0.893216
C35   C     C_R   0.813040 0.434308 0.436459 -0.120634
C36   C     C_R   0.145371 0.500396 0.494130 0.584325
C37   C     C_R   0.201496 0.361625 0.404816 -0.094000
C38   C     C_3   0.392199 0.470784 0.929958 -0.382468
C39   C     C_3   0.523257 0.600392 0.956913 -0.462023
C40   C     C_3   0.519948 0.601191 0.054464 -0.403558
C41   C     C_1   0.497816 0.497040 0.249299 -0.175852
C42   C     C_3   0.505312 0.492325 0.917932 0.332396
H1    H     H_    0.322416 0.521603 0.041701 0.168929
H2    H     H_    0.369719 0.398622 0.896900 0.173026
H3    H     H_    0.379281 0.387532 0.045745 0.167111
H4    H     H_    0.675565 0.430411 0.106130 0.144537
H5    H     H_    0.689196 0.874556 0.698777 0.152013
H6    H     H_    0.463703 0.158097 0.442011 0.169397
H7    H     H_    0.246870 0.786477 0.398308 0.177256
H8    H     H_    0.320687 0.092851 0.434157 0.132241
H9    H     H_    0.196032 0.973457 0.371577 0.142143
H10   H     H_    0.327789 0.533926 0.898429 0.159455
H11   H     H_    0.557815 0.764324 0.638450 0.147051
H12   H     H_    0.265541 0.319285 0.377013 0.152432
H13   H     H_    0.901191 0.297930 0.340175 0.172585
H14   H     H_    0.080589 0.271686 0.339415 0.148278
H15   H     H_    0.744051 0.651049 0.647567 0.125106
H16   H     H_    0.073962 0.539983 0.652057 0.125210
H17   H     H_    0.939714 0.648884 0.715525 0.142528
H18   H     H_    0.843553 0.388742 0.405529 0.270738
H19   H     H_    0.603445 0.620213 0.949177 0.168453
H20   H     H_    0.458893 0.661322 0.921764 0.179404
H21   H     H_    0.452830 0.661198 0.065925 0.176688
H22   H     H_    0.598152 0.622286 0.093747 0.174901
H23   H     H_    0.677177 0.439632 0.964381 0.105956
H24   H     H_    0.586170 0.335248 0.091322 0.184726
N1    N     N_R   0.222200 0.444690 0.455710 -0.131074
N2    N     N_R   0.776960 0.554780 0.543830 -0.113767
O1    O     O_R   0.366740 0.627160 0.478850 -0.583031
O2    O     O_R   0.544830 0.662520 0.507140 -0.609438
O3    O     O_R   0.410920 0.482310 0.608710 -0.631822
O4    O     O_R   0.589010 0.517670 0.637000 -0.611745
O5    O     O_R   0.455170 0.337480 0.492860 -0.626528
O6    O     O_R   0.633260 0.372840 0.521150 -0.569279
O7    O     O_R   0.410990 0.482330 0.363000 -0.613081
O8    O     O_R   0.589080 0.517690 0.391290 -0.600247
Zn1   Zn    Zn3+2 0.381090 0.476390 0.481110 0.954279
Zn2   Zn    Zn3+2 0.618910 0.523610 0.518890 0.967201
O9    O     O_3   0.764506 0.233918 0.633026 -0.611548
C43   C     C_3   0.846219 0.228474 0.583944 -0.263742
H25   H     H_    0.811515 0.234284 0.512442 0.165362
H26   H     H_    0.904723 0.156257 0.599157 0.155063
H27   H     H_    0.892996 0.294299 0.602259 0.193762
C44   C     C_3   0.805678 0.028938 0.706552 -0.394273
C45   C     C_3   0.886207 0.947269 0.673489 -0.884117
H28   H     H_    0.849681 0.875966 0.652852 0.264802
H29   H     H_    0.912294 0.977789 0.617147 0.259512
H30   H     H_    0.959738 0.926201 0.726378 0.244675
H31   H     H_    0.850332 0.094133 0.732530 0.245521
H32   H     H_    0.780662 0.998616 0.763525 0.186983
O10   O     O_3   0.154155 0.603868 0.513756 -0.602052
C46   C     C_3   0.213234 0.617959 0.599608 -0.225618
H33   H     H_    0.285112 0.656662 0.599023 0.190400
H34   H     H_    0.239250 0.545974 0.639770 0.132124
H35   H     H_    0.161738 0.673633 0.633199 0.148309
C47   C     C_3   0.611320 0.299870 0.927789 -0.376939
C48   C     C_3   0.545116 0.221055 0.954694 -0.875966
H36   H     H_    0.587009 0.185594 0.018942 0.243714
H37   H     H_    0.461255 0.255278 0.957875 0.258468
H38   H     H_    0.539534 0.157474 0.906529 0.246245
H39   H     H_    0.591771 0.305706 0.855580 0.216636
H40   H     H_    0.698887 0.265484 0.945896 0.195418

loop_
_geom_bond_atom_site_label_1
_geom_bond_atom_site_label_2
_ccdc_geom_bond_type
C33   H13   S    
C5    C42   S    
C47   H40   S    
O2    Zn2   S    
O1    Zn1   S    
C19   C20   A    
N1    Zn1   S    
C25   H14   S    
C3    C6    S    
C5    C47   S    
C48   H36   S    
C36   N1    A    
C7    C8    T    
C4    H4    S    
C45   H28   S    
C10   C22   A    
C26   C27   A    
C40   H21   S    
C30   C35   A    
C28   C29   A    
O8    Zn2   S    
C22   O9    S    
C38   C42   S    
C19   H5    S    
C9    C22   A    
C38   H10   S    
C15   C16   A    
C11   C24   A    
C18   C19   A    
C7    C42   S    
O4    Zn2   S    
C25   C37   A    
C13   H9    S    
C6    C41   T    
C8    C12   S    
C34   O7    A    
C21   H6    S    
C25   C32   A    
C12   O4    A    
C2    H3    S    
C47   H39   S    
C34   C41   S    
C44   H32   S    
C23   O5    A    
C43   H27   S    
C48   H37   S    
C39   C42   S    
C45   H29   S    
C10   C21   A    
N2    Zn2   S    
C39   H19   S    
C44   C45   S    
C43   H26   S    
O10   C46   S    
C20   H11   S    
C46   H35   S    
C1    O1    A    
C35   H18   S    
C38   H2    S    
C29   C30   A    
C11   H7    S    
C2    C38   S    
C31   C32   A    
C2    H1    S    
C16   C20   A    
C47   C48   S    
C46   H34   S    
C17   C18   A    
O7    Zn1   S    
C37   H12   S    
C36   O10   S    
C5    H23   S    
C12   O3    A    
C3    C40   S    
C44   H31   S    
C23   O6    A    
C3    C4    S    
O3    Zn1   S    
C48   H38   S    
C45   H30   S    
C15   C17   A    
C39   H20   S    
C14   C15   A    
C43   H25   S    
C28   H16   S    
C10   C23   S    
C1    O2    A    
C40   H22   S    
C26   N2    A    
C32   C33   A    
C2    C3    S    
C29   C31   A    
C27   H17   S    
C4    H24   S    
C11   C13   A    
C14   H8    S    
C37   N1    A    
C46   H33   S    
C33   C35   A    
C26   H15   S    
C17   C21   A    
C9    C44   S    
O9    C43   S    
C39   C40   S    
C9    C18   A    
C4    C5    S    
C1    C24   S    
C16   C24   A    
O6    Zn2   S    
C27   C28   A    
O5    Zn1   S    
C31   C36   A    
C13   C14   A    
C30   N2    A    
C34   O8    A    
