data_mof_unit_43246.cif
_audit_creation_date              2012-12-10T16:37:26-0500
_audit_creation_method            fapswitch 2.2
_symmetry_space_group_name_H-M    P1
_symmetry_Int_Tables_number       1
_space_group_crystal_system       triclinic
_cell_length_a                    16.862222
_cell_length_b                    16.85742
_cell_length_c                    16.863658
_cell_angle_alpha                 66.515794
_cell_angle_beta                  66.498355
_cell_angle_gamma                 66.528919
_cell_volume                      3865.07614358

loop_
_atom_site_label
_atom_site_type_symbol
_atom_type_description
_atom_site_fract_x
_atom_site_fract_y
_atom_site_fract_z
_atom_type_partial_charge
C1    C     C_R   0.453768 0.908237 0.709977 -0.210954
C2    C     C_R   0.391540 0.650925 0.099722 -0.212393
C3    C     C_R   0.986295 0.575927 0.336980 -0.225030
C4    C     C_R   0.099985 0.391508 0.650846 -0.204183
C5    C     C_R   0.004961 0.163035 0.425286 0.967915
C6    C     C_R   0.031727 0.821395 0.564156 0.942407
C7    C     C_R   0.162987 0.425266 0.004976 0.943392
C8    C     C_R   0.821399 0.564266 0.031464 0.966755
C9    C     C_R   0.435689 0.968643 0.178584 0.944575
C10   C     C_R   0.574750 0.994859 0.837135 0.964488
C11   C     C_R   0.563351 0.821206 0.033964 0.897906
C12   C     C_R   0.598740 0.939053 0.341305 -0.220149
C13   C     C_R   0.432167 0.178163 0.974923 0.963382
C14   C     C_R   0.033946 0.563373 0.821203 0.981083
C15   C     C_R   0.974954 0.432161 0.178192 0.881782
C16   C     C_R   0.821879 0.024957 0.567914 0.963156
C17   C     C_R   0.178795 0.966101 0.436601 0.898123
C18   C     C_R   0.499403 0.921845 0.754392 -0.138113
C19   C     C_R   0.554202 0.927027 0.294989 -0.158161
C20   C     C_R   0.075733 0.704640 0.445282 -0.158278
C21   C     C_R   0.078604 0.245552 0.500366 -0.139440
C22   C     C_R   0.704820 0.445680 0.073732 -0.154609
C23   C     C_R   0.064632 0.658172 0.400196 -0.223320
C24   C     C_R   0.245405 0.500069 0.078974 -0.144314
C25   C     C_R   0.299453 0.903688 0.556914 -0.166756
C26   C     C_R   0.700271 0.039350 0.468380 -0.151932
C27   C     C_R   0.531646 0.299573 0.961311 -0.151069
C28   C     C_R   0.442952 0.700414 0.096768 -0.168619
C29   C     C_R   0.963610 0.531830 0.298413 -0.165450
C30   C     C_R   0.096950 0.442884 0.700390 -0.155972
C31   C     C_R   0.558942 0.959612 0.566520 0.037223
C32   C     C_R   0.469394 0.933286 0.472756 0.039076
C33   C     C_R   0.069048 0.526903 0.529786 0.038806
C34   C     C_R   0.092790 0.289831 0.545744 -0.208663
C35   C     C_R   0.042760 0.433299 0.439971 0.038868
C36   C     C_R   0.527014 0.530298 0.067648 0.039176
C37   C     C_R   0.433288 0.440658 0.041341 0.036645
C38   C     C_R   0.593266 0.973685 0.472339 0.044037
C39   C     C_R   0.432485 0.920880 0.566870 0.043316
C40   C     C_R   0.080965 0.432844 0.566783 0.041736
C41   C     C_R   0.029669 0.527380 0.405268 0.045900
C42   C     C_R   0.432878 0.567102 0.080153 0.044285
C43   C     C_R   0.527455 0.406343 0.027382 0.042940
C44   C     C_R   0.554328 0.949771 0.428142 0.045796
C45   C     C_R   0.658425 0.400968 0.062033 -0.218009
C46   C     C_R   0.480893 0.928609 0.615195 0.041557
C47   C     C_R   0.384546 0.518590 0.072512 0.041995
C48   C     C_R   0.571597 0.445308 0.051329 0.044936
C49   C     C_R   0.073225 0.384573 0.518288 0.041870
C50   C     C_R   0.053523 0.571426 0.444457 0.046838
C51   C     C_R   0.572433 0.959147 0.706230 0.017207
C52   C     C_R   0.460360 0.937342 0.329144 0.015348
C53   C     C_R   0.064398 0.670593 0.539282 0.017098
C54   C     C_R   0.041458 0.293831 0.427282 0.014063
C55   C     C_R   0.670724 0.539574 0.063143 0.014026
C56   C     C_R   0.289739 0.545547 0.092993 -0.211220
C57   C     C_R   0.293697 0.427333 0.041258 0.017021
C58   C     C_R   0.330638 0.928117 0.461801 0.010584
C59   C     C_R   0.678959 0.010868 0.563258 0.014193
C60   C     C_R   0.436779 0.320944 0.989494 0.012887
C61   C     C_R   0.538092 0.669287 0.072233 0.012124
C62   C     C_R   0.990868 0.436895 0.320255 0.013733
C63   C     C_R   0.072742 0.538013 0.669150 0.010108
C64   C     C_R   0.617758 0.977186 0.749597 -0.208815
C65   C     C_R   0.403643 0.957026 0.275143 -0.225311
C66   C     C_R   0.043850 0.724749 0.596154 -0.225052
C67   C     C_R   0.348743 0.901127 0.608248 -0.210252
C68   C     C_R   0.022666 0.250638 0.382313 -0.207710
C69   C     C_R   0.724817 0.596343 0.043194 -0.230017
C70   C     C_R   0.250501 0.382251 0.022649 -0.212144
C71   C     C_R   0.275574 0.953232 0.404308 -0.214706
C72   C     C_R   0.731737 0.012014 0.611678 -0.247775
C73   C     C_R   0.388478 0.268345 0.987818 -0.246075
C74   C     C_R   0.595635 0.724427 0.046922 -0.215260
C75   C     C_R   0.988451 0.388519 0.268106 -0.230093
C76   C     C_R   0.047221 0.595577 0.724327 -0.236344
C77   C     C_R   0.704058 0.984673 0.705917 0.333653
C78   C     C_R   0.661247 0.017570 0.423994 -0.213762
C79   C     C_R   0.311361 0.980850 0.311843 0.292278
C80   C     C_R   0.019924 0.688078 0.688471 0.295292
C81   C     C_R   0.015007 0.294321 0.296129 0.320736
C82   C     C_R   0.688155 0.688668 0.019525 0.293899
C83   C     C_R   0.294297 0.296125 0.014704 0.328681
C84   C     C_R   0.603680 0.976006 0.612029 0.082147
C85   C     C_R   0.420259 0.932472 0.421485 0.081519
C86   C     C_R   0.069211 0.578245 0.579275 0.085648
C87   C     C_R   0.025640 0.387969 0.395546 0.078474
C88   C     C_R   0.578359 0.579599 0.068125 0.082902
C89   C     C_R   0.575900 0.338445 0.983431 -0.211948
C90   C     C_R   0.387887 0.396074 0.024576 0.082033
Cl1   Cl    Cl    0.778170 0.947583 0.773512 -0.442875
Cl2   Cl    Cl    0.242086 0.065843 0.243417 -0.474569
Cl3   Cl    Cl    0.936093 0.756940 0.758004 -0.443205
Cl4   Cl    Cl    0.051028 0.226634 0.222459 -0.459383
Cl5   Cl    Cl    0.757081 0.758347 0.935935 -0.458804
Cl6   Cl    Cl    0.226956 0.222094 0.050661 -0.446551
H1    H     H_    0.398620 0.879492 0.752035 0.139920
H2    H     H_    0.319690 0.681857 0.114227 0.138007
H3    H     H_    0.965201 0.648920 0.315717 0.146105
H4    H     H_    0.114127 0.319686 0.681937 0.142438
H5    H     H_    0.478349 0.899792 0.827332 0.169038
H6    H     H_    0.595290 0.912054 0.232086 0.179070
H7    H     H_    0.090764 0.767623 0.404571 0.177810
H8    H     H_    0.100029 0.172601 0.521738 0.169310
H9    H     H_    0.767747 0.404700 0.088655 0.181438
H10   H     H_    0.172454 0.521014 0.100947 0.168299
H11   H     H_    0.236652 0.886737 0.593620 0.175919
H12   H     H_    0.669046 0.937200 0.309430 0.143677
H13   H     H_    0.746469 0.079440 0.426447 0.175061
H14   H     H_    0.573676 0.253485 0.921140 0.176593
H15   H     H_    0.406286 0.763309 0.113535 0.174556
H16   H     H_    0.923547 0.574147 0.252353 0.177204
H17   H     H_    0.113316 0.406186 0.763451 0.178657
H18   H     H_    0.067262 0.689933 0.329708 0.139275
H19   H     H_    0.121238 0.247692 0.601043 0.140398
H20   H     H_    0.690260 0.330620 0.064045 0.144880
H21   H     H_    0.247650 0.600474 0.122055 0.137192
H22   H     H_    0.317712 0.886714 0.680077 0.141027
H23   H     H_    0.682138 0.039417 0.351026 0.145402
H24   H     H_    0.648868 0.317551 0.961725 0.147927
O1    O     O_R   0.982940 0.138950 0.510160 -0.655295
O2    O     O_R   0.982940 0.510160 0.138950 -0.683490
O3    O     O_R   0.861050 0.017060 0.489840 -0.648058
O4    O     O_R   0.138950 0.982940 0.510160 -0.682847
O5    O     O_R   0.867700 0.025880 0.612340 -0.545869
O6    O     O_R   0.132300 0.974120 0.387660 -0.577031
O7    O     O_R   0.025880 0.612340 0.867700 -0.552221
O8    O     O_R   0.974120 0.387660 0.132300 -0.569236
O9    O     O_R   0.612340 0.867700 0.025880 -0.577955
O10   O     O_R   0.387660 0.132300 0.974120 -0.544087
O11   O     O_R   0.387660 0.974120 0.132300 -0.566239
O12   O     O_R   0.017060 0.861050 0.489840 -0.660811
O13   O     O_R   0.612340 0.025880 0.867700 -0.566494
O14   O     O_R   0.132300 0.387660 0.974120 -0.571227
O15   O     O_R   0.867700 0.612340 0.025880 -0.561256
O16   O     O_R   0.974120 0.132300 0.387660 -0.564569
O17   O     O_R   0.025880 0.867700 0.612340 -0.567267
O18   O     O_R   0.138950 0.510160 0.982940 -0.660366
O19   O     O_R   0.861050 0.489840 0.017060 -0.655663
O20   O     O_R   0.510160 0.982940 0.138950 -0.661954
O21   O     O_R   0.489840 0.017060 0.861050 -0.655284
O22   O     O_R   0.489840 0.861050 0.017060 -0.682661
O23   O     O_R   0.510160 0.138950 0.982940 -0.648311
O24   O     O_R   0.017060 0.489840 0.861050 -0.646766
Zn1   Zn    Zn3+2 0.004880 0.004880 0.583590 1.024785
Zn2   Zn    Zn3+2 0.995120 0.995120 0.416410 1.024756
Zn3   Zn    Zn3+2 0.004880 0.583590 0.004880 1.015169
Zn4   Zn    Zn3+2 0.995120 0.416410 0.995120 1.034293
Zn5   Zn    Zn3+2 0.583590 0.004880 0.004880 1.023789
Zn6   Zn    Zn3+2 0.416410 0.995120 0.995120 1.024623

loop_
_geom_bond_atom_site_label_1
_geom_bond_atom_site_label_2
_ccdc_geom_bond_type
C5    O16   A    
C15   C75   S    
C65   C79   A    
C15   O2    A    
C64   C77   A    
C29   H16   S    
C36   C42   A    
C16   C72   S    
C10   O13   A    
O24   Zn4   S    
C7    C70   S    
C71   C79   A    
O6    Zn2   S    
C20   H7    S    
C36   C88   A    
O9    Zn5   S    
C1    C18   A    
C26   C78   A    
C37   C90   A    
C8    O19   A    
C68   C81   A    
O17   Zn1   S    
C52   C85   A    
C16   O3    A    
C27   C60   A    
C54   C87   A    
C19   H6    S    
C17   O6    A    
C54   C68   A    
C63   C76   A    
C83   Cl6   S    
C40   C49   A    
C5    O1    A    
C60   C73   A    
O4    Zn1   S    
C56   H21   S    
C32   C39   A    
C55   C88   A    
C3    C29   A    
C69   C82   A    
C21   H8    S    
C35   C87   A    
C19   C52   A    
C3    C41   A    
O10   Zn6   S    
C4    C40   A    
C27   H14   S    
C24   C57   A    
C31   C46   A    
C25   C67   A    
C35   C49   A    
C13   O10   A    
C20   C23   A    
C36   C48   A    
C53   C86   A    
C57   C70   A    
C37   C47   A    
C43   C48   A    
C59   C72   A    
C28   C61   A    
C30   C63   A    
C8    O15   A    
C74   C82   A    
C5    C68   S    
C35   C41   A    
C11   O9    A    
C11   O22   A    
O21   Zn6   S    
C9    O11   A    
C28   H15   S    
C32   C44   A    
C14   O24   A    
O19   Zn4   S    
C33   C40   A    
C57   C90   A    
O13   Zn5   S    
C59   C84   A    
C7    O14   A    
C6    O12   A    
C89   H24   S    
C1    H1    S    
C12   H12   S    
C75   C81   A    
C23   C50   A    
C21   C34   A    
C38   C78   A    
C33   C50   A    
C4    C30   A    
C14   O7    A    
C18   H5    S    
C14   C76   S    
C37   C43   A    
C33   C86   A    
C38   C44   A    
C72   C77   A    
C70   C83   A    
C61   C88   A    
C10   O21   A    
C17   O4    A    
O3    Zn2   S    
O23   Zn5   S    
O18   Zn3   S    
C8    C69   S    
C43   C89   A    
O2    Zn3   S    
C53   C66   A    
C26   H13   S    
C79   Cl2   S    
C55   C69   A    
C39   C46   A    
C16   O5    A    
C13   C73   S    
C17   C71   S    
O15   Zn3   S    
C15   O8    A    
C4    H4    S    
C63   C86   A    
C61   C74   A    
O1    Zn1   S    
C62   C75   A    
C24   H10   S    
C25   C58   A    
C58   C85   A    
C41   C50   A    
C66   C80   A    
C25   H11   S    
C26   C59   A    
C45   C48   A    
C29   C62   A    
C77   Cl1   S    
C34   C49   A    
C82   Cl5   S    
C39   C67   A    
O8    Zn4   S    
C51   C64   A    
C76   C80   A    
C20   C53   A    
C11   C74   S    
C7    O18   A    
C22   C55   A    
C60   C90   A    
C18   C51   A    
C24   C56   A    
C22   H9    S    
O14   Zn4   S    
C62   C87   A    
C10   C64   S    
C31   C38   A    
O12   Zn2   S    
O22   Zn6   S    
C6    O17   A    
C78   H23   S    
C34   H19   S    
C12   C44   A    
O5    Zn1   S    
C23   H18   S    
C81   Cl4   S    
C45   H20   S    
C21   C54   A    
C2    C42   A    
C32   C85   A    
O20   Zn5   S    
C12   C19   A    
C9    O20   A    
C27   C89   A    
C42   C47   A    
C13   O23   A    
C1    C46   A    
C67   H22   S    
C9    C65   S    
C58   C71   A    
C31   C84   A    
C3    H3    S    
C6    C66   S    
C22   C45   A    
C2    H2    S    
O11   Zn6   S    
C2    C28   A    
C80   Cl3   S    
C51   C84   A    
C73   C83   A    
O16   Zn2   S    
C52   C65   A    
O7    Zn3   S    
C47   C56   A    
C30   H17   S    
