data_mof_unit_67896.cif
_audit_creation_date              2013-03-05T15:53:46-0500
_audit_creation_method            fapswitch 2.2
_symmetry_space_group_name_H-M    P1
_symmetry_Int_Tables_number       1
_space_group_crystal_system       triclinic
_cell_length_a                    11.04189
_cell_length_b                    11.028636
_cell_length_c                    10.017028
_cell_angle_alpha                 90.397677
_cell_angle_beta                  96.255679
_cell_angle_gamma                 94.997205
_cell_volume                      1207.80456629

loop_
_atom_site_label
_atom_site_type_symbol
_atom_site_description
_atom_site_fract_x
_atom_site_fract_y
_atom_site_fract_z
_atom_type_partial_charge
O1    O     O_R   0.500000 0.316780 0.614690 -0.631568
O2    O     O_R   0.499990 0.316750 0.385360 -0.628183
C1    C     C_R   0.515792 0.262904 0.502742 0.941565
O3    O     O_R   0.314800 0.499990 0.614670 -0.678439
O4    O     O_R   0.314790 0.499970 0.385330 -0.590401
C2    C     C_R   0.258413 0.504812 0.493900 0.863813
Zn1   Zn    Zn3+2 0.500010 0.500020 0.653130 1.002678
Zn2   Zn    Zn3+2 0.499990 0.499980 0.346870 0.997199
O5    O     O_R   0.500010 0.683250 0.614640 -0.599057
O6    O     O_R   0.500000 0.683220 0.385310 -0.612167
O7    O     O_R   0.685210 0.500030 0.614670 -0.596883
O8    O     O_R   0.685200 0.500010 0.385330 -0.643992
C3    C     C_R   0.504399 0.740936 0.501797 0.863398
C4    C     C_R   0.742832 0.500288 0.502913 0.832256
C5    C     C_3   0.075629 0.417593 0.589839 -0.441447
H1    H     H_    0.132317 0.425539 0.687935 0.148770
H2    H     H_    0.089584 0.323950 0.562319 0.268037
C6    C     C_3   0.941453 0.424168 0.609675 0.124618
C7    C     C_3   0.087913 0.644269 0.521534 -0.212298
C8    C     C_3   0.054340 0.461819 0.341296 -0.118022
C9    C     C_3   0.121606 0.509618 0.483574 -0.158394
C10   C     C_3   0.880697 0.505745 0.496809 -0.183280
C11   C     C_3   0.940947 0.645081 0.502177 -0.038571
C12   C     C_3   0.911551 0.454660 0.352705 -0.210561
H3    H     H_    0.876210 0.518508 0.277714 0.133572
C13   C     C_R   0.612952 0.129164 0.766382 0.258942
C14   C     C_R   0.651775 0.059172 0.875486 -0.187518
H4    H     H_    0.697581 0.099137 0.968669 0.208776
C15   C     C_R   0.671870 0.942082 0.853151 0.124785
C16   C     C_R   0.592213 0.881019 0.752516 0.155684
C17   C     C_R   0.561797 0.942098 0.630566 0.008726
C18   C     C_R   0.571887 0.072542 0.634821 0.052573
C19   C     C_R   0.542959 0.133959 0.509675 -0.113931
C20   C     C_R   0.531828 0.066685 0.387151 0.132486
C21   C     C_R   0.506763 0.941046 0.386329 -0.075105
C22   C     C_R   0.519738 0.876477 0.507538 -0.141525
H5    H     H_    0.650438 0.625991 0.146731 0.176597
C23   C     C_R   0.336535 0.343929 0.129817 -0.076548
H6    H     H_    0.343014 0.340128 0.235619 0.238404
C24   C     C_R   0.251762 0.260995 0.061577 0.066389
C25   C     C_R   0.224222 0.272824 0.925752 -0.091105
C26   C     C_R   0.312739 0.336316 0.852487 -0.139472
C27   C     C_R   0.409540 0.423194 0.919421 0.105843
C28   C     C_R   0.413373 0.425629 0.064445 0.159033
N1    N     N_R   0.498810 0.498800 0.142780 -0.140052
C29   C     C_R   0.581237 0.570629 0.083500 -0.112162
C30   C     C_R   0.583955 0.567213 0.943611 0.230424
N2    N     N_R   0.498760 0.498720 0.857170 -0.126831
C31   C     C_2   0.151184 0.739644 0.435990 0.522510
H7    H     H_    0.220877 0.715346 0.375328 0.085535
O9    O     O_2   0.131977 0.846927 0.441677 -0.387388
I1    I     I_    0.865870 0.751043 0.328660 -0.260186
I2    I     I_    0.562224 0.144728 0.195450 -0.315477
I3    I     I_    0.673560 0.305163 0.841661 -0.253025
I4    I     I_    0.865078 0.938858 0.885236 -0.127273
I5    I     I_    0.434187 0.823246 0.848580 -0.149765
C32   C     C_2   0.466265 0.879750 0.254641 0.550252
H8    H     H_    0.530938 0.871759 0.181537 0.085471
O10   O     O_2   0.360176 0.838811 0.227121 -0.512330
I6    I     I_    0.197971 0.092619 0.153967 -0.071652
C33   C     C_2   0.111216 0.199419 0.864330 0.560811
H9    H     H_    0.033266 0.186863 0.921698 0.119962
O11   O     O_2   0.103971 0.149291 0.754396 -0.474733
C34   C     C_2   0.321289 0.265050 0.731878 0.631038
H10   H     H_    0.285230 0.292206 0.633757 0.101778
O12   O     O_2   0.355619 0.162838 0.742751 -0.518153
I7    I     I_    0.746504 0.639853 0.890375 -0.314551
I8    I     I_    0.860703 0.236016 0.599225 -0.139766
C35   C     C_2   0.938858 0.472454 0.751034 0.444082
H11   H     H_    0.946024 0.568465 0.771097 0.066782
O13   O     O_2   0.948021 0.405583 0.847444 -0.553222
C36   C     C_2   0.141700 0.678477 0.667132 0.463848
H12   H     H_    0.161501 0.611185 0.742006 0.079181
O14   O     O_2   0.162123 0.784644 0.704778 -0.403957
C37   C     C_2   0.892816 0.725807 0.602987 0.454818
H13   H     H_    0.806450 0.701057 0.639243 0.063445
O15   O     O_2   0.939072 0.829419 0.625913 -0.389073
C38   C     C_2   0.085162 0.547466 0.226715 0.324287
H14   H     H_    0.045373 0.632933 0.214235 0.140452
O16   O     O_2   0.153242 0.521972 0.144394 -0.548704
C39   C     C_2   0.091860 0.337997 0.300359 0.616511
H15   H     H_    0.053705 0.299872 0.203098 0.103770
O17   O     O_2   0.165225 0.281963 0.369493 -0.594975
C40   C     C_2   0.833821 0.342085 0.290244 0.433044
H16   H     H_    0.749902 0.355000 0.226934 0.133180
O18   O     O_2   0.863168 0.238376 0.303403 -0.513580

loop_
_geom_bond_atom_site_label_1
_geom_bond_atom_site_label_2
_geom_bond_distance
_ccdc_geom_bond_type
C5    C6    1.523948 S    
C13   C18   1.463318 A    
C24   I6    2.146875 S    
C14   C15   1.350394 A    
C25   C26   1.424234 A    
C21   C22   1.411970 A    
C25   C33   1.496911 S    
C37   H13   1.071141 S    
C39   H15   1.085117 S    
C32   H8    1.085357 S    
N1    C29   1.344331 A    
Zn1   O7    2.121776 S    
C13   C14   1.393315 A    
O4    C2    1.313647 A    
C7    C9    1.614782 S    
C40   O18   1.219818 D    
C17   C22   1.436144 A    
C16   C17   1.421346 A    
O7    C4    1.346483 A    
C38   O16   1.221814 D    
C32   O10   1.219768 D    
C1    C19   1.479288 S    
C6    I8    2.183150 S    
C5    H1    1.104645 S    
C35   O13   1.219993 D    
C20   C21   1.388950 A    
C33   O11   1.220384 D    
O5    C3    1.304351 A    
Zn2   N1    2.042940 S    
C8    C12   1.588355 S    
C31   O9    1.222118 D    
C27   N2    1.432242 A    
C6    C35   1.513444 S    
O1    Zn1   2.054605 S    
C8    C39   1.527234 S    
C7    C36   1.544897 S    
C33   H9    1.085530 S    
O3    Zn1   2.039338 S    
C13   I3    2.104164 S    
C30   I7    2.027714 S    
C39   O17   1.220089 D    
C40   H16   1.085038 S    
C3    C22   1.489670 S    
C36   O14   1.222033 D    
C38   H14   1.076527 S    
C15   I4    2.125986 S    
C2    C9    1.508448 S    
C16   I5    2.134796 S    
O1    C1    1.300912 A    
C34   O12   1.222060 D    
C7    C11   1.614028 S    
C27   C28   1.448703 A    
C23   C28   1.398780 A    
C15   C16   1.391946 A    
C7    C31   1.530918 S    
C30   N2    1.376558 A    
Zn2   O8    2.039340 S    
C19   C20   1.417918 A    
C12   H3    1.097148 S    
C37   O15   1.220035 D    
O3    C2    1.302497 A    
C24   C25   1.371073 A    
O8    C4    1.276136 A    
C10   C12   1.626798 S    
C26   C27   1.471911 A    
C26   C34   1.452889 S    
C28   N1    1.361681 A    
C5    H2    1.095140 S    
C29   C30   1.405180 A    
C6    C10   1.578509 S    
C17   C18   1.433196 A    
O2    Zn2   2.059855 S    
C11   C37   1.510534 S    
C36   H12   1.077658 S    
O6    C3    1.319481 A    
O4    Zn2   2.121775 S    
C8    C38   1.539340 S    
C21   C32   1.484399 S    
Zn1   N2    2.045567 S    
C4    C10   1.526134 S    
O2    C1    1.322375 A    
C12   C40   1.534950 S    
C18   C19   1.447254 A    
C23   C24   1.372142 A    
C11   I1    2.226413 S    
C23   H6    1.055797 S    
C34   H10   1.074182 S    
C35   H11   1.070912 S    
Zn1   O5    2.059855 S    
C5    C9    1.569661 S    
C8    C9    1.597322 S    
C20   I2    2.157307 S    
Zn2   O6    2.054605 S    
C31   H7    1.081121 S    
C14   H4    1.083474 S    
C10   C11   1.618591 S    
H5    C29   1.079681 S    
