data_mof_unit_34999.cif
_audit_creation_date              2013-03-05T15:59:22-0500
_audit_creation_method            fapswitch 2.2
_symmetry_space_group_name_H-M    P1
_symmetry_Int_Tables_number       1
_space_group_crystal_system       triclinic
_cell_length_a                    10.483737
_cell_length_b                    12.709536
_cell_length_c                    13.208263
_cell_angle_alpha                 83.312002
_cell_angle_beta                  92.945851
_cell_angle_gamma                 100.831438
_cell_volume                      1716.01190232

loop_
_atom_site_label
_atom_site_type_symbol
_atom_site_description
_atom_site_fract_x
_atom_site_fract_y
_atom_site_fract_z
_atom_type_partial_charge
O1    O     O_R   0.467970 0.366730 0.627150 -0.605266
O2    O     O_R   0.510820 0.544830 0.662520 -0.643935
C1    C     C_R   0.479678 0.440577 0.690064 0.899561
O3    O     O_R   0.664630 0.410960 0.482340 -0.619914
O4    O     O_R   0.707470 0.589060 0.517710 -0.642081
C2    C     C_R   0.741272 0.499283 0.502034 0.948899
Zn1   Zn    Zn3+2 0.471390 0.381080 0.476380 0.999807
Zn2   Zn    Zn3+2 0.528610 0.618920 0.523620 0.984866
O5    O     O_R   0.489180 0.455170 0.337480 -0.610668
O6    O     O_R   0.532030 0.633270 0.372850 -0.566477
O7    O     O_R   0.292530 0.410940 0.482290 -0.592412
O8    O     O_R   0.335370 0.589040 0.517660 -0.572944
C3    C     C_R   0.517084 0.559723 0.308986 0.918420
C4    C     C_R   0.257982 0.499414 0.500230 0.931782
C5    C     C_3   0.950541 0.436803 0.585318 0.246337
C6    C     C_3   0.057476 0.537116 0.587850 -0.266716
H1    H     H_    0.108419 0.568752 0.656879 0.172476
C7    C     C_3   0.121964 0.496968 0.501688 -0.066811
C8    C     C_3   0.015567 0.396626 0.500935 0.469689
C9    C     C_3   0.940113 0.457404 0.417855 -0.395629
C10   C     C_3   0.047784 0.558702 0.418963 -0.101905
C11   C     C_3   0.981057 0.599173 0.504885 -0.091402
C12   C     C_3   0.875623 0.497839 0.504051 -0.165937
H2    H     H_    0.888415 0.426327 0.348865 0.173497
H3    H     H_    0.085884 0.607467 0.348401 0.217422
H4    H     H_    0.963250 0.682430 0.506040 0.185930
C13   C     C_R   0.458661 0.715945 0.056780 -0.301084
H5    H     H_    0.360576 0.724317 0.866353 0.152928
H6    H     H_    0.446220 0.796275 0.025634 0.161048
C14   C     C_R   0.514714 0.593626 0.199132 -0.197157
C15   C     C_R   0.480374 0.300235 0.833855 -0.184826
C16   C     C_R   0.469988 0.264321 0.936335 -0.197331
C17   C     C_R   0.447844 0.333504 0.005385 0.326734
C18   C     C_R   0.441802 0.443153 0.970785 -0.004717
C19   C     C_R   0.426726 0.471930 0.865214 0.033127
C20   C     C_R   0.456766 0.526854 0.035247 0.114528
C21   C     C_R   0.432109 0.630294 0.996295 0.096378
C22   C     C_R   0.386774 0.647814 0.896027 -0.200181
C23   C     C_R   0.383126 0.569075 0.831051 -0.154028
C24   C     C_R   0.506096 0.513320 0.134871 -0.274186
C25   C     C_R   0.504888 0.698989 0.157392 0.533941
C26   C     C_R   0.458332 0.403488 0.797348 -0.095889
H7    H     H_    0.539954 0.440605 0.164627 0.211668
H8    H     H_    0.503678 0.246139 0.782851 0.193264
H9    H     H_    0.477262 0.181483 0.961952 0.184733
H10   H     H_    0.347516 0.586014 0.753753 0.168855
C27   C     C_R   0.344993 0.099201 0.328646 -0.151945
H11   H     H_    0.292453 0.253775 0.331598 0.185060
H12   H     H_    0.349599 0.912811 0.273402 0.198052
H13   H     H_    0.280778 0.079492 0.263851 0.172390
N1    N     N_R   0.432930 0.222190 0.444670 -0.124748
C28   C     C_R   0.648210 0.796395 0.636269 0.021764
C29   C     C_R   0.686715 0.900483 0.663129 -0.238146
C30   C     C_R   0.640396 0.985668 0.606580 -0.168657
C31   C     C_R   0.555344 0.967466 0.521639 -0.019914
C32   C     C_R   0.519224 0.859834 0.495626 0.065440
C33   C     C_R   0.497497 0.050325 0.465315 -0.022472
C34   C     C_R   0.421657 0.027704 0.376106 0.053236
C35   C     C_R   0.410719 0.929031 0.340832 -0.236223
C36   C     C_R   0.436135 0.842744 0.407620 0.401542
C37   C     C_R   0.505113 0.153582 0.495499 -0.039864
C38   C     C_R   0.350024 0.196436 0.366380 0.116644
N2    N     N_R   0.566370 0.776980 0.554790 -0.133514
H14   H     H_    0.566199 0.181439 0.558740 0.137617
H15   H     H_    0.685043 0.730489 0.679955 0.145490
H16   H     H_    0.673659 0.064994 0.630037 0.154380
H17   H     H_    0.752679 0.915199 0.727847 0.159782
N3    N     N_R   0.414029 0.286843 0.106164 0.175293
O9    O     O_R   0.476992 0.215567 0.153010 -0.446012
O10   O     O_R   0.310294 0.305335 0.145554 -0.426570
N4    N     N_R   0.897627 0.369510 0.675985 0.199835
O11   O     O_R   0.973746 0.321045 0.738174 -0.367882
O12   O     O_R   0.775230 0.357844 0.695715 -0.436193
N5    N     N_R   0.331944 0.754713 0.407088 0.226420
O13   O     O_R   0.307368 0.706288 0.324824 -0.433288
O14   O     O_R   0.235297 0.757131 0.464362 -0.447530
O15   O     O_3   0.042850 0.291752 0.502624 -0.580781
C39   C     C_3   0.928591 0.220000 0.478022 0.130062
H18   H     H_    0.898275 0.238391 0.396933 0.144822
H19   H     H_    0.847722 0.223806 0.528216 0.156430
C40   C     C_3   0.955133 0.105505 0.492007 -0.784368
H20   H     H_    0.981030 0.082790 0.573163 0.267885
H21   H     H_    0.867116 0.048708 0.469371 0.209381
H22   H     H_    0.036499 0.099296 0.443678 0.253395
O16   O     O_3   0.540672 0.785440 0.213636 -0.589860
C41   C     C_3   0.673275 0.828480 0.196731 0.085281
H23   H     H_    0.687476 0.862314 0.115529 0.145188
H24   H     H_    0.734814 0.765864 0.216576 0.132809
C42   C     C_3   0.719761 0.918946 0.263381 -0.791696
H25   H     H_    0.712423 0.886941 0.345127 0.243456
H26   H     H_    0.822920 0.954610 0.248037 0.213119
H27   H     H_    0.660448 0.983013 0.246518 0.270497

loop_
_geom_bond_atom_site_label_1
_geom_bond_atom_site_label_2
_geom_bond_distance
_ccdc_geom_bond_type
C31   C32   1.426235 A    
C1    C26   1.455203 S    
C15   C26   1.401134 A    
C13   H6    1.084110 S    
C7    C10   1.535128 S    
C16   H9    1.083195 S    
C4    C7    1.421541 S    
C8    C9    1.539345 S    
N1    C37   1.357634 A    
C27   C38   1.376480 A    
C40   H20   1.110646 S    
O15   C39   1.410870 S    
Zn1   O7    1.988870 S    
N5    O14   1.302213 A    
C20   C21   1.419998 A    
C7    C8    1.529004 S    
O4    C2    1.298048 A    
O7    C4    1.294483 A    
C41   H24   1.115907 S    
C5    C6    1.533706 S    
C18   C19   1.408330 A    
C8    O15   1.412324 S    
C19   C26   1.410842 A    
O5    C3    1.319737 A    
C5    C8    1.519602 S    
C24   H7    1.076528 S    
C9    H2    1.110272 S    
C29   C30   1.392056 A    
C6    H1    1.110335 S    
O6    C3    1.313352 A    
C14   C25   1.407774 A    
C42   H26   1.110431 S    
C18   C20   1.419774 A    
C5    C12   1.522901 S    
C35   C36   1.382836 A    
C10   C11   1.547477 S    
N1    C38   1.345894 A    
O3    Zn1   1.988972 S    
C40   H21   1.110631 S    
C27   H13   1.084304 S    
N5    O13   1.301222 A    
C3    C14   1.465033 S    
C20   C24   1.392592 A    
O3    C2    1.296498 A    
C15   H8    1.083582 S    
N4    O12   1.300119 A    
C41   H23   1.114605 S    
N3    O9    1.300533 A    
C34   C35   1.370949 A    
O16   C41   1.413971 S    
C41   C42   1.521695 S    
C32   C36   1.428549 A    
O1    C1    1.309347 A    
C37   H14   1.077912 S    
C19   C23   1.413529 A    
C21   C22   1.391326 A    
C13   C25   1.397742 A    
H11   C38   1.079465 S    
C15   C16   1.380206 A    
C9    C12   1.537332 S    
H5    C22   1.083979 S    
Zn2   O8    1.988974 S    
C17   C18   1.427163 A    
C32   N2    1.388564 A    
C14   C24   1.389081 A    
C42   H27   1.110463 S    
C23   H10   1.080715 S    
C6    C7    1.535115 S    
O8    C4    1.305122 A    
C31   C33   1.428791 A    
C40   H22   1.111009 S    
C25   O16   1.380734 S    
C28   C29   1.390250 A    
Zn1   O5    1.963190 S    
C10   H3    1.105881 S    
C30   C31   1.409743 A    
C6    C11   1.552631 S    
O1    Zn1   1.980035 S    
O2    Zn2   1.963189 S    
C28   N2    1.357424 A    
O4    Zn2   1.988867 S    
C33   C37   1.402422 A    
C30   H16   1.078693 S    
C5    N4    1.457642 S    
H12   C35   1.086628 S    
C16   C17   1.394306 A    
O2    C1    1.316027 A    
Zn1   N1    2.071151 S    
N4    O11   1.300176 A    
C27   C34   1.398109 A    
C39   H18   1.112393 S    
C39   C40   1.520987 S    
C33   C34   1.414177 A    
C22   C23   1.386278 A    
C13   C21   1.402352 A    
C2    C12   1.410916 S    
C36   N5    1.409505 S    
C39   H19   1.114141 S    
C29   H17   1.082503 S    
Zn2   N2    2.058827 S    
C9    C10   1.545450 S    
Zn2   O6    1.980038 S    
C11   H4    1.110445 S    
N3    O10   1.300523 A    
C11   C12   1.532187 S    
C42   H25   1.109805 S    
C28   H15   1.081557 S    
C17   N3    1.426487 S    
