data_mof_unit_33807.cif
_audit_creation_date              2012-10-26T19:45:33-0400
_audit_creation_method            fapswitch 2.2
_symmetry_space_group_name_H-M    P1
_symmetry_Int_Tables_number       1
_space_group_crystal_system       triclinic
_cell_length_a                    10.825075
_cell_length_b                    9.516102
_cell_length_c                    10.760478
_cell_angle_alpha                 90.00037
_cell_angle_beta                  90.141326
_cell_angle_gamma                 89.99951
_cell_volume                      1108.46056005

loop_
_atom_site_label
_atom_site_type_symbol
_atom_type_description
_atom_site_fract_x
_atom_site_fract_y
_atom_site_fract_z
_atom_type_partial_charge
C1    C     C_R   0.262083 0.500002 0.499903 0.570473
C2    C     C_R   0.427412 0.925570 0.418746 0.010906
C3    C     C_R   0.572647 0.925568 0.581317 0.010927
C4    C     C_R   0.572636 0.074432 0.581326 0.010868
C5    C     C_R   0.500017 0.499843 0.260114 0.558456
C6    C     C_R   0.737924 0.500002 0.500096 0.570315
C7    C     C_R   0.500017 0.499843 0.739889 0.558466
C8    C     C_3   0.617554 0.577923 0.073052 -0.130365
C9    C     C_3   0.382530 0.577996 0.072492 -0.131396
C10   C     C_3   0.617428 0.578163 0.927512 -0.131394
C11   C     C_3   0.382400 0.577743 0.926952 -0.130371
C12   C     C_3   0.500256 0.346588 0.928950 -0.241908
C13   C     C_3   0.499973 0.346589 0.071051 -0.241898
C14   C     C_3   0.500020 0.499843 0.122083 0.002891
C15   C     C_3   0.500024 0.499842 0.877920 0.002895
C16   C     C_1   0.732595 0.520770 0.129202 0.207918
C17   C     C_1   0.267486 0.521329 0.128457 0.199788
C18   C     C_1   0.732536 0.521649 0.871555 0.199745
C19   C     C_1   0.267426 0.520405 0.870810 0.207945
C20   C     C_R   0.063884 0.372302 0.499912 -0.101327
C21   C     C_R   0.063883 0.627711 0.499939 -0.114089
C22   C     C_R   0.936134 0.372301 0.500060 -0.101350
C23   C     C_R   0.936130 0.627711 0.500085 -0.114013
C24   C     C_R   0.871771 0.500006 0.500113 0.048444
C25   C     C_R   0.128241 0.500007 0.499885 0.048425
C26   C     C_R   0.427422 0.074432 0.418737 0.010846
Cu1   Cu    Cu3+1 0.500020 0.640660 0.500000 0.945338
Cu2   Cu    Cu3+1 0.500020 0.359340 0.500000 0.956278
H1    H     H_    0.630921 0.869433 0.646323 0.108465
H2    H     H_    0.417861 0.288174 0.894671 0.146161
H3    H     H_    0.111954 0.272467 0.499835 0.129629
H4    H     H_    0.111952 0.727546 0.499884 0.128077
H5    H     H_    0.888070 0.272463 0.500115 0.129655
H6    H     H_    0.888063 0.727548 0.500162 0.128131
H7    H     H_    0.369170 0.130566 0.353713 0.111367
H8    H     H_    0.369139 0.869437 0.353738 0.108454
H9    H     H_    0.630891 0.130566 0.646348 0.111351
H10   H     H_    0.612604 0.689386 0.104163 0.102968
H11   H     H_    0.387738 0.689552 0.103345 0.095177
H12   H     H_    0.612099 0.689710 0.896657 0.095181
H13   H     H_    0.387213 0.689211 0.895836 0.102960
H14   H     H_    0.582442 0.288310 0.105332 0.146162
H15   H     H_    0.417261 0.288533 0.104640 0.137870
H16   H     H_    0.583039 0.288660 0.895359 0.137851
N1    N     N_R   0.500030 0.852070 0.500030 -0.226774
N2    N     N_R   0.500030 0.147930 0.500030 -0.227390
N3    N     N_1   0.822132 0.476309 0.173134 -0.265521
N4    N     N_1   0.177964 0.477241 0.172269 -0.271736
N5    N     N_1   0.822107 0.477679 0.827749 -0.271735
N6    N     N_1   0.177943 0.475799 0.826881 -0.265511
O1    O     O_R   0.319660 0.618740 0.499990 -0.509671
O2    O     O_R   0.319660 0.381260 0.499990 -0.504933
O3    O     O_R   0.499990 0.618790 0.317690 -0.514950
O4    O     O_R   0.499990 0.381210 0.317690 -0.507218
O5    O     O_R   0.680370 0.618830 0.500010 -0.509691
O6    O     O_R   0.680370 0.381170 0.500010 -0.505009
O7    O     O_R   0.500030 0.618780 0.682310 -0.514935
O8    O     O_R   0.500030 0.381220 0.682310 -0.507196

loop_
_geom_bond_atom_site_label_1
_geom_bond_atom_site_label_2
_ccdc_geom_bond_type
C2    C26   A    
C9    C14   S    
Cu1   O3    S    
C20   C25   A    
C6    O6    A    
Cu2   O8    S    
C1    O1    A    
C26   H7    S    
C7    O8    A    
C17   N4    T    
C13   H15   S    
C6    O5    A    
C23   C24   A    
C23   H6    S    
C6    C24   S    
Cu1   N1    S    
C8    C16   S    
C7    C15   S    
C7    O7    A    
Cu2   O6    S    
C12   H16   S    
C4    N2    A    
C13   C14   S    
C12   C13   S    
C1    C25   S    
Cu2   O2    S    
C19   N6    T    
Cu2   N2    S    
C5    C14   S    
C8    H10   S    
C10   C18   S    
C16   N3    T    
C9    C17   S    
C13   H14   S    
C21   H4    S    
Cu1   O1    S    
C11   H13   S    
C12   C15   S    
C22   C24   A    
C10   C15   S    
C9    C11   S    
C21   C23   A    
Cu2   O4    S    
C1    O2    A    
Cu1   O5    S    
C2    N1    A    
C26   N2    A    
C3    C4    A    
C5    O4    A    
C9    H11   S    
C4    H9    S    
C5    O3    A    
C8    C10   S    
Cu1   O7    S    
C2    H8    S    
Cu1   Cu2   S    
C3    H1    S    
C22   H5    S    
C21   C25   A    
C11   C19   S    
C10   H12   S    
C8    C14   S    
C12   H2    S    
C11   C15   S    
C3    N1    A    
C18   N5    T    
C20   C22   A    
C20   H3    S    
