data_mof_unit_68435.cif
_audit_creation_date              2012-12-11T16:06:24-0500
_audit_creation_method            fapswitch 2.2
_symmetry_space_group_name_H-M    P1
_symmetry_Int_Tables_number       1
_space_group_crystal_system       monoclinic
_cell_length_a                    7.194882
_cell_length_b                    14.636654
_cell_length_c                    15.64154
_cell_angle_alpha                 90.0
_cell_angle_beta                  90.000095
_cell_angle_gamma                 90.0
_cell_volume                      1647.19491091

loop_
_atom_site_label
_atom_site_type_symbol
_atom_type_description
_atom_site_fract_x
_atom_site_fract_y
_atom_site_fract_z
_atom_type_partial_charge
O1    O     O_R   0.388780 0.834790 0.412340 -0.541022
O2    O     O_R   0.111220 0.165210 0.912340 -0.541006
O3    O     O_R   0.888780 0.665210 0.587660 -0.541021
O4    O     O_R   0.611220 0.334790 0.087660 -0.541013
O5    O     O_R   0.059040 0.845930 0.587040 -0.549471
O6    O     O_R   0.440960 0.154070 0.087040 -0.549474
O7    O     O_R   0.559040 0.654070 0.412960 -0.549471
O8    O     O_R   0.940960 0.345930 0.912960 -0.549475
C1    C     C_R   0.228052 0.869056 0.614282 0.724782
C2    C     C_R   0.271948 0.130943 0.114281 0.724781
C3    C     C_R   0.728051 0.630944 0.385719 0.724781
C4    C     C_R   0.771948 0.369057 0.885719 0.724786
O9    O     O_R   0.059070 0.845930 0.412970 -0.536574
O10   O     O_R   0.440930 0.154070 0.912970 -0.536571
O11   O     O_R   0.559070 0.654070 0.587030 -0.536574
O12   O     O_R   0.940930 0.345930 0.087030 -0.536573
O13   O     O_R   0.888760 0.665210 0.412340 -0.526338
O14   O     O_R   0.611240 0.334790 0.912340 -0.526337
O15   O     O_R   0.388760 0.834790 0.587660 -0.526338
O16   O     O_R   0.111240 0.165210 0.087660 -0.526335
C5    C     C_R   0.227870 0.866542 0.383536 0.748031
C6    C     C_R   0.272130 0.133458 0.883536 0.748025
C7    C     C_R   0.727870 0.633458 0.616464 0.748032
C8    C     C_R   0.772130 0.366542 0.116464 0.748024
O17   O     O_3   0.222280 0.690700 0.500000 -0.385465
O18   O     O_3   0.277720 0.309300 0.000000 -0.385467
O19   O     O_3   0.722280 0.809300 0.500000 -0.385467
O20   O     O_3   0.777720 0.190700 0.000000 -0.385462
V1    V     V_3+5 0.947430 0.761000 0.500000 1.430594
V2    V     V_3+5 0.552570 0.239000 0.000000 1.430611
V3    V     V_3+5 0.447430 0.739000 0.500000 1.430594
V4    V     V_3+5 0.052570 0.261000 0.000000 1.430613
C9    C     C_3   0.898768 0.587734 0.753324 -0.298694
C10   C     C_3   0.601254 0.412258 0.253331 -0.298697
C11   C     C_3   0.398768 0.912266 0.246676 -0.298694
C12   C     C_3   0.101268 0.087747 0.746664 -0.298700
H1    H     H_    0.034874 0.594567 0.720853 0.147939
H2    H     H_    0.465143 0.405419 0.220865 0.147964
H3    H     H_    0.534874 0.905434 0.279147 0.147937
H4    H     H_    0.965153 0.094590 0.779126 0.147982
H5    H     H_    0.873930 0.655907 0.782463 0.197506
H6    H     H_    0.626113 0.344087 0.282467 0.197505
H7    H     H_    0.373931 0.844094 0.217538 0.197508
H8    H     H_    0.126141 0.155918 0.717528 0.197501
C13   C     C_3   0.912148 0.515073 0.825372 -0.323441
C14   C     C_3   0.587876 0.484918 0.325380 -0.323439
C15   C     C_3   0.412148 0.984927 0.174629 -0.323440
C16   C     C_3   0.087891 0.015088 0.674615 -0.323439
H9    H     H_    0.895769 0.549006 0.888611 0.171342
H10   H     H_    0.604285 0.450986 0.388618 0.171354
H11   H     H_    0.395769 0.950994 0.111389 0.171338
H12   H     H_    0.104317 0.049018 0.611377 0.171357
H13   H     H_    0.053095 0.483853 0.824351 0.150942
H14   H     H_    0.446920 0.516128 0.324368 0.150952
H15   H     H_    0.553095 0.016147 0.175650 0.150945
H16   H     H_    0.946929 0.983883 0.675621 0.150957
H17   H     H_    0.922706 0.356371 0.724551 0.159269
H18   H     H_    0.577243 0.643617 0.224558 0.159262
H19   H     H_    0.422710 0.143628 0.275449 0.159268
H20   H     H_    0.077217 0.856388 0.775437 0.159260
C17   C     C_3   0.766905 0.464984 0.652933 0.279658
C18   C     C_3   0.733062 0.535014 0.152932 0.279675
C19   C     C_3   0.266903 0.035016 0.347067 0.279658
C20   C     C_3   0.233040 0.964987 0.847067 0.279684
C21   C     C_3   0.554973 0.561691 0.742696 0.215140
C22   C     C_3   0.945040 0.438322 0.242686 0.215137
C23   C     C_3   0.054974 0.938308 0.257303 0.215139
C24   C     C_3   0.445048 0.061670 0.757320 0.215137
C25   C     C_3   0.739419 0.564168 0.689108 -0.062299
C26   C     C_3   0.760582 0.435832 0.189107 -0.062294
C27   C     C_3   0.239419 0.935832 0.310892 -0.062302
C28   C     C_3   0.260583 0.064167 0.810893 -0.062290
H21   H     H_    0.436769 0.543049 0.700243 0.073115
H22   H     H_    0.063229 0.456969 0.200227 0.073109
H23   H     H_    0.936769 0.956950 0.299756 0.073117
H24   H     H_    0.563227 0.043019 0.799784 0.073104
C29   C     C_3   0.760747 0.440055 0.814692 -0.013872
C30   C     C_3   0.739252 0.559946 0.314690 -0.013859
C31   C     C_3   0.260748 0.059945 0.185308 -0.013875
C32   C     C_3   0.239253 0.940053 0.685310 -0.013853
C33   C     C_3   0.788257 0.393363 0.726438 -0.384794
C34   C     C_3   0.711704 0.606635 0.226438 -0.384823
C35   C     C_3   0.288258 0.106637 0.273562 -0.384794
C36   C     C_3   0.211683 0.893366 0.773562 -0.384836
C37   C     C_3   0.567826 0.488721 0.814642 -0.336949
C38   C     C_3   0.932187 0.511294 0.314629 -0.336947
C39   C     C_3   0.067827 0.011279 0.185358 -0.336944
C40   C     C_3   0.432196 0.988697 0.685378 -0.336946
H25   H     H_    0.543444 0.520176 0.878419 0.207190
H26   H     H_    0.956599 0.479844 0.378406 0.207172
H27   H     H_    0.043443 0.979825 0.121581 0.207198
H28   H     H_    0.456624 0.020146 0.621602 0.207166
H29   H     H_    0.455119 0.437690 0.804667 0.132222
H30   H     H_    0.044876 0.562333 0.304645 0.132241
H31   H     H_    0.955120 0.062310 0.195334 0.132226
H32   H     H_    0.544875 0.937654 0.695367 0.132245
H33   H     H_    0.631821 0.447877 0.622404 0.075940
H34   H     H_    0.868134 0.552130 0.122398 0.075945
H35   H     H_    0.131818 0.052124 0.377594 0.075943
H36   H     H_    0.368105 0.947866 0.877607 0.075943
H37   H     H_    0.680472 0.339834 0.718347 0.195604
H38   H     H_    0.819469 0.660174 0.218340 0.195606
H39   H     H_    0.180476 0.160167 0.281653 0.195607
H40   H     H_    0.319439 0.839824 0.781664 0.195603
O21   O     O_3   0.895050 0.456067 0.583921 -0.552470
C41   C     C_3   0.085248 0.462728 0.606068 0.094490
H41   H     H_    0.116309 0.454482 0.674910 0.104179
H42   H     H_    0.138258 0.530515 0.585793 0.152570
C42   C     C_3   0.192596 0.389656 0.557637 -0.647382
H43   H     H_    0.173668 0.398717 0.487672 0.238096
H44   H     H_    0.342732 0.394685 0.572801 0.167306
H45   H     H_    0.142159 0.320784 0.576407 0.242673
O22   O     O_3   0.604902 0.543919 0.083924 -0.552473
C43   C     C_3   0.414709 0.537263 0.106080 0.094489
H46   H     H_    0.383665 0.545493 0.174925 0.104180
H47   H     H_    0.361679 0.469484 0.085795 0.152576
C44   C     C_3   0.307367 0.610353 0.057670 -0.647379
H48   H     H_    0.326274 0.601305 0.987702 0.238089
H49   H     H_    0.157231 0.605332 0.072842 0.167321
H50   H     H_    0.357830 0.679218 0.076451 0.242679
O23   O     O_3   0.395045 0.043934 0.416081 -0.552471
C45   C     C_3   0.585243 0.037270 0.393936 0.094483
H51   H     H_    0.616309 0.045518 0.325095 0.104181
H52   H     H_    0.638249 0.969483 0.414211 0.152572
C46   C     C_3   0.692593 0.110340 0.442369 -0.647367
H53   H     H_    0.673652 0.101281 0.512334 0.238099
H54   H     H_    0.842733 0.105307 0.427211 0.167305
H55   H     H_    0.642167 0.179214 0.423595 0.242675
O24   O     O_3   0.104868 0.956090 0.916071 -0.552473
C47   C     C_3   0.914679 0.962741 0.893907 0.094496
H56   H     H_    0.883649 0.954522 0.825060 0.104178
H57   H     H_    0.861633 0.030515 0.914199 0.152581
C48   C     C_3   0.807341 0.889639 0.942302 -0.647405
H58   H     H_    0.826225 0.898677 0.012272 0.238092
H59   H     H_    0.657213 0.894653 0.927121 0.167328
H60   H     H_    0.857825 0.820780 0.923518 0.242679
Cl1   Cl    Cl    0.495960 0.670830 0.787334 -0.749873
Cl2   Cl    Cl    0.004091 0.329189 0.287325 -0.749872
Cl3   Cl    Cl    0.995962 0.829170 0.212665 -0.749866
Cl4   Cl    Cl    0.504124 0.170800 0.712682 -0.749876

loop_
_geom_bond_atom_site_label_1
_geom_bond_atom_site_label_2
_ccdc_geom_bond_type
O17   V3    S    
C40   H32   S    
O1    C5    A    
C39   H27   S    
C21   H21   S    
O19   V1    S    
C9    C13   S    
C7    C25   S    
O3    C7    A    
C10   H6    S    
C15   C31   S    
C32   C36   S    
C11   C15   S    
C31   C39   S    
C43   H46   S    
C8    C26   S    
C33   H37   S    
O7    C3    A    
C35   H39   S    
C5    C27   S    
O9    V1    S    
H19   C35   S    
C22   C38   S    
O22   C43   S    
C44   H49   S    
C11   H3    S    
O4    C8    A    
C21   C25   S    
C41   H41   S    
C22   H22   S    
O1    V3    S    
O13   V1    S    
C18   C26   S    
O2    V4    S    
O3    V1    S    
C20   C36   S    
C19   H35   S    
C38   H30   S    
C42   H44   S    
C18   H34   S    
C37   H29   S    
C1    O15   A    
C40   H28   S    
C2    O16   A    
C39   H31   S    
O2    C6    A    
C46   H55   S    
C10   C14   S    
C13   H9    S    
C11   H7    S    
C10   C26   S    
C12   H8    S    
C9    C25   S    
C21   Cl1   S    
C30   C38   S    
O11   C7    A    
C18   C34   S    
O15   V3    S    
O12   C8    A    
C48   H59   S    
O10   V2    S    
C6    C28   S    
C19   O23   S    
O5    V1    S    
C17   O21   S    
O7    V3    S    
O8    V4    S    
C12   H4    S    
C18   O22   S    
C38   H26   S    
C42   H45   S    
C14   C30   S    
C37   H25   S    
O18   V4    S    
C15   H11   S    
C13   H13   S    
C9    H1    S    
C19   C35   S    
C24   C28   S    
C1    C32   S    
C47   H57   S    
O5    C1    A    
C3    C30   S    
C48   H60   S    
C48   H58   S    
C30   C34   S    
C22   Cl2   S    
C29   C33   S    
O8    C4    A    
C4    C29   S    
C14   H14   S    
C34   H38   S    
O9    C5    A    
C24   H24   S    
O11   V3    S    
O23   C45   S    
O14   V2    S    
O6    V2    S    
C19   C27   S    
C46   H53   S    
C24   C40   S    
H17   C33   S    
C44   H50   S    
C47   C48   S    
C23   H23   S    
C45   H52   S    
C23   Cl3   S    
C15   H15   S    
O24   C47   S    
O16   V4    S    
C17   C25   S    
C16   H16   S    
C3    O13   A    
C10   H2    S    
C17   H33   S    
O6    C2    A    
C43   H47   S    
C2    C31   S    
C21   C37   S    
O12   V4    S    
O21   C41   S    
C14   H10   S    
C23   C39   S    
C9    H5    S    
C16   C32   S    
C45   C46   S    
H18   C34   S    
C47   H56   S    
C20   H36   S    
C32   C40   S    
C17   C33   S    
C42   H43   S    
C31   C35   S    
H20   C36   S    
O10   C6    A    
C22   C26   S    
C41   H42   S    
C29   C37   S    
C36   H40   S    
O20   V2    S    
C12   C16   S    
C23   C27   S    
C20   C28   S    
C43   C44   S    
C24   Cl4   S    
C11   C27   S    
C16   H12   S    
C20   O24   S    
C4    O14   A    
C46   H54   S    
C13   C29   S    
C45   H51   S    
C44   H48   S    
O4    V2    S    
C12   C28   S    
C41   C42   S    
