data_mof_unit_19174.cif
_audit_creation_date              2012-12-11T16:51:33-0500
_audit_creation_method            fapswitch 2.2
_symmetry_space_group_name_H-M    P1
_symmetry_Int_Tables_number       1
_space_group_crystal_system       triclinic
_cell_length_a                    24.32664
_cell_length_b                    17.224804
_cell_length_c                    15.801293
_cell_angle_alpha                 89.999316
_cell_angle_beta                  128.62666
_cell_angle_gamma                 90.000447
_cell_volume                      5172.58942425

loop_
_atom_site_label
_atom_site_type_symbol
_atom_type_description
_atom_site_fract_x
_atom_site_fract_y
_atom_site_fract_z
_atom_type_partial_charge
C1    C     C_R   0.836302 0.882918 0.207494 0.206530
C2    C     C_R   0.163695 0.882913 0.792500 0.206581
C3    C     C_R   0.336298 0.382933 0.207480 0.206613
C4    C     C_R   0.663699 0.382924 0.792511 0.206579
C5    C     C_R   0.908158 0.143480 0.588616 -0.095538
C6    C     C_R   0.091855 0.143466 0.411377 -0.095538
C7    C     C_R   0.408130 0.643437 0.588643 -0.095485
C8    C     C_R   0.591863 0.643444 0.411358 -0.095475
C9    C     C_R   0.860019 0.187734 0.496647 0.101451
C10   C     C_R   0.139999 0.187721 0.503340 0.101401
C11   C     C_R   0.359986 0.687704 0.496700 0.101250
C12   C     C_R   0.640004 0.687712 0.503301 0.101239
C13   C     C_R   0.865664 0.156795 0.168371 0.046184
C14   C     C_R   0.134342 0.156786 0.831638 0.046248
C15   C     C_R   0.365660 0.656778 0.168358 0.046226
C16   C     C_R   0.634337 0.656782 0.831635 0.046189
C17   C     C_R   0.787253 0.821598 0.609644 0.148856
C18   C     C_R   0.212743 0.821608 0.390351 0.148808
C19   C     C_R   0.287367 0.321390 0.609648 0.148984
C20   C     C_R   0.712588 0.321287 0.390356 0.149036
C21   C     C_R   0.765429 0.859382 0.515500 0.000136
C22   C     C_R   0.234570 0.859399 0.484492 0.000133
C23   C     C_R   0.265479 0.359370 0.515586 0.000091
C24   C     C_R   0.734502 0.359353 0.484382 0.000069
C25   C     C_R   0.694090 0.857495 0.423862 -0.241480
C26   C     C_R   0.305908 0.857506 0.576132 -0.241462
C27   C     C_R   0.194115 0.357569 0.424012 -0.241544
C28   C     C_R   0.805877 0.357590 0.575934 -0.241566
C29   C     C_R   0.147216 0.310177 0.423137 0.213799
C30   C     C_R   0.852780 0.310202 0.576809 0.213806
C31   C     C_R   0.647185 0.810122 0.422984 0.213742
C32   C     C_R   0.352807 0.810116 0.577018 0.213745
C33   C     C_R   0.173121 0.261239 0.512307 -0.047458
C34   C     C_R   0.826875 0.261241 0.487657 -0.047533
C35   C     C_R   0.673068 0.761270 0.512219 -0.047315
C36   C     C_R   0.326919 0.761256 0.487786 -0.047340
C37   C     C_R   0.241586 0.272635 0.608038 0.115967
C38   C     C_R   0.758373 0.272560 0.391959 0.116033
C39   C     C_R   0.741462 0.772832 0.608032 0.115829
C40   C     C_R   0.258527 0.772822 0.391970 0.115860
C41   C     C_3   0.760746 0.807435 0.710292 -0.479539
C42   C     C_3   0.239258 0.807415 0.289710 -0.479512
C43   C     C_3   0.261138 0.306969 0.710617 -0.479680
C44   C     C_3   0.738689 0.306793 0.289225 -0.479638
C45   C     C_R   0.111348 0.894838 0.404914 -0.121219
C46   C     C_R   0.888652 0.894833 0.595084 -0.121218
C47   C     C_R   0.611330 0.394853 0.404893 -0.121239
C48   C     C_R   0.388665 0.394849 0.595101 -0.121228
C49   C     C_3   0.810504 0.860246 0.711781 -0.475403
C50   C     C_3   0.189514 0.860251 0.288220 -0.475372
C51   C     C_3   0.310914 0.359765 0.712124 -0.475348
C52   C     C_3   0.688883 0.359544 0.287706 -0.475309
C53   C     C_2   0.182730 0.813874 0.951003 -0.204711
C54   C     C_2   0.817264 0.813884 0.048986 -0.204694
C55   C     C_2   0.682729 0.313896 0.951024 -0.204619
C56   C     C_2   0.317273 0.313903 0.048975 -0.204685
C57   C     C_2   0.250439 0.831546 0.029583 -0.099362
C58   C     C_2   0.749554 0.831553 0.970406 -0.099362
C59   C     C_2   0.750437 0.331568 0.029621 -0.099328
C60   C     C_2   0.249566 0.331565 0.970374 -0.099285
C61   C     C_2   0.837585 0.226603 0.102294 0.236401
C62   C     C_2   0.162417 0.226600 0.897706 0.236411
C63   C     C_2   0.337564 0.726553 0.102223 0.236486
C64   C     C_2   0.662432 0.726557 0.897771 0.236468
C65   C     C_2   0.796297 0.273259 0.109960 -0.184130
C66   C     C_2   0.203716 0.273245 0.890053 -0.184164
C67   C     C_2   0.296310 0.773243 0.109918 -0.184243
C68   C     C_2   0.703684 0.773251 0.890072 -0.184219
C69   C     C_R   0.188468 0.903624 0.582810 -0.122083
C70   C     C_R   0.811532 0.903620 0.417188 -0.122085
C71   C     C_R   0.688466 0.403617 0.582791 -0.122200
C72   C     C_R   0.311534 0.403612 0.417201 -0.122197
C73   C     C_R   0.072126 0.883439 0.793006 -0.180207
C74   C     C_R   0.927871 0.883445 0.206986 -0.180175
C75   C     C_R   0.572127 0.383446 0.793011 -0.180182
C76   C     C_R   0.427872 0.383452 0.206985 -0.180210
C77   C     C_R   0.859034 0.857709 0.150507 0.083973
C78   C     C_R   0.140960 0.857699 0.849481 0.083965
C79   C     C_R   0.359033 0.357726 0.150496 0.083946
C80   C     C_R   0.640964 0.357714 0.849495 0.083943
C81   C     C_R   0.180359 0.883774 0.491201 0.068467
C82   C     C_R   0.819641 0.883765 0.508795 0.068467
C83   C     C_R   0.680340 0.383794 0.491158 0.068527
C84   C     C_R   0.319655 0.383785 0.508828 0.068515
C85   C     C_R   0.838275 0.143411 0.408211 -0.148018
C86   C     C_R   0.161739 0.143406 0.591784 -0.148000
C87   C     C_R   0.338249 0.643407 0.408237 -0.148013
C88   C     C_R   0.661745 0.643411 0.591762 -0.148013
C89   C     C_R   0.931186 0.124660 0.216707 -0.121148
C90   C     C_R   0.068818 0.124654 0.783299 -0.121214
C91   C     C_R   0.431182 0.624648 0.216698 -0.121202
C92   C     C_R   0.568815 0.624650 0.783297 -0.121163
C93   C     C_R   0.162808 0.118618 0.790072 0.170943
C94   C     C_R   0.837194 0.118623 0.209928 0.171024
C95   C     C_R   0.662804 0.618626 0.790066 0.170994
C96   C     C_R   0.337195 0.618623 0.209933 0.170948
H1    H     H_    0.716220 0.838652 0.697989 0.210036
H2    H     H_    0.283797 0.838612 0.302018 0.210021
H3    H     H_    0.216746 0.338239 0.698682 0.209964
H4    H     H_    0.783011 0.338126 0.300997 0.209889
H5    H     H_    0.788463 0.765242 0.778361 0.177358
H6    H     H_    0.211530 0.765220 0.221635 0.177341
H7    H     H_    0.288861 0.264588 0.778473 0.177346
H8    H     H_    0.710978 0.264326 0.221455 0.177315
H9    H     H_    0.795209 0.922516 0.700191 0.204938
H10   H     H_    0.204831 0.922515 0.299820 0.204935
H11   H     H_    0.295778 0.422084 0.700958 0.204889
H12   H     H_    0.703917 0.421899 0.298663 0.204830
H13   H     H_    0.866697 0.848315 0.780322 0.184356
H14   H     H_    0.133320 0.848339 0.219674 0.184360
H15   H     H_    0.367124 0.347609 0.780441 0.184305
H16   H     H_    0.632668 0.347249 0.219495 0.184270
H17   H     H_    0.787472 0.260740 0.167728 0.113526
H18   H     H_    0.212558 0.260710 0.832312 0.113528
H19   H     H_    0.287539 0.760773 0.167756 0.113529
H20   H     H_    0.712449 0.760786 0.832227 0.113522
H21   H     H_    0.273144 0.886072 0.031003 0.145841
H22   H     H_    0.726848 0.886076 0.968983 0.145830
H23   H     H_    0.773147 0.386091 0.031048 0.145842
H24   H     H_    0.226849 0.386087 0.968931 0.145860
H25   H     H_    0.160037 0.761400 0.955960 0.149019
H26   H     H_    0.839957 0.761411 0.044029 0.149033
H27   H     H_    0.660033 0.261423 0.955976 0.149019
H28   H     H_    0.339974 0.261429 0.044036 0.148999
H29   H     H_    0.088684 0.896329 0.320424 0.097652
H30   H     H_    0.911316 0.896321 0.679574 0.097653
H31   H     H_    0.588645 0.396350 0.320397 0.097693
H32   H     H_    0.411342 0.396347 0.679594 0.097679
H33   H     H_    0.238751 0.918310 0.656916 0.109372
H34   H     H_    0.761249 0.918306 0.343082 0.109377
H35   H     H_    0.738763 0.418238 0.656918 0.109473
H36   H     H_    0.261240 0.418241 0.343075 0.109461
H37   H     H_    0.040580 0.880149 0.819524 0.115703
H38   H     H_    0.959416 0.880158 0.180468 0.115698
H39   H     H_    0.540581 0.380158 0.819529 0.115706
H40   H     H_    0.459419 0.380164 0.180470 0.115700
H41   H     H_    0.799257 0.159629 0.325286 0.103446
H42   H     H_    0.200756 0.159631 0.674708 0.103432
H43   H     H_    0.299236 0.659661 0.325321 0.103411
H44   H     H_    0.700756 0.659667 0.674678 0.103405
H45   H     H_    0.963734 0.133174 0.192956 0.150134
H46   H     H_    0.036271 0.133166 0.807052 0.150126
H47   H     H_    0.463727 0.633153 0.192938 0.150207
H48   H     H_    0.536270 0.633155 0.807055 0.150206
H49   H     H_    0.929756 0.157313 0.670288 0.130820
H50   H     H_    0.070257 0.157288 0.329703 0.130813
H51   H     H_    0.429724 0.657228 0.670322 0.130839
H52   H     H_    0.570267 0.657239 0.329678 0.130841
H53   H     H_    0.674891 0.890667 0.352127 0.160556
H54   H     H_    0.325109 0.890684 0.647865 0.160551
H55   H     H_    0.174891 0.390841 0.352334 0.160562
H56   H     H_    0.825109 0.390896 0.647592 0.160571
N1    N     N_R   0.888400 0.921830 0.294620 -0.064452
N2    N     N_R   0.111600 0.921830 0.705380 -0.064464
N3    N     N_R   0.388400 0.421830 0.294620 -0.064474
N4    N     N_R   0.611600 0.421830 0.705380 -0.064469
N5    N     N_R   0.079940 0.922160 0.443410 -0.040363
N6    N     N_R   0.920060 0.922160 0.556590 -0.040362
N7    N     N_R   0.579940 0.422160 0.443410 -0.040363
N8    N     N_R   0.420060 0.422160 0.556590 -0.040363
N9    N     N_R   0.125650 0.922400 0.556620 -0.043710
N10   N     N_R   0.874350 0.922400 0.443380 -0.043707
N11   N     N_R   0.625650 0.422400 0.556620 -0.043698
N12   N     N_R   0.374350 0.422400 0.443380 -0.043699
N13   N     N_R   0.054230 0.922730 0.705400 -0.052910
N14   N     N_R   0.945770 0.922730 0.294600 -0.052910
N15   N     N_R   0.554230 0.422730 0.705400 -0.052915
N16   N     N_R   0.445770 0.422730 0.294600 -0.052915
N17   N     N_R   0.873790 0.077030 0.443380 -0.048004
N18   N     N_R   0.126210 0.077030 0.556620 -0.047999
N19   N     N_R   0.373790 0.577030 0.443380 -0.047981
N20   N     N_R   0.626210 0.577030 0.556620 -0.047982
N21   N     N_R   0.945200 0.076700 0.294600 -0.056019
N22   N     N_R   0.054800 0.076700 0.705400 -0.056013
N23   N     N_R   0.445200 0.576700 0.294600 -0.056031
N24   N     N_R   0.554800 0.576700 0.705400 -0.056034
N25   N     N_R   0.111030 0.077600 0.705380 -0.063382
N26   N     N_R   0.888970 0.077600 0.294620 -0.063382
N27   N     N_R   0.611030 0.577600 0.705380 -0.063401
N28   N     N_R   0.388970 0.577600 0.294620 -0.063400
N29   N     N_R   0.919490 0.077280 0.556590 -0.045230
N30   N     N_R   0.080510 0.077280 0.443410 -0.045228
N31   N     N_R   0.419490 0.577280 0.556590 -0.045221
N32   N     N_R   0.580510 0.577280 0.443410 -0.045221
Ni1   Ni    Ni4+2 0.882160 0.999430 0.370180 0.201556
Ni2   Ni    Ni4+2 0.117840 0.999430 0.629820 0.201547
Ni3   Ni    Ni4+2 0.382160 0.499430 0.370180 0.201548
Ni4   Ni    Ni4+2 0.617840 0.499430 0.629820 0.201555
Ni5   Ni    Ni4+2 0.012460 0.999430 0.370180 0.213960
Ni6   Ni    Ni4+2 0.987540 0.999430 0.629820 0.213953
Ni7   Ni    Ni4+2 0.512460 0.499430 0.370180 0.213956
Ni8   Ni    Ni4+2 0.487540 0.499430 0.629820 0.213961
C97   C     C_3   0.768079 0.867143 0.184043 -0.367305
C98   C     C_3   0.772395 0.790446 0.237007 -0.772517
H57   H     H_    0.773304 0.740989 0.192822 0.263823
H58   H     H_    0.821221 0.786577 0.322153 0.244892
H59   H     H_    0.726262 0.784560 0.235293 0.266767
H60   H     H_    0.754297 0.917787 0.209139 0.166876
H61   H     H_    0.724242 0.865992 0.097742 0.219937
C99   C     C_3   0.231918 0.867140 0.815952 -0.367265
C100  C     C_3   0.227604 0.790443 0.762991 -0.772558
H62   H     H_    0.226693 0.740986 0.807175 0.263825
H63   H     H_    0.178780 0.786574 0.677844 0.244893
H64   H     H_    0.273739 0.784558 0.764709 0.266774
H65   H     H_    0.245700 0.917782 0.790853 0.166852
H66   H     H_    0.275755 0.865992 0.902252 0.219930
C101  C     C_3   0.268053 0.367211 0.183984 -0.367273
C102  C     C_3   0.272297 0.290494 0.236850 -0.772728
H67   H     H_    0.273187 0.241051 0.192627 0.263835
H68   H     H_    0.321105 0.286575 0.322006 0.244895
H69   H     H_    0.226143 0.284634 0.235089 0.266783
H70   H     H_    0.254310 0.417850 0.209144 0.166879
H71   H     H_    0.224222 0.366124 0.097677 0.219900
C103  C     C_3   0.731939 0.367194 0.815996 -0.367282
C104  C     C_3   0.727680 0.290483 0.763110 -0.772708
H72   H     H_    0.726785 0.241036 0.807324 0.263832
H73   H     H_    0.678870 0.286575 0.677955 0.244893
H74   H     H_    0.773831 0.284617 0.764865 0.266783
H75   H     H_    0.745688 0.417836 0.790846 0.166892
H76   H     H_    0.775771 0.366093 0.902302 0.219915
I1    I     I_    0.038965 0.322696 0.291905 -0.391442
I2    I     I_    0.961037 0.322753 0.708009 -0.391416
I3    I     I_    0.538954 0.822559 0.291621 -0.391617
I4    I     I_    0.461039 0.822541 0.708392 -0.391616
I5    I     I_    0.875987 0.251357 0.015964 -0.417738
I6    I     I_    0.123986 0.251393 0.983983 -0.417729
I7    I     I_    0.375893 0.751184 0.015769 -0.417688
I8    I     I_    0.624106 0.751182 0.984231 -0.417676
C105  C     C_3   0.239764 0.099365 0.851594 -0.426755
C106  C     C_3   0.271073 0.062082 0.960790 -0.856267
H77   H     H_    0.274244 0.105169 0.015987 0.263000
H78   H     H_    0.238105 0.012434 0.949801 0.250506
H79   H     H_    0.324948 0.040673 0.998651 0.258602
H80   H     H_    0.245090 0.057643 0.803524 0.190936
H81   H     H_    0.270909 0.151577 0.865155 0.180297
C107  C     C_3   0.760233 0.099390 0.148403 -0.426821
C108  C     C_3   0.728921 0.062086 0.039221 -0.856417
H82   H     H_    0.725883 0.105105 0.984086 0.263058
H83   H     H_    0.761806 0.012341 0.050254 0.250493
H84   H     H_    0.674997 0.040827 0.001267 0.258639
H85   H     H_    0.754890 0.057691 0.196477 0.190960
H86   H     H_    0.729099 0.151618 0.134817 0.180317
C109  C     C_3   0.739767 0.599429 0.851560 -0.426750
C110  C     C_3   0.771123 0.562146 0.960772 -0.856438
H87   H     H_    0.774199 0.605177 0.015922 0.263073
H88   H     H_    0.738252 0.512410 0.949804 0.250505
H89   H     H_    0.825033 0.540878 0.998673 0.258667
H90   H     H_    0.745108 0.557726 0.803487 0.190969
H91   H     H_    0.770873 0.651673 0.865091 0.180331
C111  C     C_3   0.260234 0.599415 0.148442 -0.426771
C112  C     C_3   0.228881 0.562139 0.039226 -0.856156
H92   H     H_    0.225717 0.605218 0.984026 0.263011
H93   H     H_    0.261812 0.512462 0.050178 0.250487
H94   H     H_    0.174998 0.540772 0.001388 0.258612
H95   H     H_    0.254902 0.557704 0.196518 0.190947
H96   H     H_    0.229123 0.651653 0.134917 0.180315

loop_
_geom_bond_atom_site_label_1
_geom_bond_atom_site_label_2
_ccdc_geom_bond_type
C25   C31   A    
C98   H58   S    
C110  H88   S    
C26   C32   A    
C99   H65   S    
C88   N20   A    
C55   C59   D    
N1    N14   A    
C27   C29   A    
C1    C77   A    
C100  H62   S    
C35   C39   A    
C42   C50   S    
C76   C79   A    
C96   C111  S    
C87   H43   S    
N12   Ni3   S    
C3    C79   A    
N31   Ni8   S    
C8    N32   A    
C76   H40   S    
C112  H92   S    
C39   C41   S    
C47   N7    A    
C107  C108  S    
C29   I1    S    
N15   Ni8   S    
N2    Ni2   S    
N9    Ni2   S    
C56   C79   S    
C71   N11   A    
C6    N30   A    
C109  H91   S    
C64   C68   D    
N19   N31   A    
C11   C36   S    
C24   C83   S    
C43   H3    S    
C4    C80   A    
C103  H75   S    
C42   H2    S    
N23   Ni7   S    
C6    H50   S    
C75   H39   S    
N24   Ni8   S    
C98   H59   S    
C52   H16   S    
C107  H86   S    
C97   H60   S    
C14   C62   S    
C29   C33   A    
C101  H71   S    
C110  H87   S    
C106  H79   S    
C25   H53   S    
C94   N26   A    
N5    N9    A    
C41   C49   S    
C105  H80   S    
C58   H22   S    
C67   H19   S    
C1    N1    A    
C14   C90   A    
C41   H1    S    
C18   C40   A    
C27   H55   S    
C19   C37   A    
C9    C85   A    
C92   N24   A    
C46   C82   A    
N26   Ni1   S    
N24   N27   A    
C88   H44   S    
C20   C24   A    
C11   C87   A    
C99   C100  S    
C74   C77   A    
C109  C110  S    
C2    C99   S    
C73   C78   A    
N2    N13   A    
C76   N16   A    
N30   Ni5   S    
C23   C27   A    
C10   C33   S    
C75   C80   A    
C14   C93   A    
C7    H51   S    
C56   H28   S    
C59   H23   S    
C54   C77   S    
C44   C52   S    
C40   C42   S    
C98   H57   S    
C54   H26   S    
C60   C66   S    
C2    N2    A    
C34   C38   A    
C108  H82   S    
N18   N30   A    
C100  H63   S    
C8    H52   S    
C57   C67   S    
C50   H14   S    
C70   C82   A    
C42   H6    S    
C5    N29   A    
C89   N21   A    
C32   I4    S    
C85   N17   A    
C38   C44   S    
C72   H36   S    
C91   H47   S    
C71   C83   A    
N4    Ni4   S    
C111  H96   S    
C63   C67   D    
C4    C103  S    
C5    H49   S    
C23   C84   S    
C30   C34   A    
C101  C102  S    
C22   C81   S    
N7    Ni7   S    
C36   C40   A    
C45   N5    A    
N8    Ni8   S    
C74   N14   A    
C30   I2    S    
N21   N26   A    
C104  H74   S    
C45   H29   S    
C15   C96   A    
C51   H11   S    
C62   C66   D    
C103  C104  S    
C95   N27   A    
C112  H94   S    
C63   I7    S    
N27   Ni4   S    
N4    N15   A    
C111  C112  S    
C97   H61   S    
C71   H35   S    
C17   C21   A    
N25   Ni2   S    
C48   C84   A    
N11   Ni4   S    
C53   H25   S    
C107  H85   S    
C37   C43   S    
C86   H42   S    
C19   C23   A    
C104  H72   S    
C5    C9    A    
C105  C106  S    
C2    C78   A    
N28   Ni3   S    
C19   C51   S    
C48   H32   S    
C20   C38   A    
N29   Ni6   S    
N20   N32   A    
C7    C11   A    
C44   H8    S    
C26   H54   S    
N3    N16   A    
C8    C12   A    
C12   C88   A    
C87   N19   A    
N18   Ni2   S    
C109  H90   S    
C3    N3    A    
N13   Ni6   S    
C72   N12   A    
N32   Ni7   S    
C91   N23   A    
C90   H46   S    
C96   N28   A    
C12   C35   S    
C106  H78   S    
N16   Ni7   S    
N22   N25   A    
N17   N29   A    
C72   C84   A    
N22   Ni6   S    
C69   C81   A    
C31   I3    S    
C73   N13   A    
C17   C39   A    
C4    N4    A    
C68   H20   S    
C28   H56   S    
C47   C83   A    
C108  H83   S    
C101  H70   S    
C100  H64   S    
N7    N11   A    
C108  H84   S    
C17   C49   S    
C94   C107  S    
C55   H27   S    
N8    N12   A    
C64   I8    S    
C18   C50   S    
C57   H21   S    
C54   C58   D    
C85   H41   S    
C93   C105  S    
C111  H95   S    
C21   C25   A    
C10   C86   A    
C16   C95   A    
C99   H66   S    
C66   H18   S    
C13   C89   A    
C18   C22   A    
C65   H17   S    
C46   H30   S    
C45   C81   A    
C24   C28   A    
C73   H37   S    
N21   Ni5   S    
C43   H7    S    
C53   C57   D    
C6    C10   A    
N10   Ni1   S    
C49   H9    S    
C32   C36   A    
C16   C92   A    
N23   N28   A    
N19   Ni3   S    
C90   N22   A    
C51   H15   S    
C69   N9    A    
C110  H89   S    
C7    N31   A    
C13   C94   A    
C70   H34   S    
C3    C101  S    
N14   Ni5   S    
N6    Ni6   S    
C53   C78   S    
C49   H13   S    
N17   Ni1   S    
C20   C52   S    
C102  H68   S    
N3    Ni3   S    
C59   C65   S    
C62   I6    S    
C55   C80   S    
C44   H4    S    
C61   I5    S    
C9    C34   S    
N1    Ni1   S    
C86   N18   A    
N20   Ni4   S    
C102  H69   S    
C89   H45   S    
C43   C51   S    
C74   H38   S    
C28   C30   A    
C75   N15   A    
C41   H5    S    
C33   C37   A    
C60   H24   S    
C102  H67   S    
C31   C35   A    
C61   C65   D    
C106  H77   S    
C92   H48   S    
N5    Ni5   S    
C105  H81   S    
C58   C68   S    
C104  H73   S    
C112  H93   S    
N6    N10   A    
C15   C91   A    
C56   C60   D    
C13   C61   S    
C21   C82   S    
C52   H12   S    
C69   H33   S    
C97   C98   S    
C22   C26   A    
C48   N8    A    
C47   H31   S    
C50   H10   S    
C15   C63   S    
C1    C97   S    
C103  H76   S    
C16   C64   S    
C93   N25   A    
C70   N10   A    
C95   C109  S    
C46   N6    A    
