data_mof_unit_64385.cif
_audit_creation_date              2012-12-10T18:05:55-0500
_audit_creation_method            fapswitch 2.2
_symmetry_space_group_name_H-M    P1
_symmetry_Int_Tables_number       1
_space_group_crystal_system       triclinic
_cell_length_a                    21.713189
_cell_length_b                    21.708116
_cell_length_c                    30.192238
_cell_angle_alpha                 89.892743
_cell_angle_beta                  89.989863
_cell_angle_gamma                 90.031693
_cell_volume                      14231.1572759

loop_
_atom_site_label
_atom_site_type_symbol
_atom_type_description
_atom_site_fract_x
_atom_site_fract_y
_atom_site_fract_z
_atom_type_partial_charge
C1    C     C_R   0.119809 0.500014 0.500000 0.993756
C2    C     C_R   0.379451 0.500022 0.500000 0.919908
C3    C     C_R   0.991446 0.556073 0.843184 0.400719
C4    C     C_R   0.556280 0.993104 0.156734 0.400069
C5    C     C_R   0.008571 0.556123 0.156645 0.400967
C6    C     C_R   0.443622 0.006531 0.156707 0.400161
C7    C     C_R   0.991341 0.443927 0.156817 0.400768
C8    C     C_R   0.999937 0.500180 0.366315 -0.444219
C9    C     C_R   0.500035 0.999971 0.366311 -0.444714
C10   C     C_R   0.999946 0.499819 0.633685 -0.444440
C11   C     C_R   0.499993 0.000063 0.633690 -0.443540
C12   C     C_R   0.499990 0.000174 0.866315 -0.444383
C13   C     C_R   0.499654 0.620535 0.499824 0.941276
C14   C     C_R   0.000020 0.499987 0.866311 -0.444319
C15   C     C_R   0.499963 0.999832 0.133685 -0.444411
C16   C     C_R   0.999988 0.500013 0.133689 -0.444320
C17   C     C_R   0.999862 0.500098 0.274164 -0.344530
C18   C     C_R   0.499910 0.999883 0.274153 -0.344585
C19   C     C_R   0.999890 0.499894 0.725836 -0.344520
C20   C     C_R   0.499986 0.000189 0.725847 -0.344078
C21   C     C_R   0.499986 0.000252 0.774164 -0.344354
C22   C     C_R   0.999870 0.499925 0.774152 -0.344628
C23   C     C_R   0.499924 0.999838 0.225836 -0.344487
C24   C     C_R   0.620537 0.499964 0.500023 0.931977
C25   C     C_R   0.999831 0.500070 0.225848 -0.344667
C26   C     C_3   0.333836 0.627689 0.555676 -0.734222
C27   C     C_3   0.631727 0.678755 0.559018 -0.745160
C28   C     C_3   0.666093 0.371794 0.555589 -0.739224
C29   C     C_3   0.374133 0.333380 0.558173 -0.737443
C30   C     C_3   0.333793 0.372520 0.444109 -0.737087
C31   C     C_3   0.625967 0.333748 0.441730 -0.737624
C32   C     C_3   0.665070 0.628510 0.447267 -0.732646
C33   C     C_3   0.374055 0.666961 0.441291 -0.738367
C34   C     C_3   0.833850 0.127170 0.056382 -0.737204
C35   C     C_R   0.000046 0.879435 0.000034 0.923769
C36   C     C_3   0.126510 0.166265 0.057341 -0.737032
C37   C     C_3   0.166109 0.872767 0.056685 -0.737594
C38   C     C_3   0.873820 0.833426 0.057740 -0.737276
C39   C     C_3   0.833738 0.872825 0.943678 -0.737541
C40   C     C_3   0.126542 0.833868 0.942597 -0.737105
C41   C     C_3   0.166270 0.127172 0.943310 -0.737633
C42   C     C_3   0.873794 0.166452 0.942253 -0.737325
C43   C     C_R   0.879447 0.999997 0.000003 0.924128
C44   C     C_R   0.000043 0.120565 0.999965 0.923810
C45   C     C_R   0.120553 0.999994 0.999997 0.923858
C46   C     C_R   0.312814 0.500036 0.499995 -0.242256
C47   C     C_R   0.500003 0.687197 0.499356 -0.230141
C48   C     C_R   0.687163 0.500028 0.500073 -0.246490
C49   C     C_R   0.499958 0.880168 0.500385 0.996779
C50   C     C_R   0.500087 0.312752 0.500074 -0.244893
C51   C     C_R   0.812802 0.000003 0.000007 -0.244753
C52   C     C_R   0.000111 0.187234 0.999910 -0.245361
C53   C     C_R   0.187198 0.999975 0.999989 -0.244910
C54   C     C_R   0.000137 0.812766 0.000093 -0.245384
C55   C     C_R   0.280581 0.533932 0.532858 0.073007
C56   C     C_R   0.532962 0.718622 0.532784 0.069381
C57   C     C_R   0.719395 0.465646 0.532743 0.071422
C58   C     C_R   0.467159 0.280376 0.533495 0.074279
C59   C     C_R   0.280560 0.466171 0.467113 0.073913
C60   C     C_R   0.880179 0.499982 0.499935 0.992259
C61   C     C_R   0.532993 0.280572 0.466638 0.074513
C62   C     C_R   0.719362 0.534537 0.467433 0.074047
C63   C     C_R   0.467044 0.719769 0.466173 0.064226
C64   C     C_R   0.780562 0.033673 0.032993 0.073825
C65   C     C_R   0.033248 0.219438 0.033217 0.074432
C66   C     C_R   0.219422 0.966262 0.033043 0.073963
C67   C     C_R   0.966986 0.780394 0.033399 0.074163
C68   C     C_R   0.780541 0.966354 0.967010 0.073946
C69   C     C_R   0.033300 0.780599 0.966790 0.074421
C70   C     C_R   0.219475 0.033666 0.966925 0.073951
C71   C     C_R   0.500014 0.119780 0.500022 0.996428
C72   C     C_R   0.966944 0.219569 0.966620 0.074143
C73   C     C_R   0.000001 0.500053 0.414055 0.896289
C74   C     C_R   0.500008 0.999992 0.414056 0.899100
C75   C     C_R   1.000000 0.499947 0.585945 0.896609
C76   C     C_R   0.499996 0.000003 0.585945 0.897433
C77   C     C_R   0.500002 0.000052 0.914055 0.897145
C78   C     C_R   0.000006 0.499999 0.914055 0.897636
C79   C     C_R   0.499998 0.999948 0.085945 0.897153
C80   C     C_R   0.999996 0.500000 0.085945 0.897629
C81   C     C_R   0.185560 0.500042 0.499990 -0.209777
C82   C     C_R   0.619805 0.000015 0.999996 0.994205
C83   C     C_R   0.499723 0.814360 0.500336 -0.196041
C84   C     C_R   0.814410 0.499930 0.499926 -0.209986
C85   C     C_R   0.500048 0.185491 0.500051 -0.208257
C86   C     C_R   0.685548 0.000042 0.999986 -0.209526
C87   C     C_R   0.999968 0.314495 0.999990 -0.208393
C88   C     C_R   0.314452 0.999955 0.999980 -0.209403
C89   C     C_R   0.000055 0.685504 0.000044 -0.208382
C90   C     C_R   0.216271 0.534559 0.532112 0.361592
C91   C     C_R   0.532977 0.783164 0.533054 0.333296
C92   C     C_R   0.783705 0.464993 0.531933 0.363290
C93   C     C_R   0.999985 0.380215 0.999998 0.995797
C94   C     C_R   0.466453 0.216059 0.532715 0.360778
C95   C     C_R   0.216251 0.465535 0.467864 0.361305
C96   C     C_R   0.533662 0.216257 0.467400 0.360487
C97   C     C_R   0.783676 0.534947 0.468002 0.362395
C98   C     C_R   0.466421 0.784081 0.467297 0.362095
C99   C     C_R   0.716254 0.034357 0.032217 0.361459
C100  C     C_R   0.033795 0.283756 0.032519 0.360929
C101  C     C_R   0.283731 0.965560 0.032259 0.361407
C102  C     C_R   0.966295 0.716076 0.032622 0.361112
C103  C     C_R   0.716232 0.965715 0.967762 0.361476
C104  C     C_R   0.380195 0.999985 0.999995 0.994245
C105  C     C_R   0.033885 0.716281 0.967508 0.360862
C106  C     C_R   0.283784 0.034346 0.967698 0.361449
C107  C     C_R   0.966220 0.283887 0.967414 0.361089
C108  C     C_R   0.056419 0.504889 0.297234 0.458225
C109  C     C_R   0.507031 0.943607 0.297358 0.457745
C110  C     C_R   0.943338 0.495377 0.297311 0.457606
C111  C     C_R   0.492848 0.056205 0.297163 0.458112
C112  C     C_R   0.056437 0.495098 0.702745 0.458196
C113  C     C_R   0.507071 0.056465 0.702625 0.457371
C114  C     C_R   0.943368 0.504623 0.702710 0.457580
C115  C     C_R   0.000014 0.619785 0.000011 0.995808
C116  C     C_R   0.492904 0.943849 0.702855 0.457653
C117  C     C_R   0.556495 0.005354 0.797260 0.457552
C118  C     C_R   0.006923 0.443632 0.797347 0.457977
C119  C     C_R   0.443477 0.995150 0.797286 0.457884
C120  C     C_R   0.992882 0.556251 0.797170 0.457887
C121  C     C_R   0.556442 0.994791 0.202739 0.458128
C122  C     C_R   0.006951 0.556364 0.202653 0.457998
C123  C     C_R   0.443423 0.004852 0.202716 0.457590
C124  C     C_R   0.992773 0.443747 0.202830 0.457896
C125  C     C_R   0.056287 0.506583 0.343239 0.399998
C126  C     C_R   0.500028 0.379430 0.500030 0.921637
C127  C     C_R   0.508701 0.943875 0.343363 0.400938
C128  C     C_R   0.943540 0.493795 0.343323 0.400299
C129  C     C_R   0.491349 0.056032 0.343175 0.400512
C130  C     C_R   0.056293 0.493411 0.656741 0.400029
C131  C     C_R   0.508668 0.056182 0.656617 0.400776
C132  C     C_R   0.943561 0.506207 0.656698 0.400132
C133  C     C_R   0.491325 0.944005 0.656846 0.400043
C134  C     C_R   0.556315 0.006994 0.843265 0.400085
C135  C     C_R   0.008541 0.443876 0.843355 0.400940
C136  C     C_R   0.443659 0.993425 0.843294 0.400033
H1    H     H_    0.108977 0.500335 0.244314 0.346970
H2    H     H_    0.004506 0.390856 0.744526 0.346924
H3    H     H_    0.799145 0.847160 0.963622 0.248195
H4    H     H_    0.039981 0.838512 0.910972 0.269583
H5    H     H_    0.123459 0.877838 0.960932 0.238304
H6    H     H_    0.152299 0.842320 0.911420 0.254011
H7    H     H_    0.152344 0.799374 0.962523 0.248081
H8    H     H_    0.161597 0.041027 0.911250 0.269754
H9    H     H_    0.122447 0.123736 0.961851 0.237590
H10   H     H_    0.157550 0.153262 0.912297 0.254272
H11   H     H_    0.200841 0.152857 0.963184 0.248172
H12   H     H_    0.960503 0.161867 0.910843 0.269632
H13   H     H_    0.390838 0.999628 0.744413 0.346982
H14   H     H_    0.876773 0.122373 0.960584 0.238395
H15   H     H_    0.848158 0.158192 0.911027 0.254083
H16   H     H_    0.847929 0.200846 0.962139 0.248070
H17   H     H_    0.994968 0.608938 0.744148 0.346964
H18   H     H_    0.609062 0.999251 0.255616 0.346963
H19   H     H_    0.004586 0.609138 0.255475 0.346932
H20   H     H_    0.390771 0.000410 0.255601 0.346993
H21   H     H_    0.994782 0.391057 0.255851 0.347024
H22   H     H_    0.107424 0.518350 0.396336 0.343325
H23   H     H_    0.521577 0.893133 0.396637 0.344368
H24   H     H_    0.892426 0.482612 0.396552 0.342961
H25   H     H_    0.504446 0.890785 0.244571 0.346925
H26   H     H_    0.479250 0.106970 0.396324 0.344082
H27   H     H_    0.107412 0.481680 0.603622 0.343286
H28   H     H_    0.521272 0.106948 0.603309 0.343978
H29   H     H_    0.892445 0.517375 0.603487 0.343319
H30   H     H_    0.478886 0.893076 0.603736 0.343966
H31   H     H_    0.607359 0.018859 0.896402 0.343443
H32   H     H_    0.020980 0.393039 0.896642 0.343836
H33   H     H_    0.392615 0.981492 0.896467 0.343521
H34   H     H_    0.979589 0.607040 0.896349 0.343971
H35   H     H_    0.607339 0.981210 0.103603 0.343429
H36   H     H_    0.890714 0.499730 0.244416 0.347071
H37   H     H_    0.021061 0.606963 0.103355 0.343837
H38   H     H_    0.392593 0.018320 0.103529 0.343546
H39   H     H_    0.979423 0.392964 0.103653 0.343956
H40   H     H_    0.208272 0.589223 0.583834 0.382942
H41   H     H_    0.585506 0.790623 0.585879 0.365760
H42   H     H_    0.791715 0.409518 0.583353 0.382831
H43   H     H_    0.413114 0.207810 0.585212 0.382813
H44   H     H_    0.208218 0.410792 0.416184 0.382973
H45   H     H_    0.587065 0.208324 0.414934 0.382644
H46   H     H_    0.791579 0.589799 0.416238 0.382213
H47   H     H_    0.495161 0.108912 0.244163 0.346970
H48   H     H_    0.413865 0.792778 0.414455 0.383373
H49   H     H_    0.708241 0.088836 0.084039 0.382996
H50   H     H_    0.087350 0.291727 0.084894 0.382528
H51   H     H_    0.291718 0.910893 0.084124 0.382993
H52   H     H_    0.912733 0.707832 0.085002 0.382718
H53   H     H_    0.708187 0.911246 0.915934 0.382867
H54   H     H_    0.087471 0.708368 0.915136 0.382532
H55   H     H_    0.291857 0.088994 0.915823 0.382987
H56   H     H_    0.912663 0.292072 0.915045 0.382730
H57   H     H_    0.338619 0.541878 0.588379 0.270053
H58   H     H_    0.109011 0.499638 0.755647 0.346970
H59   H     H_    0.377390 0.624069 0.536850 0.234763
H60   H     H_    0.343029 0.653981 0.586464 0.254472
H61   H     H_    0.299062 0.653274 0.535875 0.247832
H62   H     H_    0.552783 0.693288 0.597934 0.246787
H63   H     H_    0.643667 0.629178 0.556556 0.254297
H64   H     H_    0.656973 0.698830 0.587555 0.242367
H65   H     H_    0.647320 0.702686 0.528424 0.241996
H66   H     H_    0.661334 0.457429 0.588259 0.269988
H67   H     H_    0.622481 0.375550 0.536848 0.236383
H68   H     H_    0.656972 0.345326 0.586383 0.254622
H69   H     H_    0.504614 0.109296 0.755411 0.346973
H70   H     H_    0.700809 0.346313 0.535728 0.248659
H71   H     H_    0.461024 0.338013 0.589330 0.269491
H72   H     H_    0.376989 0.377604 0.540005 0.238800
H73   H     H_    0.348600 0.341348 0.589485 0.254098
H74   H     H_    0.348235 0.299073 0.538212 0.247939
H75   H     H_    0.338526 0.458436 0.411524 0.269862
H76   H     H_    0.377450 0.376112 0.462811 0.237279
H77   H     H_    0.342810 0.346292 0.413268 0.254110
H78   H     H_    0.299093 0.346887 0.463978 0.248221
H79   H     H_    0.538965 0.338355 0.410684 0.269752
H80   H     H_    0.890749 0.500269 0.755624 0.347041
H81   H     H_    0.623224 0.378044 0.459691 0.238946
H82   H     H_    0.651452 0.341576 0.410355 0.254331
H83   H     H_    0.651842 0.299493 0.461819 0.247778
H84   H     H_    0.660809 0.544570 0.412546 0.269468
H85   H     H_    0.626442 0.622866 0.470893 0.237211
H86   H     H_    0.648009 0.653783 0.417729 0.251091
H87   H     H_    0.702315 0.656132 0.462806 0.248452
H88   H     H_    0.461061 0.661948 0.410511 0.269659
H89   H     H_    0.376810 0.622902 0.459682 0.237022
H90   H     H_    0.348716 0.658658 0.409945 0.254733
H91   H     H_    0.495370 0.891156 0.755854 0.346811
H92   H     H_    0.348024 0.701419 0.461009 0.248823
H93   H     H_    0.838465 0.041004 0.088642 0.269790
H94   H     H_    0.877601 0.123755 0.037768 0.237494
H95   H     H_    0.842714 0.153206 0.087333 0.254213
H96   H     H_    0.799246 0.152897 0.036523 0.248192
H97   H     H_    0.039978 0.161534 0.089031 0.269588
H98   H     H_    0.123408 0.122265 0.039040 0.238278
H99   H     H_    0.152311 0.157886 0.088499 0.254025
H100  H     H_    0.152281 0.200764 0.037367 0.248071
H101  H     H_    0.161514 0.958927 0.088725 0.269808
H102  H     H_    0.609129 0.001063 0.744371 0.346738
H103  H     H_    0.122327 0.876192 0.038111 0.237588
H104  H     H_    0.157299 0.846709 0.087706 0.254293
H105  H     H_    0.200684 0.847057 0.036849 0.248169
H106  H     H_    0.960498 0.838087 0.089174 0.269620
H107  H     H_    0.876830 0.877509 0.039412 0.238369
H108  H     H_    0.848154 0.841664 0.088960 0.254085
H109  H     H_    0.847968 0.799009 0.037847 0.248047
H110  H     H_    0.838451 0.958953 0.911358 0.269702
H111  H     H_    0.877545 0.876259 0.962217 0.237575
H112  H     H_    0.842477 0.846717 0.912744 0.254117
N1    N     N_2   0.311380 0.567037 0.567095 -0.301816
N2    N     N_2   0.065586 0.188614 0.067888 -0.301593
N3    N     N_2   0.188627 0.933530 0.067564 -0.301388
N4    N     N_2   0.934796 0.811042 0.068146 -0.301381
N5    N     N_2   0.811304 0.933582 0.932600 -0.301531
N6    N     N_2   0.065606 0.811456 0.932095 -0.301585
N7    N     N_2   0.188731 0.066415 0.932415 -0.301401
N8    N     N_2   0.934787 0.188887 0.931866 -0.301379
N9    N     N_2   0.565908 0.684824 0.565680 -0.280526
N10   N     N_2   0.688599 0.432368 0.566993 -0.301598
N11   N     N_2   0.435193 0.311017 0.568351 -0.301280
N12   N     N_2   0.311333 0.433189 0.432812 -0.301458
N13   N     N_2   0.564846 0.311403 0.431715 -0.301241
N14   N     N_2   0.688407 0.569067 0.433937 -0.301807
N15   N     N_2   0.435168 0.689323 0.431182 -0.301489
N16   N     N_2   0.811343 0.066401 0.067425 -0.301452
O1    O     O_R   0.091600 0.448290 0.500030 -0.597088
O2    O     O_R   0.948290 0.408400 0.000030 -0.598019
O3    O     O_R   0.408400 0.051710 0.000030 -0.597424
O4    O     O_R   0.051710 0.591600 0.000030 -0.598161
O5    O     O_R   0.591600 0.051710 0.999970 -0.597353
O6    O     O_R   0.948290 0.591600 0.999970 -0.598017
O7    O     O_R   0.408400 0.948290 0.999970 -0.597484
O8    O     O_R   0.051710 0.408400 0.999970 -0.598125
O9    O     O_R   0.999980 0.448290 0.434550 -0.603834
O10   O     O_R   0.448290 0.000020 0.434550 -0.603833
O11   O     O_R   0.000020 0.551710 0.434550 -0.604679
O12   O     O_R   0.448290 0.908400 0.500030 -0.598669
O13   O     O_R   0.551710 0.999980 0.434550 -0.604797
O14   O     O_R   0.999980 0.551710 0.565450 -0.603848
O15   O     O_R   0.448290 0.999980 0.565450 -0.604599
O16   O     O_R   0.000020 0.448290 0.565450 -0.604612
O17   O     O_R   0.551710 0.000020 0.565450 -0.605332
O18   O     O_R   0.499980 0.948290 0.934550 -0.604298
O19   O     O_R   0.948290 0.500020 0.934550 -0.604195
O20   O     O_R   0.500020 0.051710 0.934550 -0.604497
O21   O     O_R   0.051710 0.499980 0.934550 -0.604771
O22   O     O_R   0.499980 0.051710 0.065450 -0.604163
O23   O     O_R   0.908400 0.551710 0.500030 -0.596507
O24   O     O_R   0.948290 0.499980 0.065450 -0.604199
O25   O     O_R   0.500020 0.948290 0.065450 -0.604587
O26   O     O_R   0.051710 0.500020 0.065450 -0.604725
O27   O     O_R   0.499980 0.408290 0.536960 -0.630084
O28   O     O_R   0.408290 0.500020 0.536960 -0.631447
O29   O     O_R   0.500020 0.591710 0.536960 -0.596085
O30   O     O_R   0.591710 0.499980 0.536960 -0.625398
O31   O     O_R   0.499980 0.591710 0.463040 -0.635512
O32   O     O_R   0.408290 0.499980 0.463040 -0.630234
O33   O     O_R   0.500020 0.408290 0.463040 -0.629046
O34   O     O_R   0.551710 0.091600 0.500030 -0.598457
O35   O     O_R   0.591710 0.500020 0.463040 -0.630588
O36   O     O_R   0.999980 0.908290 0.036960 -0.628700
O37   O     O_R   0.908290 0.000020 0.036960 -0.628934
O38   O     O_R   0.000020 0.091710 0.036960 -0.628541
O39   O     O_R   0.091710 0.999980 0.036960 -0.628968
O40   O     O_R   0.999980 0.091710 0.963040 -0.628730
O41   O     O_R   0.908290 0.999980 0.963040 -0.628940
O42   O     O_R   0.000020 0.908290 0.963040 -0.628590
O43   O     O_R   0.091710 0.000020 0.963040 -0.628979
O44   O     O_3   0.113087 0.508748 0.276323 -0.662096
O45   O     O_R   0.091600 0.551710 0.499970 -0.597123
O46   O     O_3   0.513182 0.887103 0.276578 -0.662096
O47   O     O_3   0.886637 0.491487 0.276473 -0.662139
O48   O     O_3   0.486651 0.112674 0.276188 -0.661917
O49   O     O_3   0.113105 0.491233 0.723635 -0.662103
O50   O     O_3   0.513237 0.112986 0.723387 -0.662097
O51   O     O_3   0.886676 0.508517 0.723568 -0.662067
O52   O     O_3   0.486738 0.887383 0.723848 -0.663819
O53   O     O_3   0.613156 0.009560 0.776374 -0.662366
O54   O     O_3   0.013026 0.387127 0.776560 -0.662193
O55   O     O_3   0.386818 0.990976 0.776420 -0.662038
O56   O     O_R   0.448290 0.091600 0.499970 -0.598223
O57   O     O_3   0.986719 0.612732 0.776205 -0.662276
O58   O     O_3   0.613096 0.990675 0.223624 -0.661952
O59   O     O_3   0.013120 0.612867 0.223440 -0.662155
O60   O     O_3   0.386755 0.008972 0.223583 -0.662024
O61   O     O_3   0.986540 0.387265 0.223795 -0.662096
O62   O     O_3   0.112737 0.513435 0.364051 -0.662140
O63   O     O_3   0.517738 0.887741 0.364288 -0.663081
O64   O     O_3   0.887115 0.487013 0.364217 -0.662753
O65   O     O_3   0.482445 0.112220 0.363911 -0.662673
O66   O     O_3   0.112732 0.486561 0.635909 -0.662223
O67   O     O_R   0.908400 0.448290 0.499970 -0.596743
O68   O     O_3   0.517655 0.112322 0.635673 -0.662713
O69   O     O_3   0.887138 0.512988 0.635824 -0.662144
O70   O     O_3   0.482368 0.887805 0.636130 -0.665772
O71   O     O_3   0.612707 0.014182 0.864102 -0.662301
O72   O     O_3   0.017412 0.387707 0.864272 -0.662787
O73   O     O_3   0.387270 0.986189 0.864157 -0.662213
O74   O     O_3   0.982678 0.612276 0.863930 -0.662891
O75   O     O_3   0.612680 0.985968 0.135897 -0.662182
O76   O     O_3   0.017512 0.612291 0.135727 -0.662772
O77   O     O_3   0.387239 0.013679 0.135844 -0.662169
O78   O     O_R   0.551710 0.908400 0.499970 -0.598646
O79   O     O_3   0.982509 0.387726 0.136071 -0.662804
O80   O     O_3   0.181500 0.566798 0.562863 -0.733251
O81   O     O_3   0.564117 0.817616 0.564525 -0.738171
O82   O     O_3   0.818483 0.432378 0.562555 -0.733333
O83   O     O_3   0.435038 0.181129 0.563924 -0.735052
O84   O     O_3   0.181461 0.433308 0.437105 -0.733161
O85   O     O_3   0.564997 0.181519 0.436152 -0.735645
O86   O     O_3   0.818402 0.567645 0.437370 -0.733555
O87   O     O_3   0.435305 0.819282 0.436120 -0.735388
O88   O     O_3   0.681475 0.066429 0.063054 -0.733485
O89   O     O_R   0.591600 0.948290 0.000030 -0.597352
O90   O     O_3   0.065274 0.318517 0.063693 -0.735474
O91   O     O_3   0.318495 0.933403 0.063136 -0.733755
O92   O     O_3   0.934732 0.681149 0.063757 -0.734979
O93   O     O_3   0.681434 0.933661 0.936914 -0.733626
O94   O     O_3   0.065386 0.681554 0.936338 -0.735527
O95   O     O_3   0.318599 0.066492 0.936815 -0.733684
O96   O     O_3   0.934652 0.318779 0.936291 -0.734971
Zn1   Zn    Zn3+2 0.000000 0.430950 0.500000 1.055009
Zn2   Zn    Zn3+2 0.500000 0.500000 0.450630 0.949962
Zn3   Zn    Zn3+2 0.000000 1.000000 0.049370 0.950368
Zn4   Zn    Zn3+2 0.000000 0.000000 0.950630 0.950241
Zn5   Zn    Zn3+2 0.430950 1.000000 0.500000 1.054344
Zn6   Zn    Zn3+2 0.000000 0.569050 0.500000 1.055060
Zn7   Zn    Zn3+2 0.569050 1.000000 0.500000 1.053631
Zn8   Zn    Zn3+2 0.500000 0.930950 0.000000 1.054574
Zn9   Zn    Zn3+2 0.930950 0.500000 0.000000 1.054684
Zn10  Zn    Zn3+2 0.500000 0.069050 0.000000 1.054744
Zn11  Zn    Zn3+2 0.069050 0.500000 0.000000 1.054393
Zn12  Zn    Zn3+2 0.500000 0.500000 0.549370 0.966220

loop_
_geom_bond_atom_site_label_1
_geom_bond_atom_site_label_2
_ccdc_geom_bond_type
C74   O13   A    
C28   H70   S    
C26   H60   S    
C105  O94   S    
C115  O6    A    
C29   H74   S    
C107  O96   S    
C36   H99   S    
C22   C120  A    
H36   O47   S    
C29   H72   S    
C63   C98   A    
C33   H89   S    
C11   C76   S    
C81   C95   A    
C85   C96   A    
C37   H103  S    
C96   O85   S    
C26   H61   S    
C21   C117  A    
C49   O78   A    
C109  C127  A    
C46   C55   A    
C36   N2    S    
C55   N1    S    
C77   O18   A    
C60   O67   A    
C40   N6    S    
C79   O22   A    
O42   Zn4   S    
H20   O60   S    
H97   N2    S    
H88   N15   S    
C27   N9    S    
H8    N7    S    
H84   N14   S    
C18   C111  A    
C126  O33   A    
C69   C105  A    
C93   O2    A    
C37   N3    S    
C38   H109  S    
H42   O82   S    
H31   O71   S    
C16   C80   S    
C52   C72   A    
C26   N1    S    
O30   Zn12  S    
H53   O93   S    
O38   Zn3   S    
O27   Zn12  S    
O25   Zn8   S    
C106  O95   S    
C86   C99   A    
H1    O44   S    
C81   C90   A    
C111  O48   S    
O39   Zn3   S    
C59   N12   S    
C45   O43   A    
C136  O73   S    
O18   Zn8   S    
C115  O4    A    
H93   N16   S    
C112  O49   S    
C22   C118  A    
C7    O79   S    
C51   C64   A    
C24   O30   A    
C39   N5    S    
H110  N5    S    
C83   C91   A    
C119  C136  A    
C31   N13   S    
C17   C25   S    
C104  O7    A    
C61   N13   S    
C21   C119  A    
C30   H77   S    
C92   O82   S    
C116  O52   S    
C80   O26   A    
C77   O20   A    
C78   O19   A    
O12   Zn5   S    
C87   C107  A    
C20   C21   S    
C108  O44   S    
C43   O41   A    
C52   C65   A    
C110  C128  A    
O45   Zn6   S    
C89   C115  S    
C57   C92   A    
C34   H95   S    
C18   C109  A    
C35   O42   A    
C61   C96   A    
C48   C57   A    
C38   H107  S    
C118  O54   S    
C29   N11   S    
C30   N12   S    
C55   C90   A    
C20   C113  A    
C82   O89   A    
H19   O59   S    
C14   C135  A    
H26   O65   S    
C36   H98   S    
C2    O28   A    
O3    Zn10  S    
C68   N5    S    
C8    C128  A    
C64   C99   A    
C15   C79   S    
C41   H10   S    
O43   Zn4   S    
H54   O94   S    
C83   C98   A    
C110  O47   S    
H48   O87   S    
H47   O48   S    
H27   O66   S    
H35   O75   S    
H50   O90   S    
C122  O59   S    
O4    Zn11  S    
C98   O87   S    
C44   C52   S    
C45   C53   S    
C12   C134  A    
C65   N2    S    
C66   C101  A    
C4    O75   S    
C6    C123  A    
C88   C104  S    
C69   N6    S    
C56   C91   A    
C80   O24   A    
C37   H105  S    
C24   C48   S    
C27   H63   S    
C97   O86   S    
C13   C47   S    
O89   Zn8   S    
C99   O88   S    
C23   C123  A    
C5    C122  A    
C39   H112  S    
O34   Zn7   S    
O9    Zn1   S    
C62   C97   A    
C10   C75   S    
C48   C62   A    
H38   O77   S    
H71   N11   S    
C12   C77   S    
H23   O63   S    
C42   H15   S    
H2    O54   S    
O20   Zn10  S    
C94   O83   S    
H22   O62   S    
H12   N8    S    
C28   N10   S    
C9    C74   S    
H18   O58   S    
H55   O95   S    
C87   C100  A    
O11   Zn6   S    
C78   O21   A    
C27   H65   S    
C28   H67   S    
H29   O69   S    
H39   O79   S    
C29   H73   S    
C36   H100  S    
C41   N7    S    
C13   O29   A    
C75   O16   A    
H106  N4    S    
C90   O80   S    
C87   C93   S    
H91   O52   S    
O23   Zn6   S    
C44   O38   A    
C45   O39   A    
C10   C132  A    
H44   O84   S    
C12   C136  A    
C40   H7    S    
C89   C105  A    
H25   O46   S    
H56   O96   S    
C50   C61   A    
O16   Zn1   S    
C84   C92   A    
C112  C130  A    
C47   C56   A    
C56   N9    S    
C104  O3    A    
C32   H85   S    
H17   O57   S    
C132  O69   S    
C23   C121  A    
O29   Zn12  S    
C9    C127  A    
C82   O5    A    
C84   C97   A    
C72   N8    S    
C47   C63   A    
C89   C102  A    
H13   O55   S    
C117  C134  A    
C1    C81   S    
C133  O70   S    
C124  O61   S    
C111  C129  A    
H80   O51   S    
C109  O46   S    
C91   O81   S    
C68   C103  A    
H30   O70   S    
C67   N4    S    
C102  O92   S    
O21   Zn11  S    
H75   N12   S    
H24   O64   S    
C35   C54   S    
C3    O74   S    
C53   C70   A    
O41   Zn4   S    
C31   H83   S    
C39   H3    S    
C123  O60   S    
C13   O31   A    
C27   H64   S    
C75   O14   A    
C50   C58   A    
C2    O32   A    
C76   O17   A    
C33   H90   S    
C70   C106  A    
H58   O49   S    
C24   O35   A    
C37   H104  S    
H28   O68   S    
C19   C114  A    
H43   O83   S    
C82   C86   S    
C44   O40   A    
H49   O88   S    
C127  O63   S    
C10   C130  A    
C35   O36   A    
C30   H78   S    
C120  O57   S    
C130  O66   S    
O2    Zn9   S    
C39   H111  S    
C7    C16   A    
O67   Zn1   S    
C17   C108  A    
H4    N6    S    
H45   O85   S    
O8    Zn11  S    
C32   H87   S    
O32   Zn2   S    
C1    O45   A    
C66   N3    S    
C76   O15   A    
O7    Zn8   S    
C34   H96   S    
C65   C100  A    
C63   N15   S    
C70   N7    S    
C103  O93   S    
C64   N16   S    
C116  C133  A    
C38   H108  S    
C33   N15   S    
C60   O23   A    
C34   N16   S    
C58   N11   S    
H33   O73   S    
C49   C83   S    
C11   C133  A    
C131  O68   S    
C43   C51   S    
O56   Zn5   S    
C54   C69   A    
C8    C73   S    
C74   O10   A    
C4    C121  A    
H37   O76   S    
C8    C125  A    
C41   H9    S    
H62   N9    S    
C118  C135  A    
C31   H81   S    
O31   Zn2   S    
C40   H6    S    
C46   C59   A    
H79   N13   S    
O10   Zn5   S    
C7    C124  A    
C101  O91   S    
C33   H92   S    
C129  O65   S    
C17   C110  A    
C62   N14   S    
H40   O80   S    
C88   C101  A    
C19   C112  A    
C2    C46   S    
C43   O37   A    
C134  O71   S    
C113  O50   S    
H66   N10   S    
C30   H76   S    
H46   O86   S    
O1    Zn1   S    
C57   N10   S    
C5    C16   A    
C6    C15   A    
C71   C85   S    
C49   O12   A    
C73   O9    A    
C135  O72   S    
O14   Zn6   S    
C128  O64   S    
C50   C126  S    
H57   N1    S    
O24   Zn9   S    
C42   H16   S    
C25   C122  A    
O5    Zn10  S    
H34   O74   S    
C95   O84   S    
C34   H94   S    
C59   C95   A    
C86   C103  A    
O13   Zn7   S    
O15   Zn5   S    
C38   N4    S    
O33   Zn2   S    
C18   C23   S    
C28   H68   S    
C19   C22   S    
C20   C116  A    
C54   C67   A    
O26   Zn11  S    
C26   H59   S    
O35   Zn2   S    
H32   O72   S    
C71   O56   A    
C88   C106  A    
C85   C94   A    
C41   H11   S    
C72   C107  A    
C42   N8    S    
C32   N14   S    
C53   C66   A    
C3    C14   A    
C79   O25   A    
O19   Zn9   S    
H21   O61   S    
C108  C125  A    
O28   Zn12  S    
H51   O91   S    
O22   Zn10  S    
O36   Zn3   S    
C113  C131  A    
C114  C132  A    
C114  O51   S    
C11   C131  A    
C32   H86   S    
C9    C129  A    
O6    Zn9   S    
H102  O53   S    
C31   H82   S    
C4    C15   A    
O78   Zn7   S    
C58   C94   A    
C71   O34   A    
C100  O90   S    
H69   O50   S    
C60   C84   S    
O40   Zn4   S    
C93   O8    A    
C117  O53   S    
C73   O11   A    
C119  O55   S    
C125  O62   S    
C51   C68   A    
C14   C78   S    
C42   H14   S    
C25   C124  A    
C3    C120  A    
O17   Zn7   S    
C126  O27   A    
C121  O58   S    
C1    O1    A    
C6    O77   S    
C5    O76   S    
H101  N3    S    
C40   H5    S    
O37   Zn3   S    
C67   C102  A    
H41   O81   S    
H52   O92   S    
