data_mof_unit_62376.cif
_audit_creation_date              2012-12-10T18:40:29-0500
_audit_creation_method            fapswitch 2.2
_symmetry_space_group_name_H-M    P1
_symmetry_Int_Tables_number       1
_space_group_crystal_system       triclinic
_cell_length_a                    10.777667
_cell_length_b                    11.575472
_cell_length_c                    16.742758
_cell_angle_alpha                 89.995999
_cell_angle_beta                  85.182873
_cell_angle_gamma                 89.991512
_cell_volume                      2081.3912972

loop_
_atom_site_label
_atom_site_type_symbol
_atom_type_description
_atom_site_fract_x
_atom_site_fract_y
_atom_site_fract_z
_atom_type_partial_charge
C1    C     C_R   0.499995 0.718843 0.499981 0.916025
C2    C     C_R   0.500008 0.281157 0.499977 0.910934
C3    C     C_1   0.499986 0.838968 0.499945 -0.178199
C4    C     C_1   0.500020 0.161045 0.499922 -0.174817
C5    C     C_1   0.499994 0.940853 0.499914 0.016619
C6    C     C_1   0.500011 0.059163 0.499901 0.016959
C7    C     C_1   0.930242 0.499995 0.500005 0.048680
C8    C     C_1   0.069758 0.499994 0.499996 0.048013
C9    C     C_R   0.482871 0.499345 0.653929 0.901131
C10   C     C_R   0.517001 0.494080 0.346356 0.900624
C11   C     C_R   0.472049 0.484426 0.740385 -0.136240
C12   C     C_R   0.527042 0.454376 0.263743 -0.127532
C13   C     C_R   0.577484 0.497886 0.782892 -0.263762
C14   C     C_R   0.428996 0.389390 0.236700 -0.273770
C15   C     C_R   0.571869 0.470465 0.863645 0.653836
C16   C     C_R   0.439126 0.343280 0.160162 0.645947
C17   C     C_R   0.460537 0.426962 0.902188 0.014420
C18   C     C_R   0.546411 0.364750 0.109065 0.016489
C19   C     C_R   0.353599 0.419027 0.860737 -0.220161
C20   C     C_R   0.647656 0.423076 0.137489 -0.196941
C21   C     C_R   0.359229 0.447332 0.779957 -0.183604
C22   C     C_R   0.638220 0.467594 0.214944 -0.190683
C23   C     C_2   0.450552 0.399160 0.987271 -0.125187
C24   C     C_2   0.544182 0.350524 0.022839 -0.090041
H1    H     H_    0.664573 0.528864 0.753522 0.186780
H2    H     H_    0.344670 0.373321 0.275000 0.189267
H3    H     H_    0.716110 0.514494 0.235989 0.173926
H4    H     H_    0.276592 0.436765 0.748064 0.178471
H5    H     H_    0.628434 0.322463 0.988095 0.191204
H6    H     H_    0.367298 0.428918 0.022479 0.186001
H7    H     H_    0.266466 0.388947 0.890612 0.178824
H8    H     H_    0.730671 0.440341 0.098201 0.192058
N1    N     N_1   0.819370 0.500000 0.500010 -0.077670
N2    N     N_1   0.180630 0.500000 0.499990 -0.078441
O1    O     O_R   0.397470 0.665550 0.500010 -0.602868
O2    O     O_R   0.602530 0.334450 0.499990 -0.604483
O3    O     O_R   0.602530 0.665550 0.499990 -0.606190
O4    O     O_R   0.397470 0.334450 0.500010 -0.609447
O5    O     O_R   0.385350 0.500000 0.615800 -0.615564
O6    O     O_R   0.614650 0.500000 0.384200 -0.611568
O7    O     O_R   0.590410 0.500000 0.615800 -0.613555
O8    O     O_R   0.409590 0.500000 0.384200 -0.613321
Zn1   Zn    Zn3+2 0.363080 0.500000 0.500000 0.988614
Zn2   Zn    Zn3+2 0.636920 0.500000 0.500000 0.991396
F1    F     F_    0.342385 0.282195 0.134642 -0.667565
F2    F     F_    0.673805 0.490105 0.904132 -0.684605

loop_
_geom_bond_atom_site_label_1
_geom_bond_atom_site_label_2
_ccdc_geom_bond_type
C16   F1    S    
C2    C4    S    
C23   C24   D    
C10   O8    A    
O1    Zn1   S    
C2    O4    A    
O6    Zn2   S    
C9    O7    A    
C1    O3    A    
C9    C11   S    
C19   H7    S    
O3    Zn2   S    
C7    C8    S    
C8    N2    T    
C14   H2    S    
C11   C13   A    
C13   H1    S    
C17   C23   S    
C10   C12   S    
C18   C24   S    
C10   O6    A    
C19   C21   A    
C21   H4    S    
C12   C14   A    
C18   C20   A    
C22   H3    S    
C13   C15   A    
C5    C6    S    
O7    Zn2   S    
C14   C16   A    
O2    Zn2   S    
C4    C6    T    
O8    Zn1   S    
C7    N1    T    
C23   H6    S    
C12   C22   A    
O4    Zn1   S    
C1    O1    A    
C16   C18   A    
C20   H8    S    
C2    O2    A    
C1    C3    S    
C15   C17   A    
C24   H5    S    
O5    Zn1   S    
C15   F2    S    
C17   C19   A    
N1    Zn2   S    
C11   C21   A    
C9    O5    A    
N2    Zn1   S    
C20   C22   A    
C3    C5    T    
