data_mof_unit_31530.cif
_audit_creation_date              2012-12-10T18:48:21-0500
_audit_creation_method            fapswitch 2.2
_symmetry_space_group_name_H-M    P1
_symmetry_Int_Tables_number       1
_space_group_crystal_system       triclinic
_cell_length_a                    10.699716
_cell_length_b                    10.046501
_cell_length_c                    11.519023
_cell_angle_alpha                 90.089171
_cell_angle_beta                  94.67655
_cell_angle_gamma                 90.759879
_cell_volume                      1233.9988729

loop_
_atom_site_label
_atom_site_type_symbol
_atom_type_description
_atom_site_fract_x
_atom_site_fract_y
_atom_site_fract_z
_atom_type_partial_charge
C1    C     C_R   0.262879 0.499399 0.515034 0.913630
C2    C     C_R   0.943030 0.624782 0.527219 0.342916
C3    C     C_R   0.938396 0.385757 0.483446 0.372063
C4    C     C_R   0.070824 0.619844 0.553657 0.398198
C5    C     C_R   0.875395 0.506018 0.495596 -0.369364
C6    C     C_R   0.132434 0.498576 0.539735 -0.425978
C7    C     C_R   0.578416 0.072665 0.579071 0.178296
C8    C     C_R   0.429542 0.927370 0.415413 0.179889
C9    C     C_R   0.421663 0.070380 0.420886 0.171264
C10   C     C_R   0.570533 0.929475 0.584465 0.157553
C11   C     C_3   0.672534 0.146213 0.664079 -0.391530
C12   C     C_R   0.740097 0.501600 0.495249 0.963591
C13   C     C_3   0.810467 0.119880 0.644631 -0.740611
C14   C     C_3   0.366372 0.853742 0.311067 -0.321196
C15   C     C_3   0.449651 0.853892 0.208852 -0.843020
C16   C     C_3   0.329148 0.141935 0.335108 -0.368193
C17   C     C_3   0.190460 0.111914 0.350829 -0.805436
C18   C     C_3   0.634325 0.857535 0.688233 -0.298598
C19   C     C_3   0.551794 0.855489 0.790996 -0.850407
C20   C     C_R   0.499322 0.499866 0.282400 0.893913
C21   C     C_R   0.500827 0.500058 0.717626 0.866119
C22   C     C_1   0.499513 0.499571 0.161756 -0.183614
C23   C     C_1   0.500478 0.500025 0.838247 -0.185899
C24   C     C_1   0.499765 0.499648 0.059412 -0.010162
C25   C     C_1   0.500131 0.499884 0.940581 -0.010939
C26   C     C_R   0.063204 0.379303 0.525571 0.272211
H1    H     H_    0.179835 0.271212 0.620211 0.363087
H2    H     H_    0.547270 0.825733 0.237599 0.277697
H3    H     H_    0.410732 0.782699 0.141049 0.250209
H4    H     H_    0.453435 0.953793 0.168631 0.235719
H5    H     H_    0.337166 0.753213 0.334811 0.253504
H6    H     H_    0.275613 0.894821 0.279799 0.190666
H7    H     H_    0.178293 0.057645 0.433178 0.308340
H8    H     H_    0.137976 0.206330 0.349568 0.274462
H9    H     H_    0.145475 0.054110 0.276314 0.221769
H10   H     H_    0.338843 0.248692 0.343557 0.274393
H11   H     H_    0.349349 0.121016 0.244161 0.182482
H12   H     H_    0.843788 0.763768 0.456039 0.341599
H13   H     H_    0.453958 0.824779 0.762723 0.280193
H14   H     H_    0.591016 0.785295 0.858381 0.251871
H15   H     H_    0.548466 0.955296 0.831559 0.235446
H16   H     H_    0.662857 0.757700 0.663794 0.266363
H17   H     H_    0.725447 0.900937 0.719041 0.203402
H18   H     H_    0.935326 0.203684 0.422810 0.366427
H19   H     H_    0.203792 0.710312 0.647616 0.336053
H20   H     H_    0.820013 0.066399 0.561431 0.289456
H21   H     H_    0.863552 0.215269 0.645211 0.273122
H22   H     H_    0.857198 0.062464 0.717565 0.232424
H23   H     H_    0.662289 0.252917 0.658539 0.269141
H24   H     H_    0.654828 0.122919 0.755249 0.180497
N1    N     N_R   0.500000 0.857200 0.500000 -0.141651
N2    N     N_R   0.500000 0.142800 0.500000 -0.140787
O1    O     O_R   0.316770 0.614620 0.499990 -0.615786
O2    O     O_3   0.887378 0.747044 0.533867 -0.715330
O3    O     O_3   0.875444 0.276278 0.432997 -0.737066
O4    O     O_3   0.132439 0.735368 0.591923 -0.694947
O5    O     O_R   0.683230 0.385380 0.500010 -0.558803
O6    O     O_R   0.683230 0.614620 0.500010 -0.632313
O7    O     O_R   0.316770 0.385380 0.499990 -0.605466
O8    O     O_R   0.500020 0.614670 0.334450 -0.622894
O9    O     O_R   0.499980 0.385330 0.665550 -0.646361
O10   O     O_R   0.499980 0.614670 0.665550 -0.625094
O11   O     O_R   0.500020 0.385330 0.334450 -0.630025
O12   O     O_3   0.112744 0.257150 0.556602 -0.767841
Zn1   Zn    Zn3+2 0.500000 0.653120 0.500000 0.923287
Zn2   Zn    Zn3+2 0.500000 0.346880 0.500000 0.948060

loop_
_geom_bond_atom_site_label_1
_geom_bond_atom_site_label_2
_ccdc_geom_bond_type
C7    N2    A    
C13   H22   S    
C2    C4    A    
C11   H23   S    
C20   O8    A    
O1    Zn1   S    
C16   H11   S    
O6    Zn1   S    
C21   O9    A    
C17   H8    S    
H12   O2    S    
C14   H5    S    
C12   O6    A    
C1    O1    A    
C20   O11   A    
C21   C23   S    
C15   H2    S    
O11   Zn2   S    
C11   H24   S    
C18   H17   S    
C4    O4    S    
C7    C11   S    
C11   C13   S    
C8    N1    A    
C15   H4    S    
C21   O10   A    
C6    C26   A    
C9    N2    A    
C17   H7    S    
C10   C18   S    
H18   O3    S    
C10   N1    A    
C19   H13   S    
C9    C16   S    
C20   C22   S    
O8    Zn1   S    
C15   H3    S    
C18   H16   S    
O7    Zn2   S    
C2    O2    S    
C13   H20   S    
H1    O12   S    
C22   C24   T    
C2    C5    A    
C19   H14   S    
C12   O5    A    
C1    C6    S    
O5    Zn2   S    
C23   C25   T    
N2    Zn2   S    
C24   C25   S    
C5    C12   S    
C4    C6    A    
C18   C19   S    
N1    Zn1   S    
C7    C10   A    
C1    O7    A    
C13   H21   S    
C26   O12   S    
C14   C15   S    
C16   C17   S    
C8    C14   S    
C17   H9    S    
O10   Zn1   S    
C3    O3    S    
O9    Zn2   S    
C3    C26   A    
C16   H10   S    
C19   H15   S    
H19   O4    S    
C14   H6    S    
C8    C9    A    
C3    C5    A    
