data_mof_unit_64565.cif
_audit_creation_date              2012-12-11T16:03:07-0500
_audit_creation_method            fapswitch 2.2
_symmetry_space_group_name_H-M    P1
_symmetry_Int_Tables_number       1
_space_group_crystal_system       triclinic
_cell_length_a                    6.948333
_cell_length_b                    23.160495
_cell_length_c                    25.124075
_cell_angle_alpha                 106.648979
_cell_angle_beta                  89.783768
_cell_angle_gamma                 90.33348
_cell_volume                      3873.56641356

loop_
_atom_site_label
_atom_site_type_symbol
_atom_type_description
_atom_site_fract_x
_atom_site_fract_y
_atom_site_fract_z
_atom_type_partial_charge
O1    O     O_R   0.494320 0.441930 0.440920 -0.525185
O2    O     O_R   0.820780 0.446390 0.546550 -0.510903
O3    O     O_R   0.994330 0.558070 0.559080 -0.524528
C1    C     C_R   0.651762 0.434430 0.563378 0.800925
O4    O     O_R   0.823820 0.435090 0.440550 -0.526375
O5    O     O_R   0.997390 0.546680 0.452330 -0.543613
C2    C     C_R   0.654897 0.416722 0.418548 0.707183
O6    O     O_R   0.491260 0.453320 0.547670 -0.517640
O7    O     O_3   0.661870 0.536630 0.503990 -0.363019
V1    V     V_3+5 0.935460 0.493210 0.499260 1.461895
O8    O     O_R   0.327300 0.553610 0.453450 -0.505437
C3    C     C_R   0.159083 0.565445 0.436440 0.712606
O9    O     O_R   0.324250 0.564910 0.559450 -0.528836
C4    C     C_R   0.155343 0.583260 0.581463 0.728528
V2    V     V_3+5 0.435850 0.506790 0.500740 1.471872
O10   O     O_3   0.159570 0.463370 0.496010 -0.348620
C5    C     C_1   0.144778 0.635225 0.633548 -0.228581
C6    C     C_1   0.133362 0.677959 0.676907 -0.003383
C7    C     C_1   0.118349 0.728499 0.728400 -0.001007
C8    C     C_1   0.105359 0.771105 0.771820 -0.000962
C9    C     C_1   0.090276 0.821700 0.823274 0.001306
C10   C     C_1   0.078731 0.864525 0.866566 -0.212706
C11   C     C_R   0.220024 0.905968 0.143144 0.450117
C12   C     C_R   0.225006 0.869662 0.179650 -0.209926
H1    H     H_    0.333084 0.878639 0.211969 0.149705
C13   C     C_R   0.088381 0.823688 0.176006 -0.034584
C14   C     C_R   0.943812 0.814999 0.135469 -0.136540
H2    H     H_    0.836509 0.779923 0.131460 0.148691
C15   C     C_R   0.937598 0.850826 0.098991 -0.266816
H3    H     H_    0.826423 0.842167 0.067578 0.134669
C16   C     C_R   0.074055 0.896833 0.102452 -0.137040
N1    N     N_R   0.938298 0.756059 0.225505 -0.278382
N2    N     N_R   0.947071 0.721962 0.260222 -0.284853
C17   C     C_R   0.115572 0.715154 0.285116 0.534105
N3    N     N_R   0.274474 0.744219 0.273932 -0.275961
N4    N     N_R   0.265321 0.778719 0.239652 -0.281241
C18   C     C_R   0.097232 0.785325 0.214543 0.531258
C19   C     C_R   0.304137 0.653106 0.333926 -0.212571
H4    H     H_    0.433893 0.662755 0.313936 0.150501
C20   C     C_R   0.316668 0.615687 0.369176 0.469221
C21   C     C_R   0.150840 0.603709 0.397397 -0.162538
C22   C     C_R   0.974172 0.627942 0.387078 -0.225669
H5    H     H_    0.844968 0.620162 0.408157 0.200321
C23   C     C_R   0.961682 0.663106 0.350125 -0.124285
H6    H     H_    0.822866 0.680786 0.343339 0.158659
C24   C     C_R   0.126858 0.676600 0.323455 -0.048859
C25   C     C_R   0.486142 0.401757 0.640233 0.329098
C26   C     C_R   0.472706 0.363777 0.675134 0.368156
C27   C     C_R   0.619173 0.321514 0.674919 -0.286392
C28   C     C_R   0.775604 0.316299 0.637709 0.411194
C29   C     C_R   0.788817 0.354043 0.602564 0.071227
C30   C     C_R   0.642207 0.396302 0.602521 -0.285547
N5    N     N_R   0.775653 0.270005 0.737119 -0.216823
N6    N     N_R   0.770089 0.236252 0.772085 -0.288639
C31   C     C_R   0.600142 0.214819 0.785753 0.470407
N7    N     N_R   0.436086 0.228669 0.762812 -0.286649
N8    N     N_R   0.441720 0.262330 0.727747 -0.216792
C32   C     C_R   0.611696 0.283754 0.714111 0.578149
C33   C     C_R   0.416524 0.158347 0.841605 -0.135449
H7    H     H_    0.282265 0.171266 0.826616 0.137469
C34   C     C_R   0.409793 0.122674 0.878083 -0.161623
H8    H     H_    0.270374 0.109118 0.889868 0.119307
C35   C     C_R   0.580124 0.104460 0.898698 -0.051226
C36   C     C_R   0.757552 0.123177 0.881931 -0.162989
H9    H     H_    0.891605 0.110084 0.896901 0.119809
C37   C     C_R   0.764241 0.159105 0.845538 -0.134155
H10   H     H_    0.903390 0.172576 0.833502 0.134120
C38   C     C_R   0.593723 0.177048 0.824778 0.034805
C39   C     C_1   0.643888 0.364716 0.366509 -0.218461
C40   C     C_1   0.632445 0.321929 0.323186 -0.000611
C41   C     C_1   0.617656 0.271345 0.271719 0.001415
C42   C     C_1   0.604940 0.228721 0.228302 0.004141
C43   C     C_1   0.590184 0.178132 0.176837 0.009743
C44   C     C_1   0.578807 0.135338 0.133517 -0.201083
O11   O     O_R   0.731800 0.046750 0.952380 -0.536068
O12   O     O_R   0.399050 0.064920 0.059460 -0.515773
O13   O     O_R   0.225670 0.953300 0.047660 -0.513729
C45   C     C_R   0.567923 0.083320 0.081480 0.734542
O14   O     O_R   0.402270 0.053620 0.953470 -0.541203
O15   O     O_R   0.228900 0.941920 0.940910 -0.522755
C46   C     C_R   0.571346 0.065746 0.936893 0.688537
O16   O     O_R   0.728560 0.058130 0.059130 -0.524417
O17   O     O_3   0.561250 0.963410 0.996040 -0.362360
V3    V     V_3+5 0.287590 0.006790 0.000740 1.432170
O18   O     O_R   0.898990 0.935020 0.940500 -0.525119
C47   C     C_R   0.067974 0.916619 0.918561 0.712154
O19   O     O_R   0.895770 0.946320 0.046490 -0.550645
C48   C     C_R   0.064301 0.934829 0.063585 0.736794
V4    V     V_3+5 0.787210 0.993120 0.999190 1.395256
O20   O     O_3   0.063420 0.036580 0.003960 -0.360802
O21   O     O_3   0.343228 0.954910 0.151352 -0.559680
C49   C     C_3   0.531341 0.934109 0.136061 -0.180222
H11   H     H_    0.625055 0.973520 0.137722 0.156689
H12   H     H_    0.536068 0.903894 0.092725 0.129098
H13   H     H_    0.591601 0.911083 0.165447 0.133923
O22   O     O_3   0.308392 0.365789 0.706968 -0.501331
C50   C     C_3   0.340244 0.403598 0.761297 -0.119142
H14   H     H_    0.489696 0.401507 0.776640 0.085860
H15   H     H_    0.241987 0.389173 0.790028 0.167633
H16   H     H_    0.303205 0.450751 0.763665 0.124511
O23   O     O_3   0.921695 0.275488 0.636369 -0.512353
C51   C     C_3   0.864322 0.218386 0.602100 -0.165083
H17   H     H_    0.987044 0.186967 0.597892 0.169007
H18   H     H_    0.824882 0.219838 0.559622 0.098189
H19   H     H_    0.742474 0.199612 0.620765 0.132321
N9    N     N_3   0.951264 0.348484 0.566006 -0.600656
H20   H     H_    0.076879 0.354642 0.589785 0.296159
H21   H     H_    0.952582 0.305030 0.538574 0.221601
O24   O     O_3   0.493881 0.593171 0.377663 -0.557849
C52   C     C_3   0.531363 0.541317 0.333270 -0.257948
H22   H     H_    0.548550 0.552801 0.293433 0.139430
H23   H     H_    0.416855 0.506518 0.329495 0.121315
H24   H     H_    0.668695 0.521356 0.341650 0.154804
O25   O     O_3   0.341277 0.443323 0.642951 -0.526789
C53   C     C_3   0.405579 0.500869 0.674756 -0.188433
H25   H     H_    0.278067 0.529922 0.688761 0.145365
H26   H     H_    0.495999 0.522516 0.649336 0.119383
H27   H     H_    0.487219 0.499731 0.712510 0.093517

loop_
_geom_bond_atom_site_label_1
_geom_bond_atom_site_label_2
_ccdc_geom_bond_type
C25   O25   S    
C37   C38   A    
C31   N7    A    
O23   C51   S    
C14   C15   A    
C21   C22   A    
C7    C8    T    
O15   V3    S    
O12   V3    S    
O25   C53   S    
O18   C47   A    
C13   C14   A    
C3    C21   S    
O16   V4    S    
C22   C23   A    
C1    C30   S    
N4    C18   A    
C12   C13   A    
C6    C7    S    
O5    C3    A    
C19   H4    S    
N9    H20   S    
V2    O10   S    
C50   H14   S    
N7    N8    A    
C51   H19   S    
C5    C6    T    
C17   N3    A    
C43   C44   T    
C34   C35   A    
C52   H22   S    
O15   C47   A    
O8    V2    S    
C25   C26   A    
O13   C48   A    
C53   H26   S    
C11   C12   A    
C40   C41   S    
C17   C24   S    
O7    V1    S    
C34   H8    S    
C1    O6    A    
C37   H10   S    
C33   H7    S    
O9    C4    A    
C4    C5    S    
C51   H17   S    
V3    O20   S    
C50   H15   S    
C23   C24   A    
C31   C38   S    
O17   V4    S    
C33   C34   A    
C29   C30   A    
C12   H1    S    
O21   C49   S    
O4    C2    A    
O18   V4    S    
O11   C46   A    
O13   V3    S    
N5    N6    A    
C49   H13   S    
C27   C32   S    
N3    N4    A    
C36   C37   A    
O19   C48   A    
O2    C1    A    
C2    C39   S    
C15   H3    S    
C33   C38   A    
C45   O16   A    
O17   V3    S    
N5    C32   A    
C53   H27   S    
O22   C50   S    
C49   H12   S    
C28   C29   A    
N1    C18   A    
C51   H18   S    
C52   H24   S    
C20   O24   S    
O3    C4    A    
O1    V2    S    
C20   C21   A    
C35   C46   S    
O6    V2    S    
O19   V4    S    
C11   O21   S    
C22   H5    S    
O2    V1    S    
C50   H16   S    
C23   H6    S    
O14   C46   A    
N6    C31   A    
C26   C27   A    
C16   C48   S    
C26   O22   S    
O1    C2    A    
O12   C45   A    
C42   C43   S    
O5    V1    S    
O8    C3    A    
C13   C18   S    
C25   C30   A    
C36   H9    S    
O9    V2    S    
O7    V2    S    
C41   C42   T    
C15   C16   A    
O3    V1    S    
V1    O10   S    
O24   C52   S    
N1    N2    A    
C19   C20   A    
N8    C32   A    
O14   V3    S    
N9    H21   S    
C29   N9    S    
C49   H11   S    
N2    C17   A    
C10   C47   S    
C39   C40   T    
C52   H23   S    
C19   C24   A    
O11   V4    S    
C35   C36   A    
O4    V1    S    
C8    C9    S    
C28   O23   S    
C27   C28   A    
C44   C45   S    
C14   H2    S    
V4    O20   S    
C9    C10   T    
C53   H25   S    
C11   C16   A    
