data_mof_unit_66376.cif
_audit_creation_date              2013-03-05T16:23:05-0500
_audit_creation_method            fapswitch 2.2
_symmetry_space_group_name_H-M    P1
_symmetry_Int_Tables_number       1
_space_group_crystal_system       triclinic
_cell_length_a                    18.367357
_cell_length_b                    30.699236
_cell_length_c                    30.81019
_cell_angle_alpha                 90.015806
_cell_angle_beta                  90.060244
_cell_angle_gamma                 89.950796
_cell_volume                      17372.7349852

loop_
_atom_site_label
_atom_site_type_symbol
_atom_site_description
_atom_site_fract_x
_atom_site_fract_y
_atom_site_fract_z
_atom_type_partial_charge
O1    O     O_R   0.500000 0.731000 0.321180 -0.589614
O2    O     O_R   0.500000 0.731000 0.678820 -0.589793
O3    O     O_R   0.000000 0.231000 0.321180 -0.585364
O4    O     O_R   0.000000 0.231000 0.678820 -0.588986
O5    O     O_R   1.000000 0.731000 0.821180 -0.590221
O6    O     O_R   0.000000 0.731000 0.178820 -0.589814
O7    O     O_R   0.500000 0.231000 0.821180 -0.589093
O8    O     O_R   0.500000 0.231000 0.178820 -0.590913
O9    O     O_R   0.500000 0.678810 0.268980 -0.588468
O10   O     O_R   0.500000 0.678810 0.731020 -0.591300
O11   O     O_R   0.000000 0.178810 0.268980 -0.594903
O12   O     O_R   0.000000 0.178810 0.731020 -0.590237
O13   O     O_R   0.000000 0.678810 0.768980 -0.590298
O14   O     O_R   0.000000 0.678810 0.231020 -0.588499
O15   O     O_R   0.500000 0.178810 0.768980 -0.586476
O16   O     O_R   0.500000 0.178810 0.231020 -0.591267
C1    C     C_R   0.499487 0.690541 0.309226 0.781712
C2    C     C_R   0.499471 0.690522 0.690746 0.780387
C3    C     C_R   0.999954 0.190624 0.309203 0.785151
C4    C     C_R   0.999504 0.190529 0.690738 0.782429
C5    C     C_R   0.000419 0.690498 0.809294 0.779850
C6    C     C_R   0.999491 0.690535 0.190739 0.782435
C7    C     C_R   0.500145 0.190480 0.809354 0.779344
C8    C     C_R   0.500502 0.190488 0.190703 0.780225
O17   O     O_R   0.394200 0.776090 0.276090 -0.586353
O18   O     O_R   0.394200 0.776090 0.723910 -0.579730
O19   O     O_R   0.605800 0.776090 0.276090 -0.584134
O20   O     O_R   0.605800 0.776090 0.723910 -0.583353
O21   O     O_R   0.894200 0.276090 0.276090 -0.572831
O22   O     O_R   0.894200 0.276090 0.723910 -0.575760
O23   O     O_R   0.105800 0.276090 0.276090 -0.589722
O24   O     O_R   0.105800 0.276090 0.723910 -0.593862
O25   O     O_R   0.894200 0.776090 0.776090 -0.583967
O26   O     O_R   0.894200 0.776090 0.223910 -0.581365
O27   O     O_R   0.105800 0.776090 0.776090 -0.579841
O28   O     O_R   0.105800 0.776090 0.223910 -0.588232
O29   O     O_R   0.394200 0.276090 0.776090 -0.574919
O30   O     O_R   0.394200 0.276090 0.223910 -0.575237
O31   O     O_R   0.605800 0.276090 0.776090 -0.596482
O32   O     O_R   0.605800 0.276090 0.223910 -0.587841
O33   O     O_R   0.394210 0.723900 0.223890 -0.584059
O34   O     O_R   0.394210 0.723900 0.776110 -0.568199
O35   O     O_R   0.605790 0.723900 0.223890 -0.562960
O36   O     O_R   0.605790 0.723900 0.776110 -0.584720
O37   O     O_R   0.894210 0.223900 0.223890 -0.591715
O38   O     O_R   0.894210 0.223900 0.776110 -0.588051
O39   O     O_R   0.105790 0.223900 0.223890 -0.563404
O40   O     O_R   0.105790 0.223900 0.776110 -0.560198
O41   O     O_R   0.894210 0.723900 0.723890 -0.583988
O42   O     O_R   0.894210 0.723900 0.276110 -0.568366
O43   O     O_R   0.105790 0.723900 0.723890 -0.569817
O44   O     O_R   0.105790 0.723900 0.276110 -0.580469
O45   O     O_R   0.394210 0.223900 0.723890 -0.589016
O46   O     O_R   0.394210 0.223900 0.276110 -0.588820
O47   O     O_R   0.605790 0.223900 0.723890 -0.557240
O48   O     O_R   0.605790 0.223900 0.276110 -0.565527
C9    C     C_R   0.360264 0.750009 0.249973 0.831263
C10   C     C_R   0.360270 0.749849 0.749837 0.886174
C11   C     C_R   0.639736 0.749849 0.250141 0.886978
C12   C     C_R   0.639729 0.750004 0.750047 0.830722
C13   C     C_R   0.860265 0.250003 0.249969 0.829171
C14   C     C_R   0.860270 0.250034 0.750021 0.829542
C15   C     C_R   0.139736 0.249807 0.250193 0.890183
C16   C     C_R   0.139730 0.249836 0.749876 0.888507
C17   C     C_R   0.860265 0.750010 0.749976 0.832354
C18   C     C_R   0.860269 0.749887 0.249873 0.885326
C19   C     C_R   0.139736 0.749784 0.750204 0.890721
C20   C     C_R   0.139729 0.749992 0.250034 0.834735
C21   C     C_R   0.360264 0.249989 0.749986 0.830613
C22   C     C_R   0.360270 0.250032 0.250023 0.831092
C23   C     C_R   0.639737 0.249875 0.750123 0.887968
C24   C     C_R   0.639730 0.249780 0.249817 0.891135
Cu1   Cu    Cu3+1 0.500000 0.780890 0.280900 0.968650
Cu2   Cu    Cu3+1 0.500000 0.780890 0.719100 0.982513
Cu3   Cu    Cu3+1 0.000000 0.280890 0.280900 0.983159
Cu4   Cu    Cu3+1 0.000000 0.280890 0.719100 0.971470
Cu5   Cu    Cu3+1 0.000000 0.780890 0.780900 0.977976
Cu6   Cu    Cu3+1 1.000000 0.780890 0.219100 0.966464
Cu7   Cu    Cu3+1 0.500000 0.280890 0.780900 0.967597
Cu8   Cu    Cu3+1 0.500000 0.280890 0.219100 0.978866
Cu9   Cu    Cu3+1 0.500000 0.719080 0.219090 0.994997
Cu10  Cu    Cu3+1 0.500000 0.719080 0.780910 0.983733
Cu11  Cu    Cu3+1 0.000000 0.219080 0.219090 0.979321
Cu12  Cu    Cu3+1 0.000000 0.219080 0.780910 0.990807
Cu13  Cu    Cu3+1 0.000000 0.719080 0.719090 0.985001
Cu14  Cu    Cu3+1 0.000000 0.719080 0.280910 0.991919
Cu15  Cu    Cu3+1 0.500000 0.219080 0.719090 0.994435
Cu16  Cu    Cu3+1 0.500000 0.219080 0.280910 0.983031
O49   O     O_R   0.500000 0.821170 0.231010 -0.586460
O50   O     O_R   0.500000 0.821170 0.768990 -0.579725
O51   O     O_R   0.000000 0.321170 0.231010 -0.581408
O52   O     O_R   0.000000 0.321170 0.768990 -0.584119
O53   O     O_R   0.000000 0.821170 0.731010 -0.581744
O54   O     O_R   0.000000 0.821170 0.268990 -0.586736
O55   O     O_R   0.500000 0.321170 0.731010 -0.587748
O56   O     O_R   0.500000 0.321170 0.268990 -0.580823
O57   O     O_R   0.500000 0.768980 0.178810 -0.571184
O58   O     O_R   0.500000 0.768980 0.821190 -0.575889
O59   O     O_R   0.000000 0.268980 0.178810 -0.577138
O60   O     O_R   0.000000 0.268980 0.821190 -0.572095
O61   O     O_R   0.000000 0.768980 0.678810 -0.577341
O62   O     O_R   0.000000 0.768980 0.321190 -0.574150
O63   O     O_R   0.500000 0.268980 0.678810 -0.571778
O64   O     O_R   0.500000 0.268980 0.321190 -0.577285
C25   C     C_R   0.501672 0.809295 0.190777 0.865385
C26   C     C_R   0.498139 0.809230 0.809188 0.859594
C27   C     C_R   0.001707 0.309257 0.190791 0.863377
C28   C     C_R   0.001499 0.309260 0.809212 0.862173
C29   C     C_R   0.001606 0.809251 0.690795 0.864300
C30   C     C_R   0.997884 0.809348 0.309325 0.861238
C31   C     C_R   0.501681 0.309278 0.690771 0.865091
C32   C     C_R   0.501568 0.309265 0.309203 0.863092
C33   C     C_1   0.282665 0.749984 0.250005 -0.173352
C34   C     C_1   0.282670 0.749897 0.749911 -0.128228
C35   C     C_1   0.717336 0.749912 0.250051 -0.129569
C36   C     C_1   0.717329 0.749985 0.750054 -0.174029
C37   C     C_1   0.782667 0.249936 0.249958 -0.166469
C38   C     C_1   0.782672 0.250040 0.750012 -0.164644
C39   C     C_1   0.217339 0.249917 0.250120 -0.135284
C40   C     C_1   0.217331 0.249863 0.749944 -0.139464
C41   C     C_1   0.782665 0.749994 0.750013 -0.173930
C42   C     C_1   0.782668 0.749935 0.249925 -0.129695
C43   C     C_1   0.217339 0.749861 0.750084 -0.125584
C44   C     C_1   0.217328 0.749970 0.250040 -0.174220
C45   C     C_1   0.282666 0.249933 0.749986 -0.169147
C46   C     C_1   0.282672 0.250022 0.250036 -0.168186
C47   C     C_1   0.717338 0.249966 0.750062 -0.135449
C48   C     C_1   0.717333 0.249833 0.249897 -0.133217
C49   C     C_R   0.560333 0.650557 0.368207 0.095192
C50   C     C_R   0.556129 0.654421 0.627800 0.100669
C51   C     C_R   0.048342 0.157070 0.375788 0.119980
C52   C     C_R   0.056220 0.154373 0.627822 0.095927
C53   C     C_R   0.947426 0.656958 0.874915 0.101990
C54   C     C_R   0.057020 0.653715 0.128499 0.100024
C55   C     C_R   0.471177 0.116192 0.834944 0.146734
C56   C     C_R   0.449402 0.157853 0.123997 0.108611
C57   C     C_R   0.499760 0.656547 0.341650 -0.061611
C58   C     C_R   0.500162 0.656515 0.658233 -0.065391
C59   C     C_R   0.998704 0.157188 0.341938 -0.075332
C60   C     C_R   0.000142 0.156559 0.658187 -0.066652
C61   C     C_R   0.999306 0.656479 0.841897 -0.072299
C62   C     C_R   0.000026 0.656580 0.158186 -0.065475
C63   C     C_R   0.503592 0.156676 0.842285 -0.082470
C64   C     C_R   0.499353 0.156431 0.158099 -0.074174
C65   C     C_R   0.443083 0.625884 0.343147 -0.207283
C66   C     C_R   0.448820 0.622626 0.659748 -0.212953
C67   C     C_R   0.947570 0.122954 0.340305 -0.222960
C68   C     C_R   0.948548 0.122810 0.659572 -0.202571
C69   C     C_R   0.045776 0.620233 0.838222 -0.196657
C70   C     C_R   0.947460 0.623359 0.159063 -0.207285
C71   C     C_R   0.542814 0.163130 0.880986 -0.202565
C72   C     C_R   0.543625 0.119297 0.162755 -0.207364
H1    H     H_    0.397575 0.628167 0.320862 0.153510
H2    H     H_    0.407188 0.622163 0.684625 0.153586
H3    H     H_    0.907656 0.121532 0.314439 0.156266
H4    H     H_    0.906739 0.122456 0.684346 0.158132
H5    H     H_    0.083853 0.617765 0.811504 0.154619
H6    H     H_    0.904932 0.623458 0.183401 0.154891
H7    H     H_    0.572056 0.193231 0.886629 0.160076
H8    H     H_    0.580101 0.116149 0.190230 0.154542
C73   C     C_R   0.442954 0.593629 0.375341 -0.211450
C74   C     C_R   0.448332 0.590620 0.627321 -0.213654
C75   C     C_R   0.947131 0.090712 0.372932 -0.194584
C76   C     C_R   0.948033 0.090823 0.627132 -0.215571
C77   C     C_R   0.046418 0.588307 0.870719 -0.217161
C78   C     C_R   0.947041 0.591322 0.126664 -0.214703
C79   C     C_R   0.542788 0.130912 0.913202 -0.207361
C80   C     C_R   0.544278 0.087277 0.130337 -0.222118
H9    H     H_    0.397238 0.571469 0.377438 0.188694
H10   H     H_    0.406334 0.565877 0.627612 0.190667
H11   H     H_    0.906959 0.064939 0.371540 0.170250
H12   H     H_    0.905757 0.066258 0.627266 0.188262
H13   H     H_    0.084669 0.561521 0.868552 0.159788
H14   H     H_    0.904122 0.567154 0.126415 0.189604
H15   H     H_    0.571963 0.136576 0.943255 0.148868
H16   H     H_    0.580942 0.059776 0.133284 0.150835
C81   C     C_R   0.500755 0.591093 0.405248 -0.100966
C82   C     C_R   0.500956 0.591452 0.594240 -0.092015
C83   C     C_R   0.999450 0.091675 0.406548 -0.089837
C84   C     C_R   0.000926 0.091487 0.594199 -0.091648
C85   C     C_R   0.998746 0.591727 0.906194 -0.094758
C86   C     C_R   0.000914 0.591424 0.094276 -0.097174
C87   C     C_R   0.501502 0.092827 0.907478 -0.079766
C88   C     C_R   0.498724 0.091526 0.093942 -0.072427
C89   C     C_R   0.561085 0.618146 0.399284 0.147248
C90   C     C_R   0.556945 0.622116 0.596557 0.143003
C91   C     C_R   0.049727 0.125330 0.406048 0.117808
C92   C     C_R   0.057072 0.122035 0.596612 0.147117
C93   C     C_R   0.946436 0.624729 0.906202 0.126933
C94   C     C_R   0.057939 0.621331 0.097361 0.142433
C95   C     C_R   0.469449 0.084995 0.867219 0.074967
C96   C     C_R   0.448338 0.125556 0.092768 0.141502
C97   C     C_3   0.599889 0.646464 0.431212 -0.467110
C98   C     C_3   0.583478 0.652786 0.562458 -0.484224
C99   C     C_3   0.113162 0.144446 0.429371 -0.465231
C100  C     C_3   0.084049 0.152576 0.562521 -0.488221
C101  C     C_3   0.927339 0.656302 0.941275 -0.475661
C102  C     C_3   0.087570 0.651402 0.063633 -0.470589
C103  C     C_3   0.393767 0.071413 0.856101 -0.452211
C104  C     C_3   0.433030 0.157357 0.057236 -0.490457
C105  C     C_3   0.599027 0.682060 0.396948 -0.466731
C106  C     C_3   0.582818 0.688197 0.596892 -0.452808
C107  C     C_3   0.111962 0.180464 0.394521 -0.475446
C108  C     C_3   0.083156 0.188066 0.596886 -0.453476
C109  C     C_3   0.928665 0.691740 0.906848 -0.447920
C110  C     C_3   0.086343 0.687007 0.097904 -0.457057
C111  C     C_3   0.395536 0.105695 0.820516 -0.463994
C112  C     C_3   0.434452 0.192874 0.091601 -0.444093
H17   H     H_    0.565923 0.654265 0.459985 0.188075
H18   H     H_    0.542577 0.658160 0.536393 0.188014
H19   H     H_    0.655489 0.634224 0.438649 0.206058
H20   H     H_    0.639103 0.644358 0.551004 0.205841
H21   H     H_    0.098504 0.156299 0.462278 0.191576
H22   H     H_    0.043549 0.157902 0.536192 0.190425
H23   H     H_    0.162084 0.123178 0.427739 0.210723
H24   H     H_    0.139791 0.144040 0.551351 0.203979
H25   H     H_    0.872083 0.650279 0.954658 0.206331
H26   H     H_    0.048680 0.657152 0.036544 0.187150
H27   H     H_    0.971170 0.659709 0.965966 0.188578
H28   H     H_    0.143525 0.642115 0.053481 0.208693
H29   H     H_    0.391697 0.037544 0.843391 0.202681
H30   H     H_    0.378233 0.152412 0.042713 0.210337
H31   H     H_    0.354107 0.078864 0.882326 0.214489
H32   H     H_    0.478380 0.159761 0.033454 0.192478
H33   H     H_    0.564687 0.710508 0.405953 0.214893
H34   H     H_    0.541915 0.714166 0.590558 0.214665
H35   H     H_    0.654126 0.690240 0.384501 0.201394
H36   H     H_    0.638141 0.700026 0.605546 0.198912
H37   H     H_    0.096948 0.213075 0.407404 0.210350
H38   H     H_    0.042308 0.214026 0.590391 0.215869
H39   H     H_    0.159944 0.179780 0.372571 0.195222
H40   H     H_    0.138423 0.199909 0.605648 0.197987
H41   H     H_    0.874181 0.706168 0.900440 0.198320
H42   H     H_    0.046600 0.713400 0.090743 0.214162
H43   H     H_    0.973411 0.715672 0.911527 0.213545
H44   H     H_    0.141587 0.698247 0.107475 0.201818
H45   H     H_    0.394386 0.091560 0.787304 0.208080
H46   H     H_    0.380498 0.208437 0.096812 0.203530
H47   H     H_    0.356838 0.133030 0.826018 0.195943
H48   H     H_    0.480782 0.215859 0.087831 0.211798
C113  C     C_R   0.452998 0.874566 0.156162 -0.053781
C114  C     C_R   0.548797 0.873365 0.843971 -0.067735
C115  C     C_R   0.949970 0.372482 0.154433 -0.086198
C116  C     C_R   0.953177 0.374871 0.842755 -0.038537
C117  C     C_R   0.948975 0.871808 0.653821 -0.088656
C118  C     C_R   0.053414 0.871302 0.346261 -0.071600
C119  C     C_R   0.452811 0.374420 0.656106 -0.057769
C120  C     C_R   0.449524 0.372303 0.345729 -0.085958
C121  C     C_R   0.505971 0.842435 0.157704 -0.112090
C122  C     C_R   0.494384 0.842327 0.842169 -0.105371
C123  C     C_R   0.005698 0.342271 0.157676 -0.098527
C124  C     C_R   0.005654 0.342518 0.842096 -0.117354
C125  C     C_R   0.005539 0.842248 0.657686 -0.097255
C126  C     C_R   0.995298 0.842271 0.343048 -0.103146
C127  C     C_R   0.505852 0.342353 0.657648 -0.113939
C128  C     C_R   0.505576 0.342320 0.342286 -0.098047
C129  C     C_R   0.560760 0.842810 0.124875 -0.038521
C130  C     C_R   0.438435 0.844074 0.874100 -0.040448
C131  C     C_R   0.062651 0.344072 0.126252 -0.039567
C132  C     C_R   0.061017 0.343793 0.874476 -0.043207
C133  C     C_R   0.063366 0.844666 0.626887 -0.038641
C134  C     C_R   0.941846 0.841741 0.376477 -0.029832
C135  C     C_R   0.560586 0.342736 0.624787 -0.041995
C136  C     C_R   0.562956 0.344391 0.373477 -0.040775
C137  C     C_R   0.557734 0.875157 0.092142 -0.226675
C138  C     C_R   0.441627 0.876881 0.906277 -0.205720
C139  C     C_R   0.059668 0.376388 0.093496 -0.206761
C140  C     C_R   0.057977 0.376732 0.906533 -0.219126
C141  C     C_R   0.060441 0.876986 0.594139 -0.211716
C142  C     C_R   0.945266 0.873519 0.409366 -0.233421
C143  C     C_R   0.557562 0.375130 0.592100 -0.223912
C144  C     C_R   0.560006 0.376677 0.406261 -0.206371
H49   H     H_    0.599396 0.876148 0.067274 0.194020
H50   H     H_    0.399332 0.878607 0.930723 0.199659
H51   H     H_    0.103166 0.378597 0.069862 0.199084
H52   H     H_    0.099189 0.377734 0.931719 0.200549
H53   H     H_    0.104576 0.879652 0.570978 0.196114
H54   H     H_    0.903196 0.874861 0.433982 0.187957
H55   H     H_    0.599139 0.376094 0.567182 0.199850
H56   H     H_    0.603824 0.379091 0.429721 0.199316
C145  C     C_R   0.501497 0.906444 0.091529 -0.143430
C146  C     C_R   0.498798 0.907563 0.907093 -0.140584
C147  C     C_R   0.001234 0.406138 0.091336 -0.147520
C148  C     C_R   0.001957 0.408259 0.906478 -0.138325
C149  C     C_R   0.001247 0.906148 0.591377 -0.143705
C150  C     C_R   0.000461 0.905084 0.409371 -0.106614
C151  C     C_R   0.501508 0.406539 0.591638 -0.144939
C152  C     C_R   0.501155 0.406102 0.408706 -0.145634
C153  C     C_R   0.450196 0.904642 0.124262 0.039703
C154  C     C_R   0.551550 0.904628 0.874849 -0.037971
C155  C     C_R   0.946997 0.402344 0.122228 -0.057746
C156  C     C_R   0.951650 0.406876 0.872760 0.040835
C157  C     C_R   0.946162 0.901718 0.621654 -0.056857
C158  C     C_R   0.056429 0.901798 0.379129 0.009152
C159  C     C_R   0.450272 0.404726 0.624412 0.041125
C160  C     C_R   0.446525 0.402067 0.378028 -0.058514
C161  C     C_3   0.382031 0.925250 0.141732 0.936176
C162  C     C_3   0.622092 0.922641 0.856367 0.929663
C163  C     C_3   0.875868 0.421021 0.139029 0.989652
C164  C     C_3   0.880841 0.424922 0.855614 0.903441
C165  C     C_3   0.873955 0.919573 0.637692 0.991993
C166  C     C_3   0.088272 0.935886 0.349490 0.927564
C167  C     C_3   0.382713 0.425648 0.642326 0.937315
C168  C     C_3   0.374487 0.420124 0.361844 0.989363
C169  C     C_3   0.385388 0.890194 0.178032 -0.572267
C170  C     C_3   0.617736 0.885901 0.822110 -0.465718
C171  C     C_3   0.880458 0.386299 0.175533 -0.526542
C172  C     C_3   0.882521 0.386828 0.822664 -0.521552
C173  C     C_3   0.878367 0.884783 0.674138 -0.528172
C174  C     C_3   0.084347 0.901815 0.313179 -0.541060
C175  C     C_3   0.385527 0.390168 0.678228 -0.566759
C176  C     C_3   0.379235 0.385613 0.325138 -0.527247
H57   H     H_    0.396110 0.903210 0.211064 0.193316
H58   H     H_    0.660320 0.860339 0.824742 0.164685
H59   H     H_    0.341333 0.865438 0.176322 0.189553
H60   H     H_    0.607813 0.897465 0.788414 0.211657
H61   H     H_    0.889569 0.399792 0.208558 0.199476
H62   H     H_    0.888901 0.397088 0.788278 0.206863
H63   H     H_    0.838010 0.360589 0.174135 0.180859
H64   H     H_    0.840742 0.361287 0.828389 0.174453
H65   H     H_    0.885926 0.898239 0.707315 0.200688
H66   H     H_    0.138213 0.890857 0.300971 0.177762
H67   H     H_    0.836776 0.858615 0.672134 0.180478
H68   H     H_    0.044348 0.909731 0.287217 0.202544
H69   H     H_    0.396451 0.402703 0.711417 0.194408
H70   H     H_    0.387387 0.399366 0.292147 0.199515
H71   H     H_    0.341075 0.365687 0.676245 0.189130
H72   H     H_    0.337441 0.359531 0.326657 0.180640
O65   O     O_R   0.438730 0.954890 0.954890 -0.580926
O66   O     O_R   0.438730 0.954890 0.045110 -0.542215
O67   O     O_R   0.561270 0.954890 0.954890 -0.600016
O68   O     O_R   0.561270 0.954890 0.045110 -0.597491
O69   O     O_R   0.938730 0.454890 0.954890 -0.569270
O70   O     O_R   0.938730 0.454890 0.045110 -0.565054
O71   O     O_R   0.061270 0.454890 0.954890 -0.589973
O72   O     O_R   0.061270 0.454890 0.045110 -0.587534
O73   O     O_R   0.938730 0.954890 0.454890 -0.589778
O74   O     O_R   0.938730 0.954890 0.545110 -0.570197
O75   O     O_R   0.061270 0.954890 0.454890 -0.583581
O76   O     O_R   0.061270 0.954890 0.545110 -0.592673
O77   O     O_R   0.438730 0.454890 0.454890 -0.568011
O78   O     O_R   0.438730 0.454890 0.545110 -0.549563
O79   O     O_R   0.561270 0.454890 0.454890 -0.589087
O80   O     O_R   0.561270 0.454890 0.545110 -0.594939
C177  C     C_R   0.499979 0.940822 0.940279 0.791973
C178  C     C_R   0.500146 0.940260 0.059076 0.818946
C179  C     C_R   0.000110 0.441032 0.940099 0.796916
C180  C     C_R   0.000107 0.440181 0.059035 0.807734
C181  C     C_R   0.000040 0.940191 0.440831 0.845386
C182  C     C_R   0.000108 0.940191 0.559058 0.796828
C183  C     C_R   0.500068 0.440128 0.441021 0.799842
C184  C     C_R   0.500149 0.440360 0.559184 0.811360
O81   O     O_R   0.438760 0.545060 0.454900 -0.575317
O82   O     O_R   0.438760 0.545060 0.545100 -0.577052
O83   O     O_R   0.561240 0.545060 0.454900 -0.586701
O84   O     O_R   0.561240 0.545060 0.545100 -0.587820
O85   O     O_R   0.938760 0.045060 0.454900 -0.586749
O86   O     O_R   0.938760 0.045060 0.545100 -0.572186
O87   O     O_R   0.061240 0.045060 0.454900 -0.578287
O88   O     O_R   0.061240 0.045060 0.545100 -0.588851
O89   O     O_R   0.938760 0.545060 0.954900 -0.601462
O90   O     O_R   0.938760 0.545060 0.045100 -0.573451
O91   O     O_R   0.061240 0.545060 0.954900 -0.581983
O92   O     O_R   0.061240 0.545060 0.045100 -0.583735
O93   O     O_R   0.438760 0.045060 0.954900 -0.584280
O94   O     O_R   0.438760 0.045060 0.045100 -0.571348
O95   O     O_R   0.561240 0.045060 0.954900 -0.600808
O96   O     O_R   0.561240 0.045060 0.045100 -0.588776
C185  C     C_R   0.500027 0.559371 0.440310 0.787687
C186  C     C_R   0.500067 0.559454 0.559546 0.790536
C187  C     C_R   0.999935 0.059177 0.440373 0.824894
C188  C     C_R   0.000062 0.059470 0.559527 0.788832
C189  C     C_R   0.999882 0.559684 0.940738 0.772612
C190  C     C_R   0.000062 0.559461 0.059543 0.792535
C191  C     C_R   0.500070 0.059838 0.940973 0.775439
C192  C     C_R   0.499897 0.059425 0.059495 0.793318
Cu17  Cu    Cu3+1 0.427490 0.999980 0.000000 0.995358
Cu18  Cu    Cu3+1 0.572510 0.999980 0.000000 0.946463
Cu19  Cu    Cu3+1 0.927490 0.499980 0.000000 0.992477
Cu20  Cu    Cu3+1 0.072510 0.499980 0.000000 0.963188
Cu21  Cu    Cu3+1 0.927490 0.999980 0.500000 1.000884
Cu22  Cu    Cu3+1 0.072510 0.999980 0.500000 0.970482
Cu23  Cu    Cu3+1 0.427490 0.499980 0.500000 1.022294
Cu24  Cu    Cu3+1 0.572510 0.499980 0.500000 0.961451
C193  C     C_2   0.622760 0.811646 0.124218 0.848887
O97   O     O_2   0.643835 0.794366 0.157673 -0.611195
O98   O     O_R   0.658799 0.803024 0.085171 -0.767830
H73   H     H_    0.700504 0.781671 0.088825 0.336692
C194  C     C_2   0.375347 0.813729 0.874499 0.845209
O99   O     O_2   0.355563 0.795581 0.841227 -0.609989
O100  O     O_R   0.336911 0.806827 0.913059 -0.761817
H74   H     H_    0.294732 0.785879 0.909251 0.338279
C195  C     C_2   0.126741 0.314444 0.127113 0.842959
O101  O     O_2   0.145818 0.296966 0.160878 -0.611872
O102  O     O_R   0.166879 0.307442 0.089182 -0.757276
H75   H     H_    0.209588 0.287014 0.093840 0.337224
C196  C     C_2   0.122971 0.312592 0.875706 0.848413
O103  O     O_2   0.143418 0.294319 0.842655 -0.609351
O104  O     O_R   0.159669 0.305053 0.914799 -0.757011
H76   H     H_    0.201246 0.283553 0.911542 0.339526
C197  C     C_2   0.128199 0.815648 0.628361 0.842476
O105  O     O_2   0.146477 0.798057 0.662219 -0.613152
O106  O     O_R   0.169910 0.809338 0.590916 -0.766029
H77   H     H_    0.212975 0.789279 0.595978 0.338292
C198  C     C_2   0.879084 0.811150 0.376696 0.847070
O107  O     O_2   0.856394 0.795386 0.342867 -0.612645
O108  O     O_R   0.844217 0.801370 0.415838 -0.769636
H78   H     H_    0.801862 0.780571 0.411900 0.333960
C199  C     C_2   0.622541 0.311541 0.624057 0.849653
O109  O     O_2   0.643709 0.294254 0.657487 -0.610438
O110  O     O_R   0.658431 0.302900 0.584966 -0.754496
H79   H     H_    0.700118 0.281526 0.588568 0.341099
C200  C     C_2   0.627389 0.315044 0.372372 0.844315
O111  O     O_2   0.646142 0.297583 0.338549 -0.610939
O112  O     O_R   0.668203 0.308287 0.410137 -0.755420
H80   H     H_    0.711083 0.288037 0.405319 0.341377
O113  O     O_3   0.386837 0.969467 0.156443 -0.592534
C201  C     C_3   0.456808 0.982116 0.170902 -0.361312
H81   H     H_    0.494422 0.986081 0.142997 0.156465
H82   H     H_    0.479743 0.959055 0.195095 0.162979
H83   H     H_    0.452199 0.014343 0.186955 0.208848
O114  O     O_3   0.686712 0.920746 0.882267 -0.579151
C202  C     C_3   0.687780 0.886173 0.912644 -0.339070
H84   H     H_    0.676672 0.854073 0.897457 0.154650
H85   H     H_    0.648984 0.892241 0.939506 0.190431
H86   H     H_    0.742972 0.884409 0.927172 0.201082
O115  O     O_3   0.323767 0.918724 0.112269 -0.579913
C203  C     C_3   0.257729 0.934149 0.129991 -0.240212
H87   H     H_    0.256450 0.970345 0.130002 0.198783
H88   H     H_    0.247872 0.921462 0.163291 0.142562
H89   H     H_    0.212268 0.922756 0.109171 0.170917
O116  O     O_3   0.614689 0.963306 0.835013 -0.593501
C204  C     C_3   0.602186 0.997216 0.864858 -0.205369
H90   H     H_    0.640509 0.996366 0.892813 0.205603
H91   H     H_    0.544791 0.996564 0.875922 0.127462
H92   H     H_    0.610589 0.028731 0.848000 0.176747
O117  O     O_3   0.877172 0.464520 0.155620 -0.560619
C205  C     C_3   0.946448 0.479306 0.169296 -0.360235
H93   H     H_    0.981659 0.486281 0.140870 0.161999
H94   H     H_    0.973517 0.456099 0.191785 0.169466
H95   H     H_    0.939205 0.510328 0.187235 0.202065
O118  O     O_3   0.886635 0.465675 0.833949 -0.615482
C206  C     C_3   0.905559 0.499260 0.862966 -0.276243
H96   H     H_    0.963808 0.496701 0.872179 0.139141
H97   H     H_    0.869953 0.499802 0.892096 0.205361
H98   H     H_    0.898401 0.530927 0.846163 0.186088
O119  O     O_3   0.813094 0.415837 0.112034 -0.552215
C207  C     C_3   0.815559 0.379669 0.083535 -0.322559
H99   H     H_    0.828337 0.348754 0.100614 0.149035
H100  H     H_    0.854885 0.385377 0.056824 0.186948
H101  H     H_    0.761075 0.375752 0.068491 0.198177
O120  O     O_3   0.823704 0.422026 0.886460 -0.597182
C208  C     C_3   0.756379 0.433355 0.867336 -0.282657
H102  H     H_    0.754476 0.468586 0.859161 0.187761
H103  H     H_    0.712520 0.427063 0.891238 0.180260
H104  H     H_    0.744316 0.413443 0.838062 0.157755
O121  O     O_3   0.873488 0.963031 0.654405 -0.556365
C209  C     C_3   0.941800 0.978368 0.669176 -0.356926
H105  H     H_    0.977987 0.985817 0.641309 0.160608
H106  H     H_    0.968563 0.955296 0.691927 0.167832
H107  H     H_    0.933025 0.009206 0.687185 0.201382
O122  O     O_3   0.160224 0.950970 0.359501 -0.590731
C210  C     C_3   0.204024 0.920428 0.381918 -0.347415
H108  H     H_    0.206431 0.888510 0.365003 0.156369
H109  H     H_    0.184749 0.916284 0.415830 0.186747
H110  H     H_    0.260387 0.933263 0.383516 0.198223
O123  O     O_3   0.812226 0.913820 0.609964 -0.552070
C211  C     C_3   0.816755 0.877835 0.581323 -0.319695
H111  H     H_    0.830016 0.846988 0.598394 0.150549
H112  H     H_    0.856705 0.884143 0.555076 0.183160
H113  H     H_    0.762884 0.873358 0.565663 0.199236
O124  O     O_3   0.038087 0.970594 0.343678 -0.610096
C212  C     C_3   0.065839 0.002057 0.314687 -0.252572
H114  H     H_    0.087401 0.987170 0.284375 0.149268
H115  H     H_    0.108542 0.021995 0.330772 0.204431
H116  H     H_    0.020943 0.024385 0.305388 0.175068
O125  O     O_3   0.388848 0.469640 0.657516 -0.601673
C213  C     C_3   0.458984 0.481175 0.672655 -0.387656
H117  H     H_    0.496854 0.485854 0.644974 0.167312
H118  H     H_    0.481385 0.457127 0.696050 0.170132
H119  H     H_    0.454933 0.512764 0.689955 0.205299
O126  O     O_3   0.374012 0.463684 0.345421 -0.559770
C214  C     C_3   0.442679 0.479586 0.332039 -0.353643
H120  H     H_    0.470444 0.457032 0.309208 0.167749
H121  H     H_    0.477703 0.486617 0.360576 0.161054
H122  H     H_    0.434251 0.510797 0.314616 0.202745
O127  O     O_3   0.324076 0.419993 0.612952 -0.585586
C215  C     C_3   0.258598 0.435850 0.631020 -0.242120
H123  H     H_    0.258331 0.472051 0.631491 0.197499
H124  H     H_    0.248615 0.422829 0.664178 0.147563
H125  H     H_    0.212693 0.425178 0.610166 0.171581
O128  O     O_3   0.312491 0.414140 0.389232 -0.552123
C216  C     C_3   0.316765 0.377953 0.417613 -0.322267
H126  H     H_    0.356486 0.384076 0.444080 0.186057
H127  H     H_    0.330163 0.347230 0.400356 0.148840
H128  H     H_    0.262757 0.373369 0.433003 0.198397

loop_
_geom_bond_atom_site_label_1
_geom_bond_atom_site_label_2
_geom_bond_distance
_ccdc_geom_bond_type
C113  C169  1.492277 S    
O115  C203  1.412040 S    
O29   C21   1.294940 A    
C102  C110  1.519730 S    
O67   Cu18  1.972109 S    
O121  C209  1.415200 S    
O81   Cu23  1.972579 S    
O45   C21   1.294787 A    
O34   C10   1.294961 A    
Cu7   Cu15  2.687983 S    
C137  C145  1.409999 A    
C119  C175  1.492013 S    
O117  C205  1.415057 S    
C212  H116  1.109309 S    
C105  H33   1.112119 S    
C120  C176  1.494542 S    
C139  H51   1.083753 S    
C165  O123  1.429953 S    
C56   C96   1.381535 A    
C167  C175  1.553404 S    
C150  C181  1.449312 S    
C49   C89   1.381113 A    
C116  C172  1.483135 S    
C30   C126  1.450103 S    
C117  C173  1.494343 S    
C97   H19   1.111517 S    
C99   C107  1.541617 S    
C125  C133  1.427032 A    
C97   C105  1.519696 S    
O12   Cu12  1.972317 S    
C105  H35   1.111585 S    
O48   C24   1.295504 A    
O88   Cu22  1.971789 S    
O90   Cu19  1.971732 S    
C81   C185  1.454684 S    
C7    C63   1.452819 S    
C18   C42   1.425318 S    
O3    C3    1.293189 A    
C89   C97   1.493510 S    
C131  C195  1.487209 S    
O39   Cu11  1.954279 S    
C100  C108  1.519124 S    
C67   H3    1.083187 S    
C50   C106  1.491535 S    
O57   C25   1.291661 A    
C22   C46   1.425276 S    
C143  H55   1.083869 S    
C200  O112  1.398889 S    
Cu10  O58   1.971246 S    
C52   C92   1.381999 A    
C102  H26   1.112025 S    
C52   C108  1.491837 S    
C142  C150  1.403023 A    
Cu1   Cu9   2.687983 S    
C202  H86   1.109003 S    
C31   C127  1.441950 S    
C16   C40   1.425333 S    
O16   Cu16  1.972317 S    
C78   H14   1.083027 S    
C130  C194  1.487468 S    
C36   C41   1.200059 T    
C53   C93   1.381704 A    
C210  H108  1.110571 S    
C170  H58   1.110428 S    
O92   C190  1.286935 A    
C109  H43   1.112108 S    
C129  C137  1.416543 A    
C202  H85   1.108308 S    
C172  H64   1.111821 S    
C40   C45   1.200023 T    
C172  H62   1.111700 S    
C117  C125  1.383938 A    
C118  C158  1.380029 A    
C108  H40   1.111535 S    
C208  H104  1.111642 S    
O87   C187  1.286181 A    
C88   C192  1.448252 S    
C53   C109  1.492101 S    
O96   Cu18  1.971789 S    
O69   Cu19  1.972166 S    
C167  O127  1.416810 S    
O73   C181  1.288188 A    
O46   C22   1.294833 A    
C204  H92   1.109197 S    
C210  H109  1.110909 S    
O12   C4    1.292311 A    
O13   C5    1.292792 A    
O76   C182  1.285413 A    
C152  C160  1.383370 A    
O24   C16   1.294786 A    
C168  O128  1.429988 S    
O78   C184  1.287571 A    
O38   Cu12  1.954035 S    
O116  C204  1.407661 S    
O38   C14   1.294936 A    
C176  H70   1.111114 S    
C216  H127  1.110161 S    
Cu21  Cu22  2.663632 S    
C73   C81   1.407161 A    
O98   H73   1.013969 S    
C50   C58   1.393520 A    
C202  H84   1.109763 S    
C124  C132  1.424332 A    
O7    Cu7   1.971539 S    
C93   C101  1.493270 S    
C168  C176  1.551920 S    
O78   Cu23  1.972396 S    
C82   C186  1.451636 S    
C19   C43   1.425371 S    
C106  H36   1.111541 S    
O28   C20   1.294824 A    
Cu1   O49   1.973036 S    
C195  O101  1.221524 D    
C129  C193  1.486858 S    
O58   C26   1.290286 A    
C153  C161  1.502436 S    
C207  H99   1.110099 S    
C26   C122  1.438459 S    
C196  O104  1.398865 S    
O1    Cu1   1.971539 S    
Cu8   Cu16  2.688725 S    
C198  O107  1.222034 D    
O46   Cu16  1.954035 S    
C163  C171  1.551964 S    
C33   C44   1.200061 T    
C65   C73   1.401747 A    
Cu6   O54   1.972505 S    
C71   C79   1.401451 A    
O44   Cu14  1.954595 S    
C215  H123  1.111446 S    
C151  C159  1.382197 A    
C96   C104  1.493345 S    
C37   C48   1.200016 T    
C206  H97   1.111184 S    
C32   C128  1.439973 S    
C113  C153  1.349617 A    
C82   C90   1.396524 A    
C39   C46   1.200014 T    
C214  H122  1.109061 S    
C49   C57   1.392457 A    
C148  C156  1.390265 A    
C3    C59   1.439424 S    
O13   Cu13  1.972849 S    
O31   C23   1.294651 A    
C1    C57   1.444862 S    
C86   C94   1.396576 A    
C80   H16   1.083252 S    
C199  O109  1.221804 D    
O19   Cu1   1.954498 S    
O96   C192  1.288690 A    
O47   C23   1.295114 A    
C162  O114  1.430669 S    
C99   H21   1.110407 S    
C164  O118  1.422287 S    
C193  O98   1.398830 S    
C51   C91   1.348961 A    
O74   C182  1.287401 A    
C78   C86   1.406048 A    
Cu3   Cu11  2.687983 S    
O26   C18   1.295235 A    
O48   Cu16  1.954595 S    
C197  O105  1.221399 D    
C169  H57   1.110717 S    
C146  C177  1.444926 S    
C28   C124  1.440190 S    
O10   C2    1.292023 A    
O6    Cu6   1.971007 S    
O104  H76   1.013973 S    
O75   C181  1.286767 A    
C15   C39   1.425362 S    
O89   Cu19  1.972579 S    
C208  H103  1.109131 S    
O37   C13   1.294738 A    
O9    Cu9   1.972849 S    
O88   C188  1.286861 A    
O52   C28   1.292405 A    
O123  C211  1.416137 S    
C114  C170  1.485891 S    
C132  C140  1.414430 A    
O3    Cu3   1.971539 S    
C133  C141  1.416240 A    
O35   C11   1.294980 A    
C49   C105  1.491296 S    
C138  C146  1.411427 A    
C135  C143  1.416540 A    
C163  O119  1.429933 S    
C144  H56   1.083749 S    
O90   C190  1.288778 A    
C66   C74   1.401121 A    
C6    C62   1.446392 S    
O37   Cu11  1.954338 S    
O17   C9    1.294782 A    
O91   Cu20  1.972022 S    
O92   Cu20  1.971789 S    
C161  C169  1.553460 S    
Cu16  O64   1.971246 S    
C201  H82   1.110580 S    
C118  C174  1.497275 S    
O21   C13   1.294983 A    
O60   C28   1.290899 A    
C115  C123  1.384215 A    
C209  H105  1.110316 S    
C68   C76   1.400995 A    
C207  H101  1.109023 S    
O23   C15   1.294608 A    
C69   C77   1.401336 A    
O124  C212  1.411694 S    
O14   Cu14  1.972317 S    
O94   C192  1.285241 A    
O64   C32   1.291128 A    
C9    C33   1.425300 S    
C98   H20   1.111550 S    
C215  H125  1.109181 S    
O4    C4    1.295681 A    
O72   C180  1.285310 A    
O74   Cu21  1.972396 S    
C98   H18   1.111348 S    
C201  H83   1.109180 S    
C168  O126  1.429932 S    
C214  H120  1.110922 S    
O27   C19   1.294827 A    
C140  H52   1.083929 S    
C141  H53   1.083699 S    
C147  C180  1.443439 S    
O45   Cu15  1.954338 S    
O43   C19   1.294968 A    
O36   C12   1.295341 A    
C34   C43   1.199977 T    
C137  H49   1.083885 S    
O82   Cu23  1.971732 S    
O33   C9    1.294948 A    
C162  C170  1.546573 S    
O65   Cu17  1.972166 S    
C84   C188  1.451517 S    
C75   C83   1.412429 A    
O114  C202  1.415405 S    
O35   Cu9   1.954279 S    
C171  H61   1.111030 S    
C12   C36   1.425295 S    
C38   C47   1.200021 T    
O75   Cu22  1.972109 S    
C157  C165  1.517743 S    
C130  C138  1.414238 A    
C75   H11   1.083127 S    
C203  H87   1.111411 S    
C159  C167  1.502284 S    
C160  C168  1.517934 S    
C76   H12   1.082906 S    
O32   C24   1.294733 A    
C99   H23   1.111458 S    
C90   C98   1.493369 S    
O120  C208  1.412485 S    
O24   Cu4   1.954194 S    
O83   Cu24  1.972022 S    
C212  H115  1.111427 S    
C61   C69   1.406420 A    
O1    C1    1.295468 A    
C110  H42   1.112119 S    
O66   C178  1.287477 A    
C64   C72   1.406998 A    
C67   C75   1.410981 A    
C196  O103  1.221795 D    
C170  H60   1.112071 S    
O25   Cu5   1.954442 S    
C58   C66   1.405570 A    
O7    C7    1.296094 A    
Cu2   O50   1.972505 S    
C63   C71   1.406525 A    
O8    C8    1.296575 A    
O17   Cu1   1.954442 S    
O47   Cu15  1.954279 S    
C213  H117  1.110545 S    
C74   C82   1.405656 A    
C51   C59   1.384533 A    
O66   Cu17  1.972396 S    
C211  H111  1.110130 S    
C126  C134  1.423771 A    
C165  O121  1.429921 S    
O68   C178  1.284232 A    
O127  C215  1.411916 S    
C10   C34   1.425307 S    
O118  C206  1.408038 S    
C175  H71   1.111791 S    
O53   C29   1.292203 A    
Cu14  O62   1.971246 S    
O30   C22   1.295337 A    
C200  O111  1.221489 D    
C101  C109  1.519838 S    
C154  C162  1.520435 S    
O86   Cu21  1.971732 S    
O20   Cu2   1.954194 S    
Cu4   Cu12  2.688725 S    
C72   H8    1.083286 S    
Cu13  O61   1.971778 S    
Cu19  Cu20  2.663632 S    
C106  H34   1.112116 S    
O77   Cu23  1.972166 S    
O80   Cu24  1.972950 S    
C161  O115  1.416903 S    
O11   C3    1.291172 A    
C79   H15   1.083423 S    
O70   C180  1.287273 A    
O36   Cu10  1.954595 S    
O39   C15   1.295182 A    
C149  C182  1.443864 S    
C100  H24   1.111566 S    
O40   C16   1.295426 A    
C83   C91   1.386425 A    
O61   C29   1.290499 A    
C151  C184  1.441858 S    
O6    C6    1.295516 A    
C81   C89   1.397677 A    
O128  C216  1.416048 S    
O63   C31   1.291124 A    
C2    C58   1.446698 S    
O87   Cu22  1.972022 S    
C205  H93   1.110252 S    
C84   C92   1.396404 A    
C123  C131  1.427225 A    
C134  C198  1.487528 S    
C85   C93   1.395665 A    
C204  H91   1.108487 S    
O79   C183  1.285039 A    
C210  H110  1.109047 S    
C88   C96   1.395525 A    
O86   C188  1.288699 A    
C17   C41   1.425302 S    
C51   C107  1.487993 S    
O71   C179  1.284598 A    
C76   C84   1.405678 A    
C203  H89   1.109178 S    
C111  H47   1.112325 S    
C50   C90   1.381983 A    
C167  O125  1.433660 S    
C21   C45   1.425285 S    
C136  C144  1.416026 A    
Cu11  O59   1.971778 S    
C216  H126  1.109723 S    
C115  C155  1.352138 A    
C23   C47   1.425334 S    
Cu2   Cu10  2.688725 S    
C101  H25   1.111530 S    
C136  C200  1.487151 S    
O79   Cu24  1.972109 S    
C72   C80   1.401251 A    
O76   Cu22  1.972950 S    
C85   C189  1.449614 S    
C5    C61   1.449410 S    
C164  O120  1.419423 S    
C13   C37   1.425264 S    
O119  C207  1.416093 S    
C114  C122  1.382510 A    
C133  C197  1.487203 S    
O50   C26   1.292211 A    
C104  C112  1.519858 S    
C112  H46   1.111575 S    
C56   C112  1.492339 S    
O122  C210  1.414654 S    
C174  H68   1.112291 S    
C118  C126  1.394584 A    
C147  C155  1.383525 A    
O27   Cu5   1.954498 S    
C87   C95   1.393382 A    
C205  H95   1.108970 S    
Cu12  O60   1.971246 S    
C55   C111  1.493668 S    
Cu7   O55   1.973036 S    
O125  C213  1.414877 S    
O51   C27   1.292291 A    
C134  C142  1.407789 A    
O56   C32   1.292145 A    
C57   C65   1.404900 A    
O23   Cu3   1.954498 S    
C74   H10   1.083101 S    
C211  H113  1.109024 S    
C139  C147  1.410189 A    
O33   Cu9   1.954338 S    
C20   C44   1.425301 S    
C215  H124  1.112572 S    
C113  C121  1.385705 A    
C8    C64   1.449862 S    
O18   C10   1.295256 A    
C55   C95   1.381199 A    
C175  H69   1.110628 S    
C209  H106  1.110692 S    
C214  H121  1.110139 S    
C24   C48   1.425379 S    
O22   C14   1.295238 A    
O85   C187  1.285565 A    
C156  C164  1.508310 S    
C103  H31   1.112069 S    
O19   C11   1.294785 A    
C94   C102  1.493591 S    
C193  O97   1.221790 D    
C141  C149  1.410304 A    
C166  O122  1.433954 S    
O69   C179  1.288346 A    
C70   H6    1.083361 S    
O73   Cu21  1.972166 S    
C83   C187  1.442916 S    
C158  C166  1.507940 S    
C121  C129  1.427615 A    
O102  H75   1.014018 S    
C143  C151  1.410055 A    
C174  H66   1.110683 S    
C52   C60   1.393750 A    
O59   C27   1.290708 A    
O71   Cu20  1.972109 S    
C53   C61   1.394670 A    
C169  H59   1.111790 S    
C27   C123  1.440283 S    
O68   Cu18  1.972950 S    
C142  H54   1.084040 S    
C25   C121  1.442392 S    
C56   C64   1.394809 A    
C162  O116  1.417683 S    
C107  H39   1.111620 S    
O93   Cu17  1.972579 S    
C138  H50   1.083856 S    
Cu5   O53   1.973036 S    
O54   C30   1.295372 A    
C86   C190  1.451791 S    
C14   C38   1.425281 S    
O82   C186  1.288807 A    
C111  H45   1.111546 S    
O65   C177  1.286423 A    
O11   Cu11  1.972849 S    
C152  C183  1.443007 S    
C207  H100  1.109646 S    
O30   Cu8   1.954758 S    
O126  C214  1.414667 S    
O5    C5    1.296105 A    
C216  H128  1.109025 S    
O110  H79   1.013969 S    
C194  O100  1.398875 S    
O55   C31   1.292706 A    
O43   Cu13  1.954279 S    
C68   H4    1.083361 S    
C101  H27   1.112028 S    
C69   H5    1.083304 S    
O31   Cu7   1.954498 S    
C119  C127  1.385173 A    
O80   C184  1.284238 A    
C161  O113  1.433748 S    
O2    C2    1.295963 A    
O106  H77   1.013989 S    
O34   Cu10  1.954035 S    
C62   C70   1.405273 A    
C60   C68   1.405372 A    
C112  H48   1.112104 S    
O113  C201  1.414382 S    
O25   C17   1.294714 A    
O100  H74   1.013981 S    
O29   Cu7   1.954442 S    
C59   C67   1.410936 A    
C145  C178  1.441724 S    
O41   C17   1.295010 A    
C140  C148  1.412010 A    
C171  H63   1.110684 S    
C110  H44   1.111535 S    
C95   C103  1.491123 S    
C198  O108  1.398864 S    
O94   Cu17  1.971732 S    
O81   C185  1.289748 A    
C54   C62   1.393545 A    
C77   H13   1.083213 S    
C119  C159  1.349686 A    
C71   H7    1.083140 S    
O22   Cu4   1.954758 S    
C120  C160  1.351968 A    
O95   C191  1.284718 A    
C29   C125  1.439708 S    
C109  H41   1.111526 S    
C206  H98   1.109187 S    
C116  C156  1.349180 A    
C79   C87   1.405079 A    
C117  C157  1.352150 A    
C80   C88   1.404432 A    
C209  H107  1.108938 S    
C135  C199  1.486854 S    
O85   Cu21  1.972579 S    
O108  H78   1.014012 S    
O32   Cu8   1.954194 S    
C103  H29   1.111603 S    
C199  O110  1.398825 S    
C173  H65   1.111001 S    
O2    Cu2   1.971007 S    
C131  C139  1.416361 A    
C65   H1    1.083367 S    
Cu6   Cu14  2.688725 S    
O15   C7    1.294416 A    
C165  C173  1.551947 S    
O16   C8    1.293006 A    
C35   C42   1.199993 T    
C87   C191  1.446366 S    
O95   Cu18  1.972022 S    
O14   C6    1.292329 A    
O89   C189  1.286191 A    
C197  O106  1.398886 S    
C203  H88   1.112584 S    
C70   C78   1.401176 A    
C104  H32   1.112460 S    
O41   Cu13  1.954338 S    
O84   C186  1.286823 A    
C132  C196  1.487244 S    
C107  H37   1.111479 S    
O42   Cu14  1.954035 S    
C213  H119  1.108962 S    
C176  H72   1.110742 S    
C212  H114  1.112743 S    
C163  O117  1.429936 S    
C115  C171  1.494436 S    
O40   Cu12  1.954595 S    
C195  O102  1.398909 S    
C66   H2    1.083347 S    
C146  C154  1.391287 A    
C97   H17   1.110502 S    
O112  H80   1.013983 S    
C104  H30   1.111553 S    
C166  C174  1.533015 S    
C103  C111  1.520368 S    
C100  H22   1.112093 S    
C213  H118  1.110389 S    
O70   Cu19  1.972396 S    
O42   C18   1.294987 A    
C54   C110  1.491887 S    
Cu17  Cu18  2.663632 S    
O20   C12   1.294825 A    
Cu4   O52   1.972505 S    
O9    C1    1.291156 A    
C211  H112  1.109727 S    
C166  O124  1.419544 S    
Cu15  O63   1.971778 S    
Cu8   O56   1.972505 S    
O49   C25   1.292380 A    
C4    C60   1.446708 S    
C155  C163  1.517742 S    
O15   Cu15  1.972849 S    
C201  H81   1.110294 S    
O72   Cu20  1.972950 S    
C116  C124  1.383588 A    
C91   C99   1.489129 S    
O84   Cu24  1.971789 S    
C102  H28   1.111529 S    
C127  C135  1.427591 A    
O44   C20   1.295332 A    
O83   C185  1.287384 A    
O10   Cu10  1.972317 S    
C120  C128  1.384539 A    
O21   Cu3   1.954442 S    
Cu3   O51   1.973036 S    
C144  C152  1.410165 A    
C77   C85   1.405034 A    
C54   C94   1.381509 A    
C128  C136  1.426981 A    
C73   H9    1.083113 S    
C206  H96   1.109335 S    
O28   Cu6   1.954194 S    
O26   Cu6   1.954758 S    
O77   C183  1.287348 A    
C164  C172  1.548728 S    
C194  O99   1.221707 D    
Cu9   O57   1.971778 S    
O93   C191  1.288425 A    
C55   C63   1.396818 A    
O18   Cu2   1.954758 S    
C150  C158  1.391724 A    
C122  C130  1.424332 A    
C148  C179  1.444242 S    
C108  H38   1.112110 S    
C208  H102  1.111093 S    
C173  H67   1.110706 S    
C205  H94   1.110756 S    
O4    Cu4   1.971007 S    
O62   C30   1.292699 A    
O67   C177  1.286917 A    
Cu5   Cu13  2.687983 S    
C92   C100  1.493393 S    
C98   C106  1.518833 S    
C11   C35   1.425310 S    
C204  H90   1.112041 S    
C149  C157  1.383709 A    
O8    Cu8   1.971007 S    
C114  C154  1.352125 A    
O5    Cu5   1.971539 S    
O91   C189  1.288495 A    
Cu23  Cu24  2.663632 S    
C145  C153  1.382097 A    
