data_mof_unit_64872.cif
_audit_creation_date              2012-12-10T18:24:46-0500
_audit_creation_method            fapswitch 2.2
_symmetry_space_group_name_H-M    P1
_symmetry_Int_Tables_number       1
_space_group_crystal_system       triclinic
_cell_length_a                    30.466044
_cell_length_b                    30.249124
_cell_length_c                    24.69766
_cell_angle_alpha                 89.99842
_cell_angle_beta                  128.377699
_cell_angle_gamma                 90.000116
_cell_volume                      17842.8744848

loop_
_atom_site_label
_atom_site_type_symbol
_atom_type_description
_atom_site_fract_x
_atom_site_fract_y
_atom_site_fract_z
_atom_type_partial_charge
C1    C     C_R   0.811250 0.810804 0.501402 0.833215
C2    C     C_R   0.534847 0.750406 0.069822 0.282461
C3    C     C_3   0.845183 0.155081 0.501066 0.171918
C4    C     C_3   0.594013 0.595752 0.500251 0.173577
C5    C     C_3   0.405981 0.595748 0.499747 0.173531
C6    C     C_3   0.094019 0.095746 0.500250 0.173528
C7    C     C_3   0.905980 0.095746 0.499747 0.173523
C8    C     C_3   0.631606 0.620059 0.570999 -0.368641
C9    C     C_3   0.368306 0.620002 0.428952 -0.368577
C10   C     C_3   0.131732 0.119972 0.571065 -0.368536
C11   C     C_3   0.868278 0.119983 0.428938 -0.368555
C12   C     C_3   0.555863 0.630296 0.442738 -0.397181
C13   C     C_R   0.965139 0.250407 0.930177 0.282461
C14   C     C_3   0.444140 0.630335 0.557174 -0.397271
C15   C     C_3   0.055856 0.130356 0.442862 -0.397319
C16   C     C_3   0.944141 0.130349 0.557146 -0.397299
C17   C     C_R   0.059871 0.938230 0.500232 0.832748
C18   C     C_R   0.940131 0.938229 0.499770 0.832750
C19   C     C_R   0.559920 0.438274 0.500236 0.832834
C20   C     C_R   0.440133 0.438227 0.499770 0.832893
C21   C     C_R   0.440188 0.561813 0.499782 0.833151
C22   C     C_R   0.559805 0.561818 0.500216 0.833050
C23   C     C_R   0.940187 0.061811 0.499781 0.833173
C24   C     C_R   0.034847 0.250407 0.069822 0.282463
C25   C     C_R   0.059813 0.061811 0.500217 0.833169
C26   C     C_R   0.816449 0.749177 0.634390 0.850976
C27   C     C_R   0.183552 0.749178 0.365610 0.850986
C28   C     C_R   0.316449 0.249177 0.634390 0.850999
C29   C     C_R   0.683552 0.249178 0.365610 0.850860
C30   C     C_R   0.610694 0.786943 0.253622 -0.197612
C31   C     C_R   0.389297 0.786944 0.746375 -0.197612
C32   C     C_R   0.110691 0.286942 0.253622 -0.197614
C33   C     C_R   0.889292 0.286946 0.746374 -0.197590
C34   C     C_R   0.575136 0.787195 0.181767 -0.162099
C35   C     C_3   0.908280 0.834618 0.558112 -0.398647
C36   C     C_R   0.424852 0.787196 0.818230 -0.162101
C37   C     C_R   0.075133 0.287194 0.181767 -0.162102
C38   C     C_R   0.924846 0.287199 0.818230 -0.162093
C39   C     C_R   0.572626 0.750362 0.145420 0.087842
C40   C     C_R   0.427363 0.750362 0.854580 0.087843
C41   C     C_R   0.072626 0.250362 0.145420 0.087842
C42   C     C_R   0.927362 0.250363 0.854580 0.087840
C43   C     C_R   0.606461 0.713437 0.181821 -0.162558
C44   C     C_R   0.393533 0.713436 0.818181 -0.162556
C45   C     C_R   0.106465 0.213439 0.181821 -0.162559
C46   C     C_3   0.091713 0.834604 0.441912 -0.398614
C47   C     C_R   0.893537 0.213435 0.818181 -0.162545
C48   C     C_R   0.642702 0.713495 0.253657 -0.198159
C49   C     C_R   0.357295 0.713493 0.746345 -0.198161
C50   C     C_R   0.142705 0.213496 0.253656 -0.198162
C51   C     C_R   0.857299 0.213492 0.746345 -0.198170
C52   C     C_3   0.408282 0.334624 0.558132 -0.398664
C53   C     C_3   0.591652 0.334294 0.442510 -0.398017
C54   C     C_3   0.944184 0.869104 0.556010 -0.398104
C55   C     C_3   0.055813 0.869088 0.444023 -0.398123
C56   C     C_3   0.444188 0.369108 0.556029 -0.398051
C57   C     C_R   0.188748 0.810803 0.498594 0.833215
C58   C     C_3   0.555822 0.368793 0.444730 -0.398864
C59   C     C_3   0.832317 0.844961 0.430039 -0.409871
C60   C     C_3   0.167712 0.844976 0.569980 -0.409871
C61   C     C_3   0.332331 0.344948 0.430041 -0.409852
C62   C     C_3   0.668299 0.345413 0.570223 -0.410228
C63   C     C_3   0.832513 0.891577 0.515053 -0.370039
C64   C     C_3   0.167461 0.891576 0.484898 -0.370049
C65   C     C_3   0.332496 0.391582 0.515026 -0.370011
C66   C     C_3   0.666848 0.391476 0.483810 -0.370326
C67   C     C_3   0.845284 0.844908 0.501308 0.174251
C68   C     C_R   0.311249 0.310804 0.501399 0.833215
C69   C     C_3   0.154714 0.844908 0.498689 0.174267
C70   C     C_3   0.345284 0.344908 0.501306 0.174269
C71   C     C_3   0.654671 0.344909 0.498592 0.174264
C72   C     C_3   0.905946 0.904286 0.499783 0.179311
C73   C     C_3   0.094056 0.904287 0.500220 0.179336
C74   C     C_3   0.405947 0.404285 0.499782 0.179281
C75   C     C_3   0.594093 0.404324 0.500213 0.179224
C76   C     C_3   0.867165 0.880796 0.428442 -0.377250
C77   C     C_3   0.132870 0.880815 0.571582 -0.377218
C78   C     C_3   0.367178 0.380784 0.428442 -0.377253
C79   C     C_R   0.688696 0.310801 0.498492 0.833200
C80   C     C_3   0.633526 0.381295 0.571873 -0.376687
C81   C     C_3   0.869451 0.926478 0.515774 -0.417241
C82   C     C_3   0.130522 0.926476 0.484174 -0.417209
C83   C     C_3   0.369437 0.426482 0.515752 -0.417248
C84   C     C_3   0.629923 0.426384 0.483102 -0.417045
C85   C     C_R   0.682661 0.750054 0.365424 0.857379
C86   C     C_R   0.317338 0.750054 0.634576 0.857369
C87   C     C_R   0.182661 0.250054 0.365424 0.857353
C88   C     C_R   0.817338 0.250054 0.634576 0.857486
C89   C     C_R   0.831101 0.749881 0.746331 0.440721
C90   C     C_R   0.644847 0.750168 0.289947 -0.034420
C91   C     C_R   0.168901 0.749883 0.253669 0.440724
C92   C     C_R   0.331101 0.249878 0.746331 0.440726
C93   C     C_R   0.668902 0.249885 0.253669 0.440733
C94   C     C_R   0.868134 0.752280 0.818157 -0.155995
C95   C     C_R   0.131868 0.752282 0.181843 -0.155996
C96   C     C_R   0.368134 0.252277 0.818157 -0.155994
C97   C     C_R   0.631869 0.252284 0.181843 -0.156009
C98   C     C_R   0.926222 0.751047 0.854263 -0.011373
C99   C     C_R   0.073780 0.751050 0.145737 -0.011373
C100  C     C_R   0.426222 0.251047 0.854263 -0.011374
C101  C     C_R   0.355149 0.750168 0.710053 -0.034415
C102  C     C_R   0.573781 0.251049 0.145736 -0.011372
C103  C     C_R   0.947246 0.747734 0.817498 -0.161888
C104  C     C_R   0.052756 0.747738 0.182501 -0.161888
C105  C     C_R   0.447247 0.247737 0.817498 -0.161886
C106  C     C_R   0.552756 0.247733 0.182501 -0.161888
C107  C     C_R   0.910825 0.746147 0.745799 -0.248843
C108  C     C_R   0.089176 0.746150 0.254201 -0.248843
C109  C     C_R   0.410825 0.246150 0.745798 -0.248843
C110  C     C_R   0.589177 0.246146 0.254200 -0.248867
C111  C     C_R   0.852865 0.747861 0.709658 -0.147966
C112  C     C_R   0.144847 0.250169 0.289947 -0.034413
C113  C     C_R   0.147136 0.747863 0.290342 -0.147968
C114  C     C_R   0.352865 0.247861 0.709658 -0.147971
C115  C     C_R   0.647137 0.247862 0.290342 -0.147924
C116  C     C_R   0.035376 0.752188 0.069917 0.313417
C117  C     C_R   0.964626 0.752186 0.930083 0.313416
C118  C     C_R   0.535377 0.252186 0.069917 0.313417
C119  C     C_R   0.464626 0.252185 0.930083 0.313416
C120  C     C_3   0.668656 0.608252 0.487059 -0.368505
C121  C     C_3   0.331414 0.608259 0.513070 -0.368549
C122  C     C_3   0.168551 0.108264 0.486866 -0.368565
C123  C     C_R   0.855148 0.250168 0.710053 -0.034440
C124  C     C_3   0.831438 0.108263 0.513115 -0.368558
C125  C     C_3   0.631693 0.573356 0.486282 -0.417963
C126  C     C_3   0.368381 0.573363 0.513856 -0.417876
C127  C     C_3   0.131583 0.073368 0.486078 -0.417866
C128  C     C_3   0.868406 0.073366 0.513901 -0.417867
C129  C     C_3   0.666582 0.655831 0.569524 -0.411655
C130  C     C_3   0.333345 0.655783 0.430438 -0.411702
C131  C     C_3   0.166687 0.155757 0.569574 -0.411736
C132  C     C_3   0.833321 0.155766 0.430427 -0.411718
C133  C     C_R   0.688860 0.689174 0.498858 0.821276
C134  C     C_R   0.465140 0.750406 0.930177 0.282461
C135  C     C_R   0.311146 0.689175 0.501154 0.821280
C136  C     C_R   0.188850 0.189175 0.498839 0.821284
C137  C     C_R   0.811148 0.189175 0.501158 0.821280
C138  C     C_3   0.591897 0.664771 0.440878 -0.392953
C139  C     C_3   0.408115 0.664808 0.559055 -0.392874
C140  C     C_3   0.091878 0.164829 0.440973 -0.392841
C141  C     C_3   0.908119 0.164821 0.559032 -0.392858
C142  C     C_3   0.654823 0.655082 0.498948 0.171893
C143  C     C_3   0.345181 0.655081 0.501062 0.171909
C144  C     C_3   0.154815 0.155082 0.498930 0.171918
H1    H     H_    0.611930 0.815663 0.280736 0.152460
H2    H     H_    0.212266 0.900209 0.525783 0.179507
H3    H     H_    0.894607 0.135396 0.417045 0.162129
H4    H     H_    0.668586 0.684699 0.280778 0.152284
H5    H     H_    0.331415 0.684697 0.719226 0.152279
H6    H     H_    0.168592 0.184701 0.280777 0.152284
H7    H     H_    0.831422 0.184694 0.719226 0.152274
H8    H     H_    0.918881 0.801190 0.550431 0.183771
H9    H     H_    0.081129 0.801176 0.449623 0.183773
H10   H     H_    0.418894 0.301193 0.550470 0.183761
H11   H     H_    0.581456 0.300919 0.450909 0.183958
H12   H     H_    0.918343 0.834896 0.609835 0.156095
H13   H     H_    0.287691 0.400199 0.474106 0.179477
H14   H     H_    0.081628 0.834874 0.390174 0.156089
H15   H     H_    0.418334 0.334913 0.609852 0.156092
H16   H     H_    0.581109 0.334267 0.390525 0.156060
H17   H     H_    0.973072 0.884770 0.607836 0.186729
H18   H     H_    0.026898 0.884741 0.392184 0.186714
H19   H     H_    0.473070 0.384781 0.607855 0.186718
H20   H     H_    0.526456 0.384128 0.392719 0.186573
H21   H     H_    0.970381 0.852568 0.544763 0.149040
H22   H     H_    0.029640 0.852551 0.455313 0.149024
H23   H     H_    0.470395 0.352566 0.544796 0.149070
H24   H     H_    0.711644 0.400359 0.524202 0.179918
H25   H     H_    0.530131 0.352333 0.456814 0.148894
H26   H     H_    0.842260 0.812151 0.419626 0.179705
H27   H     H_    0.157783 0.812168 0.580423 0.179688
H28   H     H_    0.342287 0.312136 0.419647 0.179713
H29   H     H_    0.658766 0.312680 0.581360 0.179395
H30   H     H_    0.754351 0.734722 0.668754 0.327583
H31   H     H_    0.245651 0.734723 0.331249 0.327587
H32   H     H_    0.254352 0.234717 0.668753 0.327587
H33   H     H_    0.745652 0.234727 0.331248 0.327598
H34   H     H_    0.840388 0.891974 0.565509 0.170743
H35   H     H_    0.159568 0.891961 0.434428 0.170716
H36   H     H_    0.340359 0.391988 0.565477 0.170745
H37   H     H_    0.658532 0.391536 0.433091 0.170285
H38   H     H_    0.896424 0.942811 0.567284 0.173984
H39   H     H_    0.103525 0.942793 0.432645 0.174005
H40   H     H_    0.396402 0.442821 0.567262 0.173966
H41   H     H_    0.388059 0.815665 0.719259 0.152459
H42   H     H_    0.602484 0.442355 0.431336 0.174537
H43   H     H_    0.842548 0.952512 0.476745 0.154918
H44   H     H_    0.157426 0.952524 0.523177 0.154883
H45   H     H_    0.342532 0.452513 0.476710 0.154922
H46   H     H_    0.656804 0.452686 0.521557 0.154430
H47   H     H_    0.786947 0.851311 0.388409 0.157974
H48   H     H_    0.213087 0.851334 0.611591 0.157977
H49   H     H_    0.286958 0.351293 0.388396 0.157963
H50   H     H_    0.713697 0.351989 0.611356 0.158202
H51   H     H_    0.838316 0.905101 0.387176 0.184306
H52   H     H_    0.111925 0.315662 0.280736 0.152463
H53   H     H_    0.161726 0.905133 0.612825 0.184280
H54   H     H_    0.338325 0.405085 0.387163 0.184301
H55   H     H_    0.662410 0.405868 0.612589 0.183952
H56   H     H_    0.851068 0.754194 0.845656 0.173183
H57   H     H_    0.148934 0.754196 0.154344 0.173183
H58   H     H_    0.351069 0.254189 0.845656 0.173183
H59   H     H_    0.648934 0.254201 0.154344 0.173184
H60   H     H_    0.991858 0.746534 0.843997 0.161395
H61   H     H_    0.008144 0.746538 0.156002 0.161396
H62   H     H_    0.491858 0.246539 0.843996 0.161395
H63   H     H_    0.888050 0.315669 0.719258 0.152459
H64   H     H_    0.508145 0.246531 0.156002 0.161394
H65   H     H_    0.549184 0.815963 0.154694 0.147194
H66   H     H_    0.450800 0.815965 0.845302 0.147194
H67   H     H_    0.049179 0.315962 0.154694 0.147195
H68   H     H_    0.950790 0.315970 0.845301 0.147193
H69   H     H_    0.927994 0.744500 0.718377 0.162559
H70   H     H_    0.072006 0.744503 0.281622 0.162557
H71   H     H_    0.427995 0.244505 0.718377 0.162556
H72   H     H_    0.572007 0.244496 0.281621 0.162537
H73   H     H_    0.713453 0.600110 0.528866 0.180258
H74   H     H_    0.892690 0.865537 0.415225 0.159919
H75   H     H_    0.286616 0.600087 0.471315 0.180306
H76   H     H_    0.213349 0.100075 0.528597 0.180327
H77   H     H_    0.786640 0.100079 0.471377 0.180322
H78   H     H_    0.661592 0.607263 0.437109 0.168407
H79   H     H_    0.338524 0.607307 0.563052 0.168346
H80   H     H_    0.161419 0.107333 0.436870 0.168320
H81   H     H_    0.838565 0.107323 0.563107 0.168324
H82   H     H_    0.605572 0.556385 0.435251 0.172978
H83   H     H_    0.394561 0.556439 0.564927 0.173035
H84   H     H_    0.105376 0.056467 0.434990 0.173069
H85   H     H_    0.107368 0.865561 0.584840 0.159935
H86   H     H_    0.894605 0.056457 0.564984 0.173059
H87   H     H_    0.658610 0.547809 0.526305 0.156023
H88   H     H_    0.341466 0.547780 0.473903 0.156000
H89   H     H_    0.158496 0.047767 0.525999 0.155964
H90   H     H_    0.841492 0.047772 0.473971 0.155977
H91   H     H_    0.711887 0.649917 0.612042 0.158632
H92   H     H_    0.288033 0.649849 0.387972 0.158650
H93   H     H_    0.212001 0.149810 0.612015 0.158660
H94   H     H_    0.788007 0.149824 0.387979 0.158657
H95   H     H_    0.660376 0.596243 0.613211 0.186004
H96   H     H_    0.392714 0.365523 0.415240 0.159930
H97   H     H_    0.339524 0.596153 0.386804 0.185954
H98   H     H_    0.160518 0.096106 0.613184 0.185935
H99   H     H_    0.839493 0.096122 0.386811 0.185939
H100  H     H_    0.580573 0.698276 0.447284 0.187584
H101  H     H_    0.419393 0.698311 0.552571 0.187601
H102  H     H_    0.080621 0.198329 0.447494 0.187609
H103  H     H_    0.919382 0.198323 0.552522 0.187608
H104  H     H_    0.582712 0.663956 0.389657 0.157652
H105  H     H_    0.417357 0.664020 0.610311 0.157659
H106  H     H_    0.082611 0.164058 0.389702 0.157665
H107  H     H_    0.608501 0.366151 0.585906 0.160535
H108  H     H_    0.917379 0.164044 0.610299 0.157660
H109  H     H_    0.527849 0.614046 0.391268 0.188098
H110  H     H_    0.472220 0.614124 0.608673 0.188081
H111  H     H_    0.027748 0.114165 0.391351 0.188071
H112  H     H_    0.972241 0.114151 0.608653 0.188075
H113  H     H_    0.605396 0.684733 0.154812 0.147216
H114  H     H_    0.394600 0.684731 0.845192 0.147215
H115  H     H_    0.105402 0.184736 0.154812 0.147217
H116  H     H_    0.894607 0.184729 0.845192 0.147214
H117  H     H_    0.528766 0.646942 0.452484 0.152124
H118  H     H_    0.787710 0.900199 0.474150 0.179496
H119  H     H_    0.471174 0.646979 0.547320 0.152098
H120  H     H_    0.028851 0.146997 0.452763 0.152093
H121  H     H_    0.971155 0.146990 0.547258 0.152096
H122  H     H_    0.655879 0.688758 0.578614 0.187031
H123  H     H_    0.344010 0.688702 0.421270 0.186994
H124  H     H_    0.156040 0.188672 0.578779 0.186979
H125  H     H_    0.843972 0.188682 0.421233 0.186980
H126  H     H_    0.605197 0.635492 0.582753 0.162032
H127  H     H_    0.394655 0.635420 0.417092 0.162101
H128  H     H_    0.105410 0.135383 0.582971 0.162140
N1    N     N_R   0.517201 0.711763 0.034313 -0.178430
N2    N     N_R   0.979163 0.752307 0.034592 -0.177305
N3    N     N_R   0.520840 0.252307 0.965407 -0.177305
N4    N     N_R   0.479163 0.252303 0.034592 -0.177307
N5    N     N_R   0.055548 0.752324 0.034018 -0.180729
N6    N     N_R   0.944454 0.752325 0.965981 -0.180729
N7    N     N_R   0.555549 0.252326 0.034018 -0.180728
N8    N     N_R   0.444455 0.252321 0.965981 -0.180730
N9    N     N_R   0.482789 0.711763 0.965691 -0.178430
N10   N     N_R   0.017208 0.211764 0.034312 -0.178431
N11   N     N_R   0.982795 0.211764 0.965691 -0.178430
N12   N     N_R   0.482940 0.789058 0.965681 -0.178513
N13   N     N_R   0.517043 0.789058 0.034315 -0.178513
N14   N     N_R   0.982933 0.289059 0.965680 -0.178510
N15   N     N_R   0.017037 0.289059 0.034315 -0.178513
N16   N     N_R   0.020840 0.752305 0.965407 -0.177305
O1    O     O_R   0.822450 0.770150 0.500010 -0.628938
O2    O     O_R   0.517630 0.546310 0.442550 -0.628314
O3    O     O_R   0.982370 0.046310 0.557450 -0.628274
O4    O     O_R   0.017630 0.046310 0.442550 -0.628273
O5    O     O_R   0.424900 0.546280 0.442440 -0.629375
O6    O     O_R   0.575100 0.546280 0.557560 -0.629400
O7    O     O_R   0.924900 0.046280 0.442440 -0.629374
O8    O     O_R   0.075100 0.046280 0.557560 -0.629379
O9    O     O_R   0.770150 0.822430 0.500030 -0.628964
O10   O     O_R   0.229850 0.822430 0.499970 -0.628962
O11   O     O_R   0.270150 0.322430 0.500030 -0.628965
O12   O     O_R   0.177550 0.770150 0.499990 -0.628939
O13   O     O_R   0.729850 0.322430 0.499970 -0.628929
O14   O     O_R   0.725220 0.723850 0.398140 -0.622312
O15   O     O_R   0.274780 0.723850 0.601860 -0.622314
O16   O     O_R   0.225220 0.223850 0.398140 -0.622320
O17   O     O_R   0.774780 0.223850 0.601860 -0.622278
O18   O     O_R   0.672910 0.776140 0.398150 -0.621782
O19   O     O_R   0.327090 0.776140 0.601850 -0.621785
O20   O     O_R   0.172910 0.276140 0.398150 -0.621792
O21   O     O_R   0.827090 0.276140 0.601850 -0.621754
O22   O     O_R   0.729840 0.677550 0.499990 -0.630686
O23   O     O_R   0.322450 0.270150 0.500010 -0.628936
O24   O     O_R   0.270160 0.677550 0.500010 -0.630681
O25   O     O_R   0.229840 0.177550 0.499990 -0.630681
O26   O     O_R   0.770160 0.177550 0.500010 -0.630681
O27   O     O_R   0.677530 0.729830 0.500000 -0.628415
O28   O     O_R   0.322470 0.729830 0.500000 -0.628418
O29   O     O_R   0.177530 0.229830 0.500000 -0.628420
O30   O     O_R   0.822470 0.229830 0.500000 -0.628420
O31   O     O_R   0.827070 0.723850 0.601870 -0.616738
O32   O     O_R   0.172930 0.723850 0.398130 -0.616734
O33   O     O_R   0.327070 0.223850 0.601870 -0.616730
O34   O     O_R   0.677550 0.270150 0.499990 -0.628960
O35   O     O_R   0.672930 0.223850 0.398130 -0.616766
O36   O     O_R   0.774770 0.776130 0.601880 -0.600413
O37   O     O_R   0.225230 0.776130 0.398120 -0.600415
O38   O     O_R   0.274770 0.276130 0.601880 -0.600407
O39   O     O_R   0.725230 0.276130 0.398120 -0.600457
O40   O     O_R   0.075080 0.953700 0.557570 -0.629624
O41   O     O_R   0.924920 0.953700 0.442430 -0.629621
O42   O     O_R   0.575080 0.453700 0.557570 -0.629693
O43   O     O_R   0.424920 0.453700 0.442430 -0.629586
O44   O     O_3   0.774583 0.748652 0.714752 -0.768684
O45   O     O_R   0.017620 0.953670 0.442560 -0.628754
O46   O     O_3   0.225418 0.748653 0.285249 -0.768685
O47   O     O_3   0.274584 0.248646 0.714752 -0.768684
O48   O     O_3   0.725419 0.248658 0.285249 -0.768683
O49   O     O_R   0.982380 0.953670 0.557440 -0.628752
O50   O     O_R   0.517620 0.453670 0.442560 -0.628724
O51   O     O_R   0.482380 0.453670 0.557440 -0.628722
O52   O     O_R   0.482370 0.546310 0.557450 -0.628277
Zn1   Zn    Zn3+2 0.784920 0.715080 0.500000 0.935076
Zn2   Zn    Zn3+2 0.461640 0.500010 0.423200 0.927295
Zn3   Zn    Zn3+2 0.038360 0.000010 0.576800 0.927292
Zn4   Zn    Zn3+2 0.961640 0.000010 0.423200 0.927292
Zn5   Zn    Zn3+2 0.215080 0.715080 0.500000 0.935078
Zn6   Zn    Zn3+2 0.284920 0.215080 0.500000 0.935079
Zn7   Zn    Zn3+2 0.715080 0.215080 0.500000 0.935081
Zn8   Zn    Zn3+2 0.715070 0.784900 0.500020 0.954881
Zn9   Zn    Zn3+2 0.284930 0.784900 0.499980 0.954879
Zn10  Zn    Zn3+2 0.215070 0.284900 0.500020 0.954877
Zn11  Zn    Zn3+2 0.784930 0.284900 0.499980 0.954878
Zn12  Zn    Zn3+2 0.538360 0.500010 0.576800 0.927286

loop_
_geom_bond_atom_site_label_1
_geom_bond_atom_site_label_2
_ccdc_geom_bond_type
C51   C123  A    
C59   H47   S    
C74   C83   S    
C32   H52   S    
C57   O12   A    
C58   H20   S    
C17   O45   A    
C92   O47   S    
N10   N11   A    
C4    C125  S    
C129  H91   S    
C31   C101  A    
O8    Zn3   S    
N12   N13   A    
O38   Zn10  S    
C6    C127  S    
C106  H64   S    
C95   C99   A    
C6    C25   S    
C89   C94   A    
C10   C131  S    
C37   H67   S    
C93   O48   S    
C19   O42   A    
N4    N8    A    
C120  H73   S    
C80   H107  S    
C46   C55   S    
C7    C128  S    
C4    C12   S    
C28   O33   A    
C24   N15   A    
C122  H80   S    
C24   C41   S    
O15   Zn5   S    
C139  H105  S    
C13   C42   S    
C138  H104  S    
N5    N16   A    
C134  N9    A    
C99   C116  S    
C120  C125  S    
C129  C142  S    
C108  C113  A    
C110  H72   S    
C76   H51   S    
C47   H116  S    
C85   C90   S    
O35   Zn7   S    
C1    O1    A    
C104  H61   S    
C117  N16   A    
O24   Zn5   S    
C130  H123  S    
C127  H84   S    
C35   H8    S    
C62   H50   S    
C54   H21   S    
C125  H82   S    
C53   C71   S    
C133  O22   A    
C18   O49   A    
C46   H9    S    
C120  H78   S    
C64   H2    S    
C29   O35   A    
O22   Zn1   S    
C53   C58   S    
C96   H58   S    
O34   Zn7   S    
C65   H36   S    
C136  O25   A    
C77   H85   S    
C33   C38   A    
C62   H29   S    
C45   C50   A    
O27   Zn8   S    
C44   H114  S    
O9    Zn8   S    
C5    C21   S    
C8    C129  S    
C41   C45   A    
C31   C36   A    
C103  C107  A    
C78   H54   S    
C55   H22   S    
C38   H68   S    
C26   C111  S    
C129  H122  S    
C11   H99   S    
C3    C141  S    
H33   O48   S    
C9    H97   S    
C118  N4    A    
C124  H81   S    
C105  H62   S    
C15   H111  S    
C133  C142  S    
C140  H102  S    
C62   C80   S    
C23   O3    A    
C75   C84   S    
O39   Zn11  S    
C65   C70   S    
C46   H14   S    
C92   C96   A    
C89   O44   S    
O2    Zn2   S    
C122  C127  S    
C132  H94   S    
C8    H126  S    
C59   C67   S    
C139  C143  S    
C107  H69   S    
C68   O23   A    
O20   Zn10  S    
C61   C78   S    
C16   H121  S    
C135  C143  S    
C29   C115  S    
C48   C90   A    
O30   Zn11  S    
O31   Zn1   S    
C17   C73   S    
C81   H38   S    
O17   Zn7   S    
C127  H89   S    
O25   Zn6   S    
C30   C34   A    
C34   C39   A    
C58   H25   S    
C140  H106  S    
C17   O40   A    
C119  N8    A    
C64   H35   S    
C87   O20   A    
C64   C69   S    
C80   H55   S    
C40   C134  S    
C134  N12   A    
C82   H44   S    
C5    C126  S    
O41   Zn4   S    
C5    C9    S    
C117  N6    A    
C4    C22   S    
C135  O28   A    
C14   H110  S    
C35   C67   S    
C60   H48   S    
C31   H41   S    
C100  C119  S    
C32   C37   A    
C28   C114  S    
C109  C114  A    
C2    N13   A    
C27   C113  S    
O18   Zn8   S    
C53   H11   S    
C12   C138  S    
C63   H118  S    
C61   H49   S    
C30   H1    S    
C105  C109  A    
C33   H63   S    
C73   C77   S    
C12   H109  S    
C60   H27   S    
C107  C111  A    
C72   C81   S    
C125  H87   S    
C95   H57   S    
C19   O50   A    
C16   C141  S    
C25   O8    A    
C60   C69   S    
C7    C23   S    
C96   C100  A    
C56   H23   S    
C130  H92   S    
C141  H103  S    
C62   C71   S    
C99   C104  A    
C54   H17   S    
C37   C41   A    
C91   C95   A    
C55   C73   S    
C40   C44   A    
C10   H128  S    
C59   C76   S    
C108  H70   S    
C85   O18   A    
C61   C70   S    
C93   C97   A    
O21   Zn11  S    
C84   H42   S    
C126  H83   S    
C30   C90   A    
C11   C132  S    
C9    C130  S    
C88   O21   A    
C63   H34   S    
C1    O9    A    
O23   Zn6   S    
O37   Zn9   S    
C49   C101  A    
C118  N7    A    
C94   C98   A    
C98   C103  A    
C106  C110  A    
C103  H60   S    
H31   O46   S    
O45   Zn4   S    
C76   H74   S    
C128  H86   S    
C21   O52   A    
C3    C137  S    
O26   Zn7   S    
C97   C102  A    
C4    C8    S    
C124  C128  S    
C26   O36   A    
O28   Zn9   S    
H30   O44   S    
C85   O14   A    
C9    H127  S    
C51   H7    S    
O16   Zn6   S    
C35   C54   S    
C121  H75   S    
C97   H59   S    
C23   O7    A    
H32   O47   S    
C71   C79   S    
C18   C72   S    
C56   C74   S    
C27   O32   A    
C25   O4    A    
C3    C132  S    
O42   Zn12  S    
O5    Zn2   S    
C91   O46   S    
C65   H13   S    
C137  O26   A    
C138  C142  S    
C20   O51   A    
C132  H125  S    
O29   Zn10  S    
C13   N11   A    
C47   C51   A    
C131  H124  S    
C126  H88   S    
O43   Zn2   S    
C66   C71   S    
C20   C74   S    
C5    C14   S    
C135  O24   A    
C7    C16   S    
C66   H37   S    
C24   N10   A    
C133  O27   A    
C22   O6    A    
C73   C82   S    
C104  C108  A    
O40   Zn3   S    
C138  H100  S    
C3    C124  S    
C15   C140  S    
C53   H16   S    
C32   C112  A    
C83   H45   S    
C140  C144  S    
C6    C10   S    
C87   C112  S    
C27   O37   A    
C66   H24   S    
N1    N9    A    
C136  C144  S    
C2    N1    A    
C16   H112  S    
C11   H3    S    
O51   Zn12  S    
O36   Zn8   S    
C83   H40   S    
C94   H56   S    
C12   H117  S    
C14   H119  S    
C119  N3    A    
C13   N14   A    
C124  H77   S    
C86   O15   A    
C74   C78   S    
C141  H108  S    
C77   H53   S    
C110  C115  A    
C131  C144  S    
C44   C49   A    
C26   O31   A    
O10   Zn9   S    
C121  C143  S    
N3    N7    A    
C10   H98   S    
C122  C144  S    
C72   C76   S    
O4    Zn4   S    
C7    C11   S    
C56   H19   S    
C100  C105  A    
C122  H76   S    
C63   C81   S    
C116  N5    A    
C38   C42   A    
C18   O41   A    
O52   Zn12  S    
N14   N15   A    
C65   C83   S    
C52   H10   S    
O11   Zn10  S    
C93   C115  A    
O1    Zn1   S    
C46   C69   S    
C15   H120  S    
C1    C67   S    
C6    C15   S    
O3    Zn3   S    
C2    C39   S    
C28   O38   A    
C84   H46   S    
C59   H26   S    
C75   C80   S    
C79   O13   A    
C102  C118  S    
O14   Zn1   S    
C52   H15   S    
C88   O17   A    
C87   O16   A    
C79   O34   A    
O7    Zn4   S    
C88   C123  S    
C58   C75   S    
C45   H115  S    
C128  H90   S    
O33   Zn6   S    
C68   O11   A    
C63   C67   S    
C60   C77   S    
C36   C40   A    
C120  C142  S    
C35   H12   S    
C57   O10   A    
C39   C43   A    
O50   Zn2   S    
C82   H39   S    
C91   C113  A    
C29   O39   A    
C34   H65   S    
C50   H6    S    
C136  O29   A    
C50   C112  A    
C121  H79   S    
C61   H28   S    
C116  N2    A    
C130  C143  S    
C64   C82   S    
O49   Zn3   S    
O32   Zn5   S    
O19   Zn9   S    
C21   O5    A    
C137  O30   A    
O13   Zn11  S    
C43   H113  S    
C98   C117  S    
C43   C48   A    
C8    H95   S    
C86   O19   A    
C78   H96   S    
N2    N6    A    
C55   H18   S    
C109  H71   S    
C89   C111  A    
C49   H5    S    
C19   C75   S    
C121  C126  S    
C131  H93   S    
C48   H4    S    
C102  C106  A    
C42   C47   A    
C22   O2    A    
C52   C70   S    
C66   C84   S    
C54   C72   S    
C14   C139  S    
C68   C70   S    
O6    Zn12  S    
C33   C123  A    
C57   C69   S    
C86   C101  S    
C92   C114  A    
C81   H43   S    
O12   Zn5   S    
C52   C56   S    
C20   O43   A    
C36   H66   S    
C139  H101  S    
