data_mof_unit_39416.cif
_audit_creation_date              2012-10-26T20:21:47-0400
_audit_creation_method            fapswitch 2.2
_symmetry_space_group_name_H-M    P1
_symmetry_Int_Tables_number       1
_space_group_crystal_system       triclinic
_cell_length_a                    15.722097
_cell_length_b                    14.763835
_cell_length_c                    9.767632
_cell_angle_alpha                 90.000955
_cell_angle_beta                  89.054223
_cell_angle_gamma                 89.999768
_cell_volume                      2266.93867914

loop_
_atom_site_label
_atom_site_type_symbol
_atom_type_description
_atom_site_fract_x
_atom_site_fract_y
_atom_site_fract_z
_atom_type_partial_charge
C1    C     C_R   0.118473 0.381512 0.499103 0.533486
C2    C     C_R   0.991352 0.578980 0.928200 0.118360
C3    C     C_R   0.008705 0.578973 0.071795 0.118357
C4    C     C_R   0.010904 0.421978 0.928968 0.124602
C5    C     C_R   0.489028 0.921991 0.071025 0.124497
C6    C     C_R   0.491324 0.078976 0.928203 0.118363
C7    C     C_R   0.508676 0.078976 0.071799 0.118362
C8    C     C_R   0.510960 0.921989 0.928971 0.124515
C9    C     C_R   0.754132 0.316368 0.398531 -0.138092
C10   C     C_R   0.243531 0.687299 0.607449 -0.140962
C11   C     C_R   0.189956 0.752526 0.397902 -0.151790
C12   C     C_R   0.881664 0.618949 0.500363 0.527921
C13   C     C_R   0.807439 0.251989 0.609016 -0.143978
C14   C     C_R   0.245843 0.316346 0.601498 -0.138045
C15   C     C_R   0.756476 0.687304 0.392548 -0.140965
C16   C     C_R   0.810041 0.752523 0.602108 -0.151780
C17   C     C_R   0.192553 0.251979 0.390982 -0.143934
C18   C     C_R   0.254144 0.816358 0.398519 -0.138078
C19   C     C_R   0.743526 0.187305 0.607449 -0.140974
C20   C     C_R   0.689948 0.252532 0.397909 -0.151788
C21   C     C_R   0.307445 0.751982 0.609017 -0.143954
C22   C     C_R   0.745855 0.816357 0.601489 -0.138075
C23   C     C_R   0.881522 0.381517 0.500896 0.533522
C24   C     C_R   0.256469 0.187298 0.392549 -0.140958
C25   C     C_R   0.310032 0.252516 0.602113 -0.151775
C26   C     C_R   0.692562 0.751988 0.390980 -0.143954
C27   C     C_R   0.185214 0.686594 0.500533 0.016604
C28   C     C_R   0.813706 0.315515 0.502886 0.023601
C29   C     C_R   0.814786 0.686594 0.499471 0.016611
C30   C     C_R   0.186282 0.315504 0.497121 0.023630
C31   C     C_R   0.685210 0.186598 0.500534 0.016608
C32   C     C_R   0.313713 0.815508 0.502883 0.023613
C33   C     C_R   0.314781 0.186590 0.499472 0.016608
C34   C     C_R   0.118336 0.618949 0.499638 0.527927
C35   C     C_R   0.686291 0.815511 0.497117 0.023612
C36   C     C_3   0.929090 0.346181 0.114047 -0.221256
C37   C     C_3   0.970562 0.268592 0.192208 -0.414355
C38   C     C_3   0.952695 0.665379 0.872006 -0.224852
C39   C     C_3   0.014056 0.725440 0.788284 -0.388144
C40   C     C_3   0.047353 0.665370 0.128006 -0.224827
C41   C     C_3   0.985977 0.725424 0.211719 -0.388121
C42   C     C_3   0.070582 0.345973 0.885900 -0.221185
C43   C     C_3   0.028943 0.268513 0.807666 -0.414256
C44   C     C_3   0.429232 0.846090 0.114060 -0.221256
C45   C     C_R   0.618477 0.881515 0.499103 0.533514
C46   C     C_3   0.470774 0.768565 0.192268 -0.414322
C47   C     C_3   0.452667 0.165373 0.872004 -0.224840
C48   C     C_3   0.514031 0.225433 0.788285 -0.388133
C49   C     C_3   0.547325 0.165376 0.128004 -0.224838
C50   C     C_3   0.485953 0.225433 0.211719 -0.388138
C51   C     C_3   0.570742 0.846074 0.885931 -0.221248
C52   C     C_3   0.529189 0.768556 0.807717 -0.414310
C53   C     C_R   0.381662 0.118948 0.500363 0.527923
C54   C     C_R   0.381525 0.881514 0.500896 0.533517
C55   C     C_R   0.618335 0.118950 0.499638 0.527927
C56   C     C_R   0.988974 0.422001 0.071024 0.124425
Cu1   Cu    Cu3+1 1.000000 0.500000 0.640660 0.909346
Cu2   Cu    Cu3+1 1.000000 0.500000 0.359340 0.909272
Cu3   Cu    Cu3+1 0.500000 1.000000 0.640660 0.909305
Cu4   Cu    Cu3+1 0.500000 1.000000 0.359340 0.909299
H1    H     H_    0.755906 0.367645 0.319319 0.110238
H2    H     H_    0.740146 0.137465 0.688785 0.120459
H3    H     H_    0.643263 0.257194 0.319395 0.105558
H4    H     H_    0.352332 0.751425 0.691717 0.108676
H5    H     H_    0.744070 0.867626 0.680717 0.110266
H6    H     H_    0.259855 0.137459 0.311206 0.120453
H7    H     H_    0.356712 0.257174 0.680636 0.105554
H8    H     H_    0.647680 0.751433 0.308276 0.108673
H9    H     H_    0.017192 0.232012 0.126358 0.116560
H10   H     H_    0.002825 0.292488 0.284520 0.194510
H11   H     H_    0.920650 0.219581 0.224896 0.129378
H12   H     H_    0.240150 0.637458 0.688788 0.120463
H13   H     H_    0.872334 0.374054 0.166427 0.162944
H14   H     H_    0.900071 0.315569 0.021973 0.102040
H15   H     H_    0.081523 0.708114 0.807442 0.157907
H16   H     H_    0.001736 0.720930 0.677423 0.171774
H17   H     H_    0.004649 0.797591 0.817151 0.099106
H18   H     H_    0.891600 0.650377 0.824482 0.162532
H19   H     H_    0.928602 0.708209 0.957163 0.094874
H20   H     H_    0.918514 0.708078 0.192562 0.157918
H21   H     H_    0.998291 0.720928 0.322583 0.171765
H22   H     H_    0.995366 0.797574 0.182839 0.099097
H23   H     H_    0.143273 0.757188 0.319387 0.105558
H24   H     H_    0.108448 0.650370 0.175534 0.162533
H25   H     H_    0.071448 0.708205 0.042857 0.094867
H26   H     H_    0.981760 0.232452 0.873109 0.116583
H27   H     H_    0.997325 0.292387 0.714779 0.194574
H28   H     H_    0.078657 0.219039 0.775894 0.128963
H29   H     H_    0.127441 0.373658 0.833581 0.162889
H30   H     H_    0.099461 0.315233 0.978001 0.102055
H31   H     H_    0.517599 0.732158 0.126560 0.116550
H32   H     H_    0.502814 0.792475 0.284771 0.194564
H33   H     H_    0.420932 0.719392 0.224667 0.129234
H34   H     H_    0.852325 0.251434 0.691714 0.108730
H35   H     H_    0.372429 0.873884 0.166408 0.162917
H36   H     H_    0.400285 0.815413 0.021971 0.102073
H37   H     H_    0.581498 0.208107 0.807449 0.157904
H38   H     H_    0.501718 0.220922 0.677422 0.171781
H39   H     H_    0.504624 0.297584 0.817149 0.099101
H40   H     H_    0.391572 0.150369 0.824480 0.162530
H41   H     H_    0.428573 0.208204 0.957158 0.094873
H42   H     H_    0.418490 0.208093 0.192565 0.157915
H43   H     H_    0.498270 0.220936 0.322580 0.171759
H44   H     H_    0.495346 0.297580 0.182841 0.099103
H45   H     H_    0.244051 0.367610 0.680735 0.110287
H46   H     H_    0.608420 0.150377 0.175532 0.162537
H47   H     H_    0.571419 0.208209 0.042853 0.094868
H48   H     H_    0.482313 0.732196 0.873390 0.116557
H49   H     H_    0.497205 0.792464 0.715159 0.194567
H50   H     H_    0.579019 0.719344 0.775399 0.129199
H51   H     H_    0.627552 0.873854 0.833589 0.162913
H52   H     H_    0.599680 0.815389 0.978022 0.102073
H53   H     H_    0.759860 0.637466 0.311206 0.120449
H54   H     H_    0.856722 0.757178 0.680631 0.105557
H55   H     H_    0.147667 0.251423 0.308280 0.108648
H56   H     H_    0.255924 0.867629 0.319297 0.110261
N1    N     N_R   0.000000 0.500000 0.852070 -0.230344
N2    N     N_R   1.000000 0.500000 0.147930 -0.230384
N3    N     N_R   0.500000 1.000000 0.852070 -0.230365
N4    N     N_R   0.500000 1.000000 0.147930 -0.230367
O1    O     O_R   0.090170 0.409820 0.618740 -0.517026
O2    O     O_R   0.409830 0.090180 0.381260 -0.507090
O3    O     O_R   0.409830 0.090180 0.618740 -0.509297
O4    O     O_R   0.590170 0.909820 0.381260 -0.503248
O5    O     O_R   0.409830 0.909820 0.381260 -0.516973
O6    O     O_R   0.590170 0.090180 0.618740 -0.507087
O7    O     O_R   0.590170 0.090180 0.381260 -0.509293
O8    O     O_R   0.409830 0.909820 0.618740 -0.503241
O9    O     O_R   0.909830 0.590180 0.381260 -0.507107
O10   O     O_R   0.909830 0.590180 0.618740 -0.509303
O11   O     O_R   0.090170 0.409820 0.381260 -0.503248
O12   O     O_R   0.909830 0.409820 0.381260 -0.516956
O13   O     O_R   0.090170 0.590180 0.618740 -0.507073
O14   O     O_R   0.090170 0.590180 0.381260 -0.509290
O15   O     O_R   0.909830 0.409820 0.618740 -0.503190
O16   O     O_R   0.590170 0.909820 0.618740 -0.516981

loop_
_geom_bond_atom_site_label_1
_geom_bond_atom_site_label_2
_ccdc_geom_bond_type
C10   C27   A    
C11   C18   A    
C50   H44   S    
C51   H52   S    
C47   H41   S    
C37   H9    S    
C12   C29   S    
C40   H24   S    
C25   H7    S    
C19   C31   A    
C41   H20   S    
C49   H47   S    
Cu2   O14   S    
Cu3   O6    S    
C22   C35   A    
C12   O10   A    
C9    H1    S    
C43   H28   S    
C39   H17   S    
Cu3   N3    S    
Cu4   O5    S    
C53   O2    A    
C38   C39   S    
C46   H32   S    
C38   H19   S    
C34   O14   A    
C19   H2    S    
Cu3   O16   S    
Cu2   N2    S    
Cu4   O4    S    
C21   H4    S    
C14   H45   S    
Cu2   O12   S    
C51   H51   S    
C15   H53   S    
C13   C28   A    
C11   C27   A    
C24   H6    S    
C50   H43   S    
C27   C34   S    
C37   H10   S    
C4    C56   A    
C33   C53   S    
C17   C30   A    
Cu1   O13   S    
C14   C30   A    
C32   C54   S    
C21   C32   A    
C2    N1    A    
C44   C46   S    
C15   C29   A    
C45   O4    A    
Cu3   O3    S    
C54   O5    A    
C17   C24   A    
C6    C47   S    
C13   C19   A    
C5    N4    A    
C51   C52   S    
Cu1   O10   S    
C7    C49   S    
C53   O3    A    
C18   H56   S    
C15   C26   A    
C46   H31   S    
C38   H18   S    
C34   O13   A    
C11   H23   S    
Cu3   O8    S    
C39   H16   S    
C54   O8    A    
C47   H40   S    
C42   H30   S    
C40   H25   S    
C22   H5    S    
C48   H37   S    
C3    N2    A    
C2    C38   S    
C9    C20   A    
C47   C48   S    
C55   O6    A    
C52   H50   S    
Cu2   O11   S    
C41   H21   S    
C23   C28   S    
Cu4   O2    S    
C8    C51   S    
C49   H46   S    
C36   H14   S    
C40   C41   S    
C5    C44   S    
C55   O7    A    
C3    C40   S    
C50   H42   S    
C39   H15   S    
C37   H11   S    
C4    N1    A    
C18   C32   A    
C42   C43   S    
C35   C45   S    
C6    N3    A    
C17   H55   S    
Cu1   N1    S    
C48   H39   S    
C36   C37   S    
C45   O16   A    
C16   C22   A    
C44   H36   S    
C43   H26   S    
C56   N2    A    
C7    N4    A    
Cu4   O7    S    
C1    O11   A    
C16   H54   S    
C10   C21   A    
C5    C8    A    
C6    C7    A    
C48   H38   S    
C24   C33   A    
C23   O15   A    
C13   H34   S    
C42   H29   S    
C43   H27   S    
C20   H3    S    
C2    C3    A    
C16   C29   A    
C26   H8    S    
C44   H35   S    
Cu1   Cu2   S    
C46   H33   S    
C4    C42   S    
C52   H49   S    
C41   H22   S    
C1    C30   S    
C23   O12   A    
Cu4   N4    S    
C14   C25   A    
C1    O1    A    
C12   O9    A    
C36   H13   S    
Cu1   O1    S    
C26   C35   A    
Cu3   Cu4   S    
C52   H48   S    
C49   C50   S    
C36   C56   S    
Cu1   O15   S    
Cu2   O9    S    
C31   C55   S    
C8    N3    A    
C9    C28   A    
C25   C33   A    
C20   C31   A    
C10   H12   S    
