data_mof_unit_37483.cif
_audit_creation_date              2013-03-05T15:45:49-0500
_audit_creation_method            fapswitch 2.2
_symmetry_space_group_name_H-M    P1
_symmetry_Int_Tables_number       1
_space_group_crystal_system       triclinic
_cell_length_a                    18.273978
_cell_length_b                    18.689549
_cell_length_c                    18.877272
_cell_angle_alpha                 109.606247
_cell_angle_beta                  109.364675
_cell_angle_gamma                 108.467607
_cell_volume                      5021.48288439

loop_
_atom_site_label
_atom_site_type_symbol
_atom_site_description
_atom_site_fract_x
_atom_site_fract_y
_atom_site_fract_z
_atom_type_partial_charge
O1    O     O_R   0.592050 0.539910 0.448690 -0.610104
O2    O     O_R   0.591210 0.643330 0.551330 -0.646115
C1    C     C_R   0.625808 0.618602 0.504683 0.958053
O3    O     O_R   0.408100 0.448300 0.356370 -0.635152
O4    O     O_R   0.407270 0.551720 0.459020 -0.581569
C2    C     C_R   0.380019 0.501504 0.380283 0.947076
Zn1   Zn    Zn3+2 0.500560 0.430950 0.431460 0.947395
Zn2   Zn    Zn3+2 0.499440 0.569050 0.568540 1.006721
O5    O     O_R   0.408790 0.356670 0.448670 -0.651217
O6    O     O_R   0.407950 0.460090 0.551310 -0.597191
O7    O     O_R   0.592730 0.448280 0.540980 -0.621685
O8    O     O_R   0.591900 0.551700 0.643630 -0.639859
C3    C     C_R   0.373642 0.380321 0.494676 0.900941
C4    C     C_R   0.618834 0.497565 0.620235 0.949611
C5    C     C_3   0.333590 0.576184 0.290728 -0.243499
C6    C     C_3   0.249185 0.578720 0.289677 -0.248365
H1    H     H_    0.242885 0.637908 0.315826 0.163113
H2    H     H_    0.399449 0.632617 0.319601 0.159740
C7    C     C_3   0.194088 0.506018 0.195199 -0.086945
C8    C     C_3   0.277199 0.503890 0.196549 0.391655
C9    C     C_3   0.259978 0.432778 0.221580 -0.191297
C10   C     C_3   0.176576 0.436164 0.222286 -0.135753
C11   C     C_3   0.232441 0.508681 0.317471 -0.090852
C12   C     C_3   0.314571 0.505098 0.315854 -0.068446
H3    H     H_    0.265408 0.373342 0.193927 0.180808
H4    H     H_    0.112136 0.380041 0.197426 0.220321
H5    H     H_    0.215151 0.513279 0.369185 0.232074
H6    H     H_    0.603152 0.721640 0.446962 0.142113
C13   C     C_R   0.806448 0.631149 0.553185 0.354507
C14   C     C_R   0.897615 0.654015 0.588970 0.171912
C15   C     C_R   0.948961 0.702181 0.564557 -0.320800
H7    H     H_    0.013822 0.708215 0.579213 0.245760
C16   C     C_R   0.914179 0.735267 0.514107 0.276605
C17   C     C_R   0.835814 0.739287 0.506362 -0.062448
C18   C     C_R   0.777758 0.682408 0.520890 -0.096406
C19   C     C_R   0.694088 0.679720 0.501627 -0.054099
C20   C     C_R   0.668821 0.728053 0.466217 -0.206347
H8    H     H_    0.708101 0.826935 0.434385 0.158793
C21   C     C_R   0.727830 0.786498 0.457155 -0.181104
C22   C     C_R   0.813129 0.797180 0.483090 -0.034884
H9    H     H_    0.775466 0.626621 0.736263 0.169314
C23   C     C_R   0.585073 0.338776 0.627063 -0.228568
H10   H     H_    0.528426 0.339069 0.584596 0.162610
C24   C     C_R   0.575135 0.259736 0.621141 -0.211007
H11   H     H_    0.512539 0.201283 0.574375 0.161329
C25   C     C_R   0.647021 0.255163 0.672004 0.540531
C26   C     C_R   0.726542 0.331365 0.734847 -0.222646
H12   H     H_    0.780857 0.324749 0.772070 0.157745
C27   C     C_R   0.736657 0.412962 0.744360 0.007794
C28   C     C_R   0.667248 0.415233 0.685426 0.081930
C29   C     C_R   0.682496 0.493785 0.685376 -0.159984
C30   C     C_R   0.763276 0.568884 0.742366 -0.237829
C31   C     C_R   0.830722 0.569019 0.803412 0.516845
C32   C     C_R   0.815966 0.491857 0.807319 -0.155367
H13   H     H_    0.300709 0.207347 0.397899 0.163419
C33   C     C_R   0.252487 0.415790 0.563422 0.298689
C34   C     C_R   0.234905 0.443759 0.631536 -0.315571
H14   H     H_    0.234085 0.504816 0.654153 0.238385
C35   C     C_R   0.222664 0.395763 0.673627 0.224386
C36   C     C_R   0.214373 0.311805 0.638616 0.141556
C37   C     C_R   0.219827 0.279098 0.561833 -0.100662
C38   C     C_R   0.257166 0.337620 0.537095 -0.032922
C39   C     C_R   0.297923 0.314665 0.487462 -0.035154
C40   C     C_R   0.274139 0.227470 0.439794 -0.193895
H15   H     H_    0.192787 0.097242 0.404911 0.126800
C41   C     C_R   0.215612 0.165153 0.446013 -0.192299
C42   C     C_R   0.189747 0.190578 0.507697 0.017653
O9    O     O_R   0.951420 0.539930 0.094700 -0.561775
O10   O     O_R   0.054880 0.643340 0.094680 -0.654059
C43   C     C_R   0.998313 0.619285 0.119344 0.830004
O11   O     O_R   0.044450 0.448300 0.096090 -0.582226
O12   O     O_R   0.147910 0.551710 0.096070 -0.587461
C44   C     C_R   0.125152 0.503062 0.126909 0.960986
Zn3   Zn    Zn3+2 0.934790 0.430970 0.003790 1.107879
Zn4   Zn    Zn3+2 0.072940 0.569060 0.003760 1.087920
O13   O     O_R   0.952850 0.356690 0.912870 -0.630709
O14   O     O_R   0.056310 0.460100 0.912850 -0.573098
O15   O     O_R   0.859820 0.448320 0.911480 -0.588292
O16   O     O_R   0.963280 0.551730 0.911460 -0.591325
C45   C     C_R   0.008685 0.379708 0.887809 0.897580
C46   C     C_R   0.882770 0.496032 0.878815 0.878443
O17   O     O_R   0.947150 0.091620 0.538830 -0.659773
O18   O     O_R   0.051390 0.091590 0.643040 -0.551608
C47   C     C_R   0.994578 0.116620 0.618227 0.964970
O19   O     O_R   0.856260 0.908400 0.447890 -0.625332
O20   O     O_R   0.960490 0.908380 0.552100 -0.593450
C48   C     C_R   0.879664 0.874371 0.494216 0.964376
Zn5   Zn    Zn3+2 0.930400 0.000020 0.430430 1.029551
Zn6   Zn    Zn3+2 0.069600 0.999990 0.569590 1.106090
O21   O     O_R   0.948610 0.908430 0.356980 -0.615081
O22   O     O_R   0.052850 0.908400 0.461190 -0.585950
O23   O     O_R   0.039510 0.091640 0.447910 -0.627892
O24   O     O_R   0.143740 0.091610 0.552120 -0.582092
C49   C     C_R   0.008770 0.887442 0.380921 0.915932
C50   C     C_R   0.120834 0.123234 0.504013 0.839427
H16   H     H_    0.107207 0.696934 0.285337 0.130520
C51   C     C_R   0.854223 0.670842 0.082650 0.123253
C52   C     C_R   0.808365 0.715511 0.060883 0.355868
C53   C     C_R   0.843862 0.804401 0.117840 0.192379
C54   C     C_R   0.920824 0.845454 0.196631 -0.300044
H17   H     H_    0.948694 0.914244 0.237923 0.216238
C55   C     C_R   0.958425 0.798125 0.224168 0.033296
C56   C     C_R   0.935328 0.715983 0.162173 -0.081968
C57   C     C_R   0.994647 0.683393 0.184206 -0.003693
C58   C     C_R   0.061963 0.722162 0.269046 -0.178224
H18   H     H_    0.116791 0.816202 0.400109 0.190700
C59   C     C_R   0.069380 0.791549 0.333745 -0.110976
C60   C     C_R   0.015763 0.828393 0.312474 -0.068116
H19   H     H_    0.007061 0.376508 0.747550 0.182995
C61   C     C_R   0.024004 0.227058 0.903173 0.251086
C62   C     C_R   0.014462 0.148175 0.900274 0.379556
C63   C     C_R   0.981128 0.075874 0.822284 -0.367261
H20   H     H_    0.967855 0.013909 0.819319 0.186321
C64   C     C_R   0.961290 0.081939 0.747523 0.448580
C65   C     C_R   0.984673 0.164037 0.752007 -0.073666
C66   C     C_R   0.006989 0.235647 0.827785 -0.115043
C67   C     C_R   0.011339 0.312096 0.824007 -0.010472
C68   C     C_R   0.004390 0.319014 0.750901 -0.140291
H21   H     H_    0.993307 0.260606 0.627140 0.159170
C69   C     C_R   0.993075 0.252012 0.681093 -0.165352
C70   C     C_R   0.985379 0.175951 0.682290 -0.043418
N1    N     N_R   0.950870 0.751696 0.461162 0.221529
O25   O     O_R   0.898009 0.731887 0.383379 -0.397656
O26   O     O_R   0.031094 0.764859 0.481161 -0.398299
O27   O     O_3   0.639283 0.175653 0.660322 -0.631784
C71   C     C_3   0.661572 0.142919 0.596080 0.051462
H22   H     H_    0.734436 0.179789 0.622631 0.140972
H23   H     H_    0.626537 0.147240 0.537896 0.136385
C72   C     C_3   0.634387 0.047600 0.567729 -0.304472
H24   H     H_    0.669524 0.041829 0.624282 0.224547
H25   H     H_    0.561984 0.010664 0.542516 0.236361
C73   C     C_3   0.656253 0.008741 0.497547 -0.969794
H26   H     H_    0.619999 0.012408 0.439733 0.279068
H27   H     H_    0.635968 0.939574 0.478433 0.259387
H28   H     H_    0.728525 0.044127 0.521563 0.261535
O28   O     O_3   0.915459 0.638211 0.845865 -0.568833
C74   C     C_3   0.932203 0.704918 0.922530 0.115061
H29   H     H_    0.000963 0.729395 0.972252 0.189397
H30   H     H_    0.889490 0.682694 0.949321 0.074065
C75   C     C_3   0.926346 0.779559 0.908595 -0.393686
H31   H     H_    0.962252 0.794083 0.873587 0.264665
H32   H     H_    0.856094 0.760457 0.868652 0.193872
C76   C     C_3   0.966864 0.861559 0.994064 -0.916115
H33   H     H_    0.934105 0.848687 0.031734 0.257983
H34   H     H_    0.958233 0.913053 0.981432 0.282736
H35   H     H_    0.038748 0.885151 0.032694 0.265236
N2    N     N_R   0.253542 0.460290 0.514429 0.226613
O29   O     O_R   0.222635 0.416548 0.431688 -0.450632
O30   O     O_R   0.274838 0.541950 0.549635 -0.386629
N3    N     N_R   0.221331 0.434291 0.752639 0.248964
O31   O     O_R   0.278827 0.443964 0.822978 -0.252237
O32   O     O_R   0.176356 0.475730 0.758370 -0.364619
N4    N     N_R   0.216941 0.267503 0.687933 0.225720
O33   O     O_R   0.177302 0.271089 0.733828 -0.346091
O34   O     O_R   0.273734 0.238909 0.701013 -0.328755
N5    N     N_R   0.809579 0.577982 0.032822 0.236198
O35   O     O_R   0.795899 0.532913 0.071200 -0.307044
O36   O     O_R   0.763429 0.539450 0.949215 -0.390372
O37   O     O_3   0.723931 0.669393 0.990031 -0.538411
C77   C     C_3   0.725125 0.688871 0.924015 0.121258
H36   H     H_    0.745599 0.648202 0.886011 0.131670
H37   H     H_    0.771090 0.758170 0.949382 0.139782
C78   C     C_3   0.631855 0.666961 0.862833 -0.245903
H38   H     H_    0.591393 0.595631 0.819318 0.226665
H39   H     H_    0.599576 0.687678 0.900265 0.277763
C79   C     C_3   0.634159 0.712216 0.808963 -0.889508
H40   H     H_    0.663476 0.783147 0.850657 0.273260
H41   H     H_    0.565827 0.687132 0.758081 0.269784
H42   H     H_    0.674569 0.700833 0.778084 0.256774
N6    N     N_R   0.798472 0.851924 0.100255 0.216996
O38   O     O_R   0.843247 0.934419 0.128186 -0.390524
O39   O     O_R   0.712755 0.815894 0.065846 -0.330435
N7    N     N_R   0.304927 0.504783 0.132677 0.247612
O40   O     O_R   0.326046 0.446931 0.098746 -0.318759
O41   O     O_R   0.318705 0.569134 0.117111 -0.327905
N8    N     N_R   0.062159 0.299849 0.985401 0.196603
O42   O     O_R   0.137897 0.364743 0.013925 -0.416710
O43   O     O_R   0.033716 0.292238 0.038503 -0.381060
O44   O     O_3   0.031207 0.139983 0.973332 -0.590629
C80   C     C_3   0.119401 0.156046 0.013551 0.121135
H43   H     H_    0.166737 0.219050 0.024744 0.177029
H44   H     H_    0.126771 0.102692 0.972895 0.138530
C81   C     C_3   0.142163 0.160238 0.100913 -0.306573
H45   H     H_    0.134510 0.213157 0.141601 0.248531
H46   H     H_    0.095685 0.097969 0.091181 0.235352
C82   C     C_3   0.236823 0.177029 0.147878 -0.947669
H47   H     H_    0.245290 0.123569 0.109474 0.270525
H48   H     H_    0.251334 0.180729 0.211369 0.269460
H49   H     H_    0.284648 0.239305 0.158930 0.272999
O45   O     O_3   0.909288 0.006150 0.669237 -0.647361
C83   C     C_3   0.819048 0.982338 0.643837 0.043093
H50   H     H_    0.782797 0.952602 0.572829 0.163533
H51   H     H_    0.807450 0.038541 0.669212 0.135254
C84   C     C_3   0.779927 0.916117 0.669701 -0.344243
H52   H     H_    0.790352 0.859847 0.643031 0.238889
H53   H     H_    0.813675 0.945406 0.740872 0.224542
C85   C     C_3   0.681369 0.885221 0.637879 -0.905611
H54   H     H_    0.671419 0.938789 0.673477 0.264647
H55   H     H_    0.653559 0.831032 0.649640 0.279052
H56   H     H_    0.645093 0.862294 0.567825 0.257753
O46   O     O_3   0.746470 0.559512 0.548535 -0.627525
C86   C     C_3   0.745068 0.482189 0.497549 0.181101
H57   H     H_    0.720594 0.434023 0.517383 0.170454
H58   H     H_    0.811391 0.490420 0.508189 0.151199
C87   C     C_3   0.683544 0.442938 0.400759 -0.378295
H59   H     H_    0.613635 0.415142 0.386338 0.249226
H60   H     H_    0.697650 0.493769 0.381674 0.246152
C88   C     C_3   0.695268 0.370316 0.346680 -0.924910
H61   H     H_    0.763761 0.396006 0.356708 0.283959
H62   H     H_    0.648359 0.341859 0.277274 0.284756
H63   H     H_    0.681600 0.318518 0.364517 0.259218
N9    N     N_R   0.936097 0.622552 0.643352 0.219097
O47   O     O_R   0.895198 0.589651 0.678450 -0.355272
O48   O     O_R   0.014809 0.631210 0.662438 -0.351699

loop_
_geom_bond_atom_site_label_1
_geom_bond_atom_site_label_2
_geom_bond_distance
_ccdc_geom_bond_type
C5    H2    1.110376 S    
C84   H53   1.108211 S    
H16   C58   1.084500 S    
C71   H22   1.115041 S    
C64   O45   1.380031 S    
O21   C49   1.276478 A    
C76   H35   1.110751 S    
O46   C86   1.429038 S    
Zn5   O21   2.009332 S    
C25   O27   1.379531 S    
N2    O29   1.300943 A    
C75   C76   1.526287 S    
C63   C64   1.389293 A    
C64   C65   1.420410 A    
C26   C27   1.416920 A    
C53   N6    1.438422 S    
C15   H7    1.082144 S    
N7    O40   1.300671 A    
C66   C67   1.432847 A    
Zn1   O7    2.027769 S    
C74   H30   1.111272 S    
C49   C60   1.464799 S    
O45   C83   1.419433 S    
O27   C71   1.413651 S    
Zn3   O13   2.012161 S    
O18   C47   1.283873 A    
C65   C70   1.409919 A    
H6    C20   1.084854 S    
C22   C48   1.455932 S    
C19   C20   1.393125 A    
N2    O30   1.301495 A    
C75   H32   1.109563 S    
C81   H46   1.111917 S    
O37   C77   1.415439 S    
C14   N9    1.443099 S    
O4    C2    1.270778 A    
O7    C4    1.279788 A    
C43   C57   1.435250 S    
C76   H33   1.108060 S    
C87   C88   1.526306 S    
C84   C85   1.526080 S    
H18   C59   1.082725 S    
C85   H54   1.109858 S    
O9    Zn3   2.025131 S    
C65   C66   1.409370 A    
C62   O44   1.382253 S    
C8    N7    1.457451 S    
C33   C34   1.399670 A    
C76   H34   1.110485 S    
C17   C18   1.415967 A    
C51   N5    1.435574 S    
C85   H55   1.110361 S    
O5    C3    1.286197 A    
C61   C62   1.408387 A    
C57   C58   1.397590 A    
C10   H4    1.108061 S    
C55   C56   1.400275 A    
C36   N4    1.437865 S    
C7    C8    1.523869 S    
C80   H44   1.114238 S    
C73   H26   1.110947 S    
C86   C87   1.535017 S    
C11   C12   1.533166 S    
C15   C16   1.391443 A    
C55   C60   1.424788 A    
C87   H59   1.109073 S    
C11   H5    1.107096 S    
Zn6   O22   2.028083 S    
H9    C30   1.084193 S    
C88   H63   1.110992 S    
C80   C81   1.528588 S    
O12   C44   1.270716 A    
C72   C73   1.526926 S    
C87   H60   1.111252 S    
C84   H52   1.109492 S    
C35   C36   1.417364 A    
C42   C50   1.433126 S    
C9    C10   1.549519 S    
C79   H41   1.110476 S    
C35   N3    1.434641 S    
Zn4   O16   2.012728 S    
O10   C43   1.285560 A    
C31   O28   1.387533 S    
C23   C24   1.390458 A    
O3    Zn1   2.009108 S    
C63   H20   1.082898 S    
C24   C25   1.394508 A    
H19   C68   1.084183 S    
C51   C52   1.418852 A    
O19   C48   1.284410 A    
C6    C7    1.535216 S    
C5    C8    1.529410 S    
O18   Zn6   2.009460 S    
C74   C75   1.532591 S    
C13   O46   1.388962 S    
C5    C6    1.551873 S    
C83   H50   1.105637 S    
C26   H12   1.080632 S    
Zn5   O23   2.009476 S    
C7    C44   1.443263 S    
C7    C10   1.536267 S    
C75   H31   1.111780 S    
O3    C2    1.277303 A    
C86   H57   1.110287 S    
C81   C82   1.526150 S    
C88   H61   1.110923 S    
C21   C22   1.392996 A    
O16   C46   1.275109 A    
O20   C48   1.283898 A    
C6    H1    1.110190 S    
C71   C72   1.526429 S    
C28   C29   1.405311 A    
C47   C70   1.439884 S    
C31   C32   1.412822 A    
O6    C3    1.285444 A    
O23   C50   1.288199 A    
C29   C30   1.388275 A    
C36   C37   1.422777 A    
O1    C1    1.268989 A    
C18   C19   1.429289 A    
C40   C41   1.378399 A    
C85   H56   1.109168 S    
C81   H45   1.112101 S    
C77   C78   1.530227 S    
C13   C14   1.422453 A    
O11   Zn3   2.012729 S    
C58   C59   1.381199 A    
C37   C42   1.414303 A    
C4    C29   1.425558 S    
C3    C39   1.458114 S    
C14   C15   1.390404 A    
Zn2   O8    2.009109 S    
C2    C12   1.433614 S    
H13   C40   1.083221 S    
C78   C79   1.527861 S    
C38   C39   1.418478 A    
C54   C55   1.407680 A    
C83   H51   1.117330 S    
C69   C70   1.392159 A    
C30   C31   1.378856 A    
C52   O37   1.388429 S    
Zn4   O14   2.025133 S    
C51   C56   1.429810 A    
N7    O41   1.300236 A    
C86   H58   1.110243 S    
C23   C28   1.413357 A    
C73   H27   1.110568 S    
C5    C12   1.533152 S    
O8    C4    1.273072 A    
C27   C28   1.406517 A    
C6    C11   1.547908 S    
O17   C47   1.275887 A    
Zn3   O15   2.023869 S    
C79   H40   1.110892 S    
N3    O32   1.301160 A    
N4    O34   1.301383 A    
C23   H10   1.081892 S    
C59   C60   1.395524 A    
C82   H48   1.110679 S    
C61   C66   1.428017 A    
C24   H11   1.082902 S    
O19   Zn5   2.020255 S    
O11   C44   1.279083 A    
C72   H24   1.109141 S    
O14   C45   1.288596 A    
Zn1   O5    2.008528 S    
C9    H3    1.109650 S    
C25   C26   1.399671 A    
N5    O35   1.301201 A    
C71   H23   1.117475 S    
C62   C63   1.383179 A    
C78   H39   1.111157 S    
C8    C9    1.530928 S    
O1    Zn1   2.021355 S    
Zn2   O6    2.021355 S    
O2    Zn2   2.008526 S    
O13   C45   1.276139 A    
N9    O48   1.301790 A    
O28   C74   1.412877 S    
O20   Zn6   2.009302 S    
O4    Zn2   2.027770 S    
C16   N1    1.436186 S    
H21   C69   1.084124 S    
C61   N8    1.417914 S    
O44   C80   1.411747 S    
C74   H29   1.111157 S    
C13   C18   1.436147 A    
N3    O31   1.301182 A    
C53   C54   1.393626 A    
C77   H36   1.106616 S    
C33   N2    1.437115 S    
N5    O36   1.300211 A    
O2    C1    1.292254 A    
N1    O25   1.301612 A    
C83   C84   1.535452 S    
C20   C21   1.373579 A    
C88   H62   1.110419 S    
C67   C68   1.396884 A    
O22   C49   1.300250 A    
O15   C46   1.286405 A    
O12   Zn4   2.023871 S    
C34   H14   1.082957 S    
H8    C21   1.083407 S    
O10   Zn4   2.012161 S    
N6    O39   1.300921 A    
C1    C19   1.433181 S    
C82   H49   1.110707 S    
C73   H28   1.111535 S    
O17   Zn5   2.028170 S    
C45   C67   1.451179 S    
N8    O43   1.299845 A    
C54   H17   1.081310 S    
C52   C53   1.411665 A    
C16   C17   1.419311 A    
C41   C42   1.393224 A    
C33   C38   1.417297 A    
Zn6   O24   2.020382 S    
C37   C38   1.400431 A    
C68   C69   1.376680 A    
C78   H38   1.111983 S    
C34   C35   1.398266 A    
N8    O42   1.296355 A    
C39   C40   1.400752 A    
N9    O47   1.298568 A    
C79   H42   1.109995 S    
O24   C50   1.270482 A    
H15   C41   1.084428 S    
N6    O38   1.301433 A    
C9    C12   1.530792 S    
C56   C57   1.417149 A    
O9    C43   1.271920 A    
C10   C11   1.542820 S    
C17   C22   1.420522 A    
C72   H25   1.112149 S    
C82   H47   1.110855 S    
N1    O26   1.301704 A    
C32   C46   1.447171 S    
C80   H43   1.116217 S    
C27   C32   1.419480 A    
C77   H37   1.113616 S    
N4    O33   1.299128 A    
