data_mof_unit_67111.cif
_audit_creation_date              2013-03-05T15:58:40-0500
_audit_creation_method            fapswitch 2.2
_symmetry_space_group_name_H-M    P1
_symmetry_Int_Tables_number       1
_space_group_crystal_system       triclinic
_cell_length_a                    8.502196
_cell_length_b                    13.202325
_cell_length_c                    15.126459
_cell_angle_alpha                 97.575812
_cell_angle_beta                  98.197052
_cell_angle_gamma                 99.855538
_cell_volume                      1634.38791199

loop_
_atom_site_label
_atom_site_type_symbol
_atom_site_description
_atom_site_fract_x
_atom_site_fract_y
_atom_site_fract_z
_atom_type_partial_charge
P1    P     P_3+3 0.998770 0.403620 0.291990 0.574553
O1    O     O_2   0.827930 0.435360 0.277760 -0.353240
O2    O     O_3   0.100310 0.439010 0.391180 -0.335032
O3    O     O_3   0.625610 0.634200 0.333270 -0.358714
O4    O     O_2   0.698324 0.543783 0.180244 -0.307171
O5    O     O_3   0.939273 0.269671 0.268788 -0.625434
O6    O     O_3   0.647790 0.732871 0.182209 -0.559690
C1    C     C_3   0.645073 0.918914 0.218600 -1.049586
H1    H     H_    0.768980 0.945894 0.256871 0.288994
H2    H     H_    0.641325 0.925903 0.146047 0.288871
P2    P     P_3+3 0.687370 0.751000 0.571300 0.607698
P3    P     P_3+3 0.101290 0.823367 0.371276 0.606051
O7    O     O_2   0.857120 0.766320 0.543890 -0.319619
O8    O     O_3   0.056570 0.691100 0.379020 -0.245112
O9    O     O_2   0.014228 0.869733 0.444697 -0.303923
O10   O     O_3   0.704132 0.812348 0.685700 -0.658762
O11   O     O_3   0.976869 0.846073 0.273672 -0.574492
C2    C     C_3   0.040376 0.830363 0.192594 0.848100
H3    H     H_    0.167412 0.872482 0.203915 0.023738
C3    C     C_3   0.948173 0.875350 0.117440 -0.845026
C4    C     C_3   0.281811 0.786429 0.680502 0.308871
H4    H     H_    0.396155 0.777297 0.656405 0.075958
H5    H     H_    0.176884 0.766463 0.624486 0.175631
C5    C     C_3   0.296165 0.897522 0.724247 -0.127686
H6    H     H_    0.412705 0.922536 0.770067 0.126202
H7    H     H_    0.199534 0.904912 0.765523 0.228254
Ba1   Ba    Ba6+2 0.843760 0.550230 0.455610 1.814944
C6    C     C_3   0.060080 0.221142 0.305875 0.622420
H8    H     H_    0.181845 0.272301 0.323651 0.062862
C7    C     C_3   0.067789 0.129374 0.236022 -0.151109
H9    H     H_    0.939721 0.093896 0.209531 0.133451
H10   H     H_    0.132493 0.072838 0.266684 0.100638
C8    C     C_3   0.766015 0.771064 0.762499 0.818094
C9    C     C_3   0.773586 0.855676 0.845404 -0.151533
H11   H     H_    0.659292 0.885714 0.840172 0.108726
P4    P     P_3+3 0.190950 0.596470 0.708020 0.617742
O12   O     O_2   0.361790 0.564680 0.722290 -0.312510
O13   O     O_3   0.089410 0.561080 0.608830 -0.325501
O14   O     O_3   0.564100 0.365890 0.666740 -0.381754
O15   O     O_3   0.259342 0.728290 0.748239 -0.538656
P5    P     P_3+3 0.077376 0.173064 0.616375 0.637829
O16   O     O_3   0.601940 0.368260 0.453780 -0.381883
O17   O     O_3   0.133140 0.308990 0.620990 -0.345154
O18   O     O_2   0.191692 0.126568 0.558828 -0.262039
O19   O     O_3   0.133650 0.142229 0.724326 -0.560912
Ba2   Ba    Ba6+2 0.346080 0.449860 0.544400 1.764029
P6    P     P_3+3 0.581403 0.610891 0.214453 0.566056
C10   C     C_3   0.577007 0.807705 0.229726 0.883801
O20   O     O_3   0.587770 0.631830 0.546230 -0.287833
C11   C     C_3   0.570268 0.248550 0.271208 0.223906
H12   H     H_    0.534204 0.324008 0.261952 0.142974
H13   H     H_    0.691403 0.263844 0.313445 0.131581
C12   C     C_3   0.579840 0.186388 0.179898 -0.037625
H14   H     H_    0.650322 0.124764 0.191630 0.106530
P7    P     P_3+3 0.504762 0.232183 0.429247 0.441335
O21   O     O_2   0.332600 0.233710 0.456170 -0.346897
O22   O     O_3   0.455126 0.191824 0.312352 -0.620352
C13   C     C_3   0.160717 0.230784 0.792156 0.510183
C14   C     C_3   0.236320 0.200128 0.880479 -0.036983
P8    P     P_3+3 0.614769 0.389581 0.784708 0.593349
C15   C     C_3   0.570095 0.185595 0.759885 0.264570
H15   H     H_    0.616475 0.203708 0.697802 0.093314
O23   O     O_2   0.487719 0.447330 0.820380 -0.332572
O24   O     O_3   0.589097 0.272185 0.828462 -0.498903
H16   H     H_    0.439795 0.152520 0.739893 0.113356
H17   H     H_    0.785713 0.121987 0.785208 0.195742
C16   C     C_3   0.659265 0.102746 0.793649 -0.046813
H18   H     H_    0.617693 0.026902 0.749741 0.092312
C17   C     C_R   0.368866 0.540944 0.165087 0.219028
H19   H     H_    0.342307 0.476271 0.286521 0.147859
H20   H     H_    0.508469 0.623653 0.033370 0.169119
C18   C     C_R   0.111753 0.456276 0.201898 0.274724
C19   C     C_R   0.919786 0.495737 0.769003 -0.271618
C20   C     C_R   0.820824 0.462643 0.829603 0.373393
C21   C     C_R   0.884625 0.468280 0.921135 -0.133246
C22   C     C_R   0.051929 0.503470 0.953917 0.102790
C23   C     C_R   0.150037 0.544269 0.891535 -0.059322
C24   C     C_R   0.124347 0.500645 0.046641 0.143409
C25   C     C_R   0.292874 0.543636 0.075345 0.041412
C26   C     C_R   0.381384 0.589487 0.014130 -0.015474
C27   C     C_R   0.310316 0.592003 0.925759 0.009499
C28   C     C_R   0.035418 0.459291 0.112580 -0.059412
C29   C     C_R   0.279793 0.489134 0.222815 -0.248225
C30   C     C_R   0.083706 0.537467 0.796949 0.227653
H21   H     H_    0.907014 0.430440 0.096802 0.181540
H22   H     H_    0.802324 0.438443 0.963727 0.179512
C31   C     C_R   0.756002 0.175289 0.538498 -0.356212
C32   C     C_R   0.420945 0.806751 0.455472 0.038938
C33   C     C_R   0.391109 0.978958 0.420923 -0.237638
C34   C     C_R   0.325037 0.873080 0.415174 0.135566
C35   C     C_R   0.580881 0.844464 0.503501 0.073798
C36   C     C_R   0.644041 0.955771 0.510932 -0.043330
C37   C     C_R   0.547725 0.022971 0.469357 0.054448
C38   C     C_R   0.605667 0.134271 0.484763 0.188710
C39   C     C_R   0.859625 0.111669 0.569381 0.350224
C40   C     C_R   0.799047 0.003454 0.560800 -0.151882
H23   H     H_    0.314337 0.027923 0.392479 0.177378
H24   H     H_    0.871402 0.956848 0.594401 0.230444
H25   H     H_    0.599737 0.806340 0.303775 0.020063
N1    N     N_R   0.280223 0.960860 0.654593 0.235275
O25   O     O_R   0.406613 0.999495 0.622722 -0.491877
O26   O     O_R   0.139539 0.947307 0.604954 -0.354215
N2    N     N_R   0.012388 0.187646 0.386940 0.202996
O27   O     O_R   0.960663 0.089978 0.391162 -0.474856
O28   O     O_R   0.992322 0.259527 0.448917 -0.406550
N3    N     N_R   0.145671 0.162618 0.162169 0.283099
O29   O     O_R   0.241349 0.252871 0.173250 -0.421285
O30   O     O_R   0.137707 0.096416 0.089302 -0.305926
N4    N     N_R   0.926512 0.752686 0.758748 0.194695
O31   O     O_R   0.020669 0.749378 0.833820 -0.409106
O32   O     O_R   0.943001 0.697808 0.685182 -0.416694
N5    N     N_R   0.665118 0.673141 0.770812 0.181861
O33   O     O_R   0.651121 0.595075 0.706543 -0.355740
O34   O     O_R   0.648517 0.652314 0.851019 -0.488251
N6    N     N_R   0.910531 0.941075 0.850380 0.269882
O35   O     O_R   0.024767 0.962333 0.920750 -0.313011
O36   O     O_R   0.934529 0.982220 0.778839 -0.427179
H26   H     H_    0.787560 0.823745 0.909853 0.165651
N7    N     N_R   0.405655 0.786532 0.196178 0.158227
O37   O     O_R   0.352714 0.795046 0.112896 -0.399383
O38   O     O_R   0.311599 0.735641 0.242066 -0.513749
H27   H     H_    0.570131 0.971523 0.247841 0.219060
H28   H     H_    0.457739 0.147630 0.143288 0.204215
N8    N     N_R   0.657614 0.254141 0.123676 0.269209
O39   O     O_R   0.595624 0.332330 0.101324 -0.328657
O40   O     O_R   0.787762 0.235803 0.094132 -0.296023
H29   H     H_    0.021291 0.883394 0.062818 0.299798
H30   H     H_    0.248106 0.295154 0.775719 0.075120
N9    N     N_R   0.008769 0.265723 0.803354 0.178957
O41   O     O_R   0.918034 0.287454 0.734767 -0.545530
O42   O     O_R   0.956745 0.269757 0.880264 -0.383201
H31   H     H_    0.343132 0.166528 0.871222 0.154257
N10   N     N_R   0.282115 0.289231 0.952582 0.262122
O43   O     O_R   0.196980 0.297069 0.016695 -0.289130
O44   O     O_R   0.408777 0.360341 0.954478 -0.338943
H32   H     H_    0.148141 0.139133 0.900509 0.231681
N11   N     N_R   0.022723 0.719792 0.157809 0.261227
O45   O     O_R   0.983095 0.649628 0.207038 -0.329966
O46   O     O_R   0.031482 0.690644 0.073432 -0.403435
N12   N     N_R   0.650340 0.092125 0.887891 0.289034
O47   O     O_R   0.515473 0.049491 0.910408 -0.405387
O48   O     O_R   0.783658 0.104681 0.945512 -0.232088
H33   H     H_    0.868439 0.486487 0.698071 0.173894
H34   H     H_    0.382581 0.632463 0.884105 0.201929
H35   H     H_    0.797616 0.258887 0.551589 0.185643
N13   N     N_R   0.352977 0.699412 0.450215 0.245189
O49   O     O_R   0.347041 0.635108 0.377459 -0.384847
O50   O     O_R   0.280841 0.666305 0.513499 -0.394673
H36   H     H_    0.830422 0.823459 0.087457 0.267257
H37   H     H_    0.923261 0.950747 0.140254 0.226131

loop_
_geom_bond_atom_site_label_1
_geom_bond_atom_site_label_2
_geom_bond_distance
_ccdc_geom_bond_type
C9    H26   1.111183 S    
P7    O21   1.576951 D    
C13   H30   1.108300 S    
C37   C38   1.444080 A    
C2    N11   1.459567 S    
C19   C20   1.392408 A    
C39   C40   1.415413 A    
C6    N2    1.444649 S    
N5    O34   1.300385 A    
C12   H14   1.107771 S    
N11   O46   1.300016 A    
Ba2   O20   2.875982 S    
P8    O23   1.542387 D    
C17   C29   1.404512 A    
P3    C34   1.894212 S    
P4    O12   1.573441 D    
C22   C24   1.457090 A    
P1    O1    1.573124 D    
N4    O32   1.284352 A    
C7    H9    1.103212 S    
O16   P7    1.810117 S    
N3    O29   1.298563 A    
C13   N9    1.468418 S    
N6    O35   1.299328 A    
C31   C38   1.392268 A    
C14   H32   1.106697 S    
C36   C40   1.417544 A    
C3    H36   1.109561 S    
C9    H11   1.107293 S    
O16   Ba2   3.005831 S    
C24   C28   1.442902 A    
P6    C17   1.880929 S    
C27   H34   1.070807 S    
O5    C6    1.391378 S    
C3    H37   1.075763 S    
C1    H1    1.102312 S    
N6    O36   1.299156 A    
C40   H24   1.066898 S    
P3    O11   1.780053 S    
C11   H13   1.103107 S    
P3    O9    1.538288 D    
P4    Ba2   3.486166 S    
O1    Ba1   2.882109 S    
C23   C27   1.393189 A    
O8    Ba1   2.844077 S    
C19   C30   1.390073 A    
O12   Ba2   2.882546 S    
H17   C16   1.091256 S    
C4    H4    1.105485 S    
C7    N3    1.455973 S    
N10   O44   1.296116 A    
P5    O17   1.765301 S    
P7    C38   1.890141 S    
N5    O33   1.297058 A    
C11   H12   1.111388 S    
C10   N7    1.438920 S    
N13   O50   1.292096 A    
C22   C23   1.442569 A    
N7    O38   1.292310 A    
O19   C13   1.413085 S    
C14   H31   1.094946 S    
C11   C12   1.530977 S    
C20   C21   1.400583 A    
N13   O49   1.287482 A    
C16   H18   1.097834 S    
P1    C18   1.912508 S    
P4    O15   1.735077 S    
C5    H6    1.096821 S    
C3    H29   1.107886 S    
C12   H28   1.107118 S    
C35   C36   1.459301 A    
C24   C25   1.429315 A    
C2    H3    1.105291 S    
C23   C30   1.446329 A    
C13   C14   1.532539 S    
C14   N10   1.452168 S    
P1    O5    1.727980 S    
C33   H23   1.080178 S    
P1    O2    1.588238 S    
O6    P6    1.767581 S    
C15   O24   1.409025 S    
C21   C22   1.413147 A    
C1    C10   1.523458 S    
P7    O22   1.746534 S    
P2    O20   1.622118 S    
C15   H16   1.101579 S    
O10   C8    1.419260 S    
O4    P6    1.538908 D    
P2    O10   1.786453 S    
C15   C16   1.533878 S    
C21   H22   1.077497 S    
C32   C35   1.419843 A    
P2    Ba1   3.535991 S    
N1    O26   1.289077 A    
O11   C2    1.413790 S    
N2    O28   1.294225 A    
C8    N5    1.455002 S    
N12   O47   1.299482 A    
H19   C29   1.080706 S    
O14   Ba2   2.890651 S    
Ba1   Ba2   4.651311 S    
C32   C34   1.430660 A    
C4    H5    1.108310 S    
N10   O43   1.294033 A    
P5    O18   1.543965 D    
C17   C25   1.425461 A    
C8    N4    1.433858 S    
P4    O13   1.588239 S    
O3    Ba1   2.891330 S    
N8    O40   1.298827 A    
N9    O41   1.296070 A    
C19   H33   1.081831 S    
C10   H25   1.112240 S    
C16   N12   1.462029 S    
C31   C39   1.392598 A    
C6    H8    1.110692 S    
P5    O19   1.755058 S    
C31   H35   1.082243 S    
C5    N1    1.434624 S    
C11   O22   1.397216 S    
C5    H7    1.109940 S    
P3    O8    1.745548 S    
C26   C27   1.393317 A    
C12   N8    1.455712 S    
H20   C26   1.079127 S    
N7    O37   1.301999 A    
N12   O48   1.299170 A    
C28   H21   1.073907 S    
N11   O45   1.293332 A    
O2    Ba2   2.861380 S    
P8    O24   1.756057 S    
O6    C10   1.412291 S    
O2    Ba1   3.031340 S    
C9    N6    1.461426 S    
C6    C7    1.515918 S    
N4    O31   1.303125 A    
C7    H10   1.110842 S    
P2    O7    1.545510 D    
Ba1   O16   2.876614 S    
C1    H27   1.111263 S    
P5    C39   1.883864 S    
C4    O15   1.374230 S    
N3    O30   1.299163 A    
P4    C30   1.905417 S    
O14   P8    1.747887 S    
P8    C20   1.835852 S    
C36   C37   1.449887 A    
C8    C9    1.551653 S    
C2    C3    1.530662 S    
C33   C37   1.411451 A    
C15   H15   1.107752 S    
O17   Ba2   2.844720 S    
O13   Ba2   3.032202 S    
C18   C29   1.397228 A    
C25   C26   1.407368 A    
P2    C35   1.960990 S    
C1    H2    1.109834 S    
C4    C5    1.504566 S    
Ba2   O21   2.962773 S    
N2    O27   1.302202 A    
P1    Ba1   3.485583 S    
C32   N13   1.423152 S    
O7    Ba1   2.962494 S    
N1    O25   1.293159 A    
Ba1   O13   2.860761 S    
C33   C34   1.400816 A    
C18   C28   1.421668 A    
Ba1   O20   3.006771 S    
N8    O39   1.298131 A    
N9    O42   1.300152 A    
O3    P6    1.757307 S    
