data_mof_unit_47509.cif
_audit_creation_date              2013-03-05T15:52:20-0500
_audit_creation_method            fapswitch 2.2
_symmetry_space_group_name_H-M    P1
_symmetry_Int_Tables_number       1
_space_group_crystal_system       triclinic
_cell_length_a                    10.647435
_cell_length_b                    10.744355
_cell_length_c                    17.005125
_cell_angle_alpha                 80.990967
_cell_angle_beta                  99.09933
_cell_angle_gamma                 118.696871
_cell_volume                      1677.64117702

loop_
_atom_site_label
_atom_site_type_symbol
_atom_site_description
_atom_site_fract_x
_atom_site_fract_y
_atom_site_fract_z
_atom_type_partial_charge
O1    O     O_R   0.754020 0.497590 0.609930 -0.496944
O2    O     O_R   0.481420 0.271390 0.600630 -0.427648
C1    C     C_R   0.360844 0.228915 0.627339 0.592267
O3    O     O_R   0.263810 0.254550 0.589590 -0.513312
O4    O     O_R   0.300820 0.531200 0.560890 -0.519009
C2    C     C_R   0.368289 0.655408 0.585074 0.570431
O5    O     O_R   0.491480 0.744020 0.564270 -0.449990
O6    O     O_R   0.726290 0.693800 0.583010 -0.485815
C3    C     C_R   0.777300 0.619215 0.626641 0.545190
O7    O     O_R   0.747830 0.500190 0.434090 -0.544147
O8    O     O_R   0.475680 0.273800 0.437630 -0.470603
C4    C     C_R   0.381178 0.296182 0.388127 0.564778
O9    O     O_R   0.257620 0.257160 0.413750 -0.476720
O10   O     O_R   0.295080 0.533620 0.397890 -0.537871
C5    C     C_R   0.364914 0.654138 0.360975 0.547440
O11   O     O_R   0.485280 0.746620 0.388440 -0.459429
O12   O     O_R   0.720550 0.696220 0.420010 -0.448144
C6    C     C_R   0.778012 0.625624 0.402125 0.545072
Cr1   Cr    Cr6+3 0.608440 0.389080 0.519680 1.104278
Cr2   Cr    Cr6+3 0.288640 0.400090 0.490760 1.042056
Cr3   Cr    Cr6+3 0.602940 0.710800 0.489510 1.139857
O13   O     O_3   0.500010 0.499990 0.499980 -0.317263
C7    C     C_R   0.282518 0.733093 0.799727 -0.006642
C8    C     C_R   0.193960 0.602753 0.767841 -0.001389
C9    C     C_R   0.207712 0.582046 0.692274 -0.060985
C10   C     C_R   0.377951 0.831771 0.670326 0.192007
C11   C     C_R   0.365355 0.850452 0.748242 -0.145912
C12   C     C_3   0.164103 0.454016 0.800039 0.108785
C13   C     C_3   0.178862 0.431181 0.716647 -0.219264
C14   C     C_R   0.311096 0.691430 0.645885 0.017276
H1    H     H_    0.425034 0.955191 0.769713 0.155790
H2    H     H_    0.053835 0.388132 0.819326 0.128527
H3    H     H_    0.272725 0.414482 0.712608 0.175043
H4    H     H_    0.075824 0.353671 0.686699 0.138848
C15   C     C_1   0.823525 0.657146 0.705850 -0.020884
C16   C     C_1   0.851182 0.684522 0.773789 -0.012387
C17   C     C_1   0.344915 0.187244 0.709634 -0.038751
C18   C     C_1   0.321182 0.159683 0.778235 -0.034420
C19   C     C_1   0.335289 0.664683 0.277929 -0.032026
C20   C     C_1   0.323125 0.674564 0.207088 -0.034807
C21   C     C_R   0.870111 0.687028 0.168832 -0.022824
C22   C     C_R   0.909288 0.598873 0.224321 0.006971
C23   C     C_R   0.908179 0.596585 0.304642 -0.021443
C24   C     C_R   0.856753 0.796248 0.280175 0.183651
C25   C     C_R   0.857526 0.795702 0.197596 -0.147618
C26   C     C_3   0.867999 0.445250 0.227075 -0.244409
C27   C     C_3   0.870157 0.441134 0.316723 -0.246821
C28   C     C_R   0.859970 0.680279 0.332730 0.016389
H5    H     H_    0.848053 0.879077 0.156331 0.162357
H6    H     H_    0.953461 0.428607 0.208623 0.152443
H7    H     H_    0.758776 0.382998 0.196863 0.152892
H8    H     H_    0.763252 0.369677 0.337854 0.167592
H9    H     H_    0.959231 0.423305 0.350719 0.158561
C29   C     C_R   0.343299 0.197928 0.150805 0.028903
C30   C     C_R   0.276638 0.273620 0.169017 0.042460
C31   C     C_R   0.295077 0.311522 0.245348 -0.017457
C32   C     C_R   0.465881 0.221632 0.284422 -0.148069
C33   C     C_R   0.449656 0.185503 0.206899 -0.167170
C34   C     C_3   0.122756 0.244291 0.157987 -0.238092
C35   C     C_3   0.143872 0.285280 0.242219 -0.256615
C36   C     C_R   0.378927 0.274344 0.305770 0.014380
H10   H     H_    0.535475 0.194451 0.328925 0.160460
H11   H     H_    0.507484 0.132002 0.194442 0.159482
H12   H     H_    0.044849 0.130215 0.152568 0.167569
H13   H     H_    0.104415 0.320537 0.111519 0.167085
H14   H     H_    0.138934 0.384813 0.245034 0.127581
H15   H     H_    0.079453 0.194732 0.284521 0.228050
O14   O     O_R   0.163320 0.092900 0.874450 -0.473374
O15   O     O_R   0.934650 0.822080 0.882840 -0.489122
C37   C     C_R   0.891997 0.701872 0.855953 0.563598
O16   O     O_R   0.915520 0.604140 0.893670 -0.518682
O17   O     O_R   0.191760 0.638110 0.923230 -0.464424
C38   C     C_R   0.282313 0.749812 0.882924 0.576875
O18   O     O_R   0.406180 0.826930 0.920660 -0.480054
O19   O     O_R   0.358620 0.062870 0.901950 -0.524595
C39   C     C_R   0.284903 0.114637 0.857846 0.587029
O20   O     O_R   0.163910 0.085460 0.050210 -0.498987
O21   O     O_R   0.935200 0.815170 0.045770 -0.501792
C40   C     C_R   0.893413 0.694231 0.086481 0.566949
O22   O     O_R   0.916120 0.596690 0.069430 -0.510285
O23   O     O_R   0.192310 0.631200 0.086170 -0.506631
C41   C     C_R   0.312903 0.701376 0.123892 0.572908
O24   O     O_R   0.406770 0.819480 0.096420 -0.488238
O25   O     O_R   0.359170 0.055960 0.064880 -0.505647
C42   C     C_R   0.287932 0.112474 0.083376 0.576607
Cr4   Cr    Cr6+3 0.052530 0.947560 0.964210 1.063955
Cr5   Cr    Cr6+3 0.059970 0.626800 0.992920 1.040927
Cr6   Cr    Cr6+3 0.373320 0.938440 0.995370 1.052323
O26   O     O_3   0.161940 0.837600 0.984160 -0.305665
N1    N     N_R   0.466013 0.953578 0.619474 0.086830
O27   O     O_R   0.580766 0.058706 0.649866 -0.332913
O28   O     O_R   0.425068 0.965414 0.543622 -0.311550
N2    N     N_R   0.277346 0.448964 0.859889 0.095485
O29   O     O_R   0.412113 0.518806 0.845920 -0.339741
O30   O     O_R   0.243549 0.377897 0.929234 -0.316344
N3    N     N_R   0.847063 0.910109 0.308820 0.079633
O31   O     O_R   0.918048 0.959836 0.376063 -0.325134
O32   O     O_R   0.783622 0.976800 0.263323 -0.369532

loop_
_geom_bond_atom_site_label_1
_geom_bond_atom_site_label_2
_geom_bond_distance
_ccdc_geom_bond_type
C30   C31   1.377468 A    
N2    O29   1.302475 A    
C30   C34   1.498161 S    
O14   Cr4   2.052772 S    
C21   C22   1.391591 A    
C15   C16   1.193153 T    
O23   C41   1.260904 A    
C32   C33   1.393639 A    
C32   H10   1.080878 S    
O4    Cr2   1.930083 S    
C18   C39   1.413100 S    
O8    Cr1   1.927449 S    
C10   C11   1.406842 A    
O11   Cr3   2.060672 S    
C12   C13   1.520640 S    
O22   Cr5   2.041064 S    
C22   C26   1.485032 S    
O4    C2    1.274330 A    
C5    O11   1.257385 A    
C13   H3    1.110624 S    
C33   H11   1.083380 S    
C38   O18   1.298891 A    
C26   C27   1.515018 S    
C35   H15   1.109257 S    
O6    C3    1.261742 A    
N3    O32   1.301623 A    
C7    C8    1.397232 A    
C37   O16   1.252030 A    
C7    C11   1.401729 A    
C8    C12   1.499276 S    
C23   C28   1.398419 A    
C27   H9    1.112091 S    
Cr6   O26   1.965411 S    
O21   Cr4   1.931638 S    
O24   Cr6   2.066168 S    
C35   H14   1.104327 S    
C34   C35   1.515516 S    
N2    O30   1.300543 A    
Cr3   O13   1.978536 S    
C7    C38   1.454236 S    
C16   C37   1.409791 S    
O6    Cr3   1.940426 S    
C9    C13   1.498437 S    
O1    Cr1   2.046875 S    
C11   H1    1.082621 S    
C20   C41   1.396477 S    
C12   H2    1.112671 S    
Cr1   O13   1.984696 S    
O1    C3    1.277819 A    
C8    C9    1.379340 A    
C19   C20   1.184497 T    
O21   C40   1.275215 A    
O5    Cr3   2.044045 S    
C26   H7    1.111477 S    
O12   Cr3   1.924555 S    
C31   C35   1.488600 S    
C12   N2    1.466302 S    
C27   H8    1.103600 S    
O19   C39   1.261091 A    
C17   C18   1.193992 T    
C24   N3    1.438149 S    
O10   Cr2   1.946100 S    
N1    O28   1.301541 A    
C25   H5    1.082856 S    
O7    Cr1   2.045429 S    
N3    O31   1.301699 A    
O12   C6    1.272374 A    
C34   H12   1.110697 S    
O25   C42   1.273002 A    
C5    C19   1.396419 S    
O23   Cr5   1.937797 S    
O16   Cr5   2.054594 S    
C2    C14   1.463175 S    
Cr2   O13   1.965421 S    
O20   Cr4   2.045239 S    
C10   C14   1.423033 A    
Cr5   O26   1.978567 S    
C10   N1    1.436412 S    
C22   C23   1.364061 A    
C1    O3    1.250398 A    
O17   Cr5   1.924931 S    
C24   C25   1.406533 A    
C29   C33   1.404903 A    
C9    C14   1.398968 A    
C29   C30   1.401365 A    
O9    Cr2   2.046537 S    
O2    Cr1   1.929855 S    
C31   C36   1.391462 A    
O25   Cr6   1.928907 S    
O17   C38   1.296115 A    
Cr4   O26   1.984744 S    
C6    C28   1.454460 S    
C21   C40   1.444362 S    
C29   C42   1.449621 S    
O8    C4    1.296137 A    
C32   C36   1.408538 A    
C2    O5    1.262564 A    
O14   C39   1.270717 A    
C26   H6    1.105716 S    
O2    C1    1.272635 A    
C34   H13   1.111635 S    
C4    C36   1.450483 S    
N1    O27   1.301358 A    
O7    C6    1.274738 A    
C13   H4    1.111394 S    
O15   C37   1.280388 A    
O20   C42   1.262429 A    
C40   O22   1.265517 A    
O3    Cr2   2.063999 S    
O19   Cr6   1.947492 S    
C4    O9    1.300300 A    
C1    C17   1.411945 S    
C41   O24   1.253567 A    
C3    C15   1.411458 S    
C21   C25   1.403719 A    
O10   C5    1.261779 A    
O18   Cr6   2.047382 S    
C23   C27   1.505067 S    
O15   Cr4   1.928081 S    
C24   C28   1.426541 A    
