data_mof_unit_60978.cif
_audit_creation_date              2012-12-10T20:17:52-0500
_audit_creation_method            fapswitch 2.2
_symmetry_space_group_name_H-M    P1
_symmetry_Int_Tables_number       1
_space_group_crystal_system       triclinic
_cell_length_a                    19.332514
_cell_length_b                    18.441006
_cell_length_c                    23.419557
_cell_angle_alpha                 89.82255
_cell_angle_beta                  90.280503
_cell_angle_gamma                 89.933477
_cell_volume                      8349.18396587

loop_
_atom_site_label
_atom_site_type_symbol
_atom_type_description
_atom_site_fract_x
_atom_site_fract_y
_atom_site_fract_z
_atom_type_partial_charge
C1    C     C_R   0.365648 0.500028 0.500035 0.876673
C2    C     C_R   0.634352 0.499970 0.499949 0.876653
C3    C     C_R   0.540588 0.550317 0.237331 -0.117488
C4    C     C_R   0.459491 0.449667 0.762684 -0.117504
C5    C     C_R   0.542079 0.551649 0.296661 0.130045
C6    C     C_R   0.457987 0.448324 0.703354 0.130073
C7    C     C_R   0.502789 0.500354 0.327381 -0.092560
C8    C     C_R   0.497230 0.499647 0.672621 -0.092598
C9    C     C_R   0.463954 0.447854 0.298264 -0.246798
C10   C     C_R   0.536037 0.552180 0.701728 -0.246775
C11   C     C_R   0.462921 0.447057 0.239062 -0.087145
C12   C     C_R   0.537084 0.552988 0.760930 -0.087167
C13   C     C_R   0.501012 0.498433 0.208722 0.270726
C14   C     C_R   0.499036 0.501588 0.791280 0.270764
C15   C     C_R   0.745639 0.434017 0.501317 -0.179183
C16   C     C_R   0.254342 0.565951 0.498401 -0.179214
C17   C     C_R   0.254502 0.434178 0.502210 -0.166550
C18   C     C_R   0.745513 0.565796 0.497640 -0.166480
C19   C     C_R   0.817271 0.434029 0.501152 -0.163066
C20   C     C_R   0.182706 0.565911 0.498409 -0.163009
C21   C     C_R   0.182871 0.434223 0.502257 -0.164530
C22   C     C_R   0.817145 0.565723 0.497432 -0.164412
C23   C     C_R   0.853130 0.499862 0.499267 0.112755
C24   C     C_R   0.146864 0.500066 0.500290 0.112786
C25   C     C_R   0.709448 0.499923 0.499646 -0.033983
C26   C     C_R   0.290550 0.500061 0.500223 -0.033987
C27   C     C_R   0.501486 0.500173 0.389350 0.907683
C28   C     C_R   0.498516 0.499827 0.610650 0.907704
C29   C     C_R   0.964069 0.542861 0.460127 -0.168938
C30   C     C_R   0.035918 0.457032 0.539376 -0.168956
C31   C     C_R   0.035710 0.542958 0.460419 -0.174559
C32   C     C_R   0.964281 0.456931 0.539080 -0.174558
C33   C     C_R   0.071748 0.500048 0.500049 0.100096
C34   C     C_R   0.928243 0.499845 0.499456 0.100063
C35   C     C_R   0.543598 0.725732 0.535631 0.038744
C36   C     C_R   0.456408 0.274268 0.464364 0.038735
C37   C     C_R   0.456538 0.726106 0.464249 0.051091
C38   C     C_R   0.543455 0.273894 0.535756 0.051095
C39   C     C_R   0.544512 0.801766 0.536256 -0.266962
C40   C     C_R   0.455494 0.198234 0.463738 -0.266963
C41   C     C_R   0.455718 0.802147 0.463527 -0.262451
C42   C     C_R   0.544275 0.197853 0.536478 -0.262441
C43   C     C_R   0.500110 0.841344 0.499892 0.117095
C44   C     C_R   0.499890 0.158656 0.500108 0.117088
C45   C     C_R   0.438097 0.962014 0.492941 -0.172417
C46   C     C_R   0.561902 0.037987 0.507059 -0.172421
C47   C     C_R   0.561962 0.961891 0.506986 -0.167123
C48   C     C_R   0.438038 0.038110 0.493013 -0.167120
C49   C     C_R   0.499939 0.077316 0.500073 0.121507
C50   C     C_R   0.500060 0.922685 0.499926 0.121507
C51   C     C_R   0.558069 0.478072 0.879913 0.534667
C52   C     C_R   0.441989 0.521974 0.120088 0.534665
C53   C     C_R   0.442984 0.525541 0.880249 0.530682
C54   C     C_R   0.557071 0.474499 0.119752 0.530675
C55   C     C_R   0.441913 0.524921 0.939717 -0.045887
C56   C     C_R   0.558147 0.475129 0.060285 -0.045879
C57   C     C_R   0.500623 0.500394 0.969909 -0.047274
C58   C     C_R   0.499437 0.499659 0.030092 -0.047275
C59   C     C_R   0.560285 0.476656 0.940018 -0.079967
C60   C     C_R   0.439776 0.523398 0.059983 -0.079963
C61   C     C_R   0.383192 0.548149 0.969140 -0.185404
C62   C     C_R   0.616870 0.451906 0.030861 -0.185407
C63   C     C_R   0.381183 0.547676 0.028480 0.208186
C64   C     C_R   0.618880 0.452383 0.971521 0.208184
H1    H     H_    0.337961 0.566864 0.945896 0.211768
H2    H     H_    0.662101 0.433192 0.054105 0.211766
H3    H     H_    0.577662 0.695577 0.563793 0.119853
H4    H     H_    0.422349 0.304423 0.436198 0.119862
H5    H     H_    0.422498 0.696243 0.436080 0.129479
H6    H     H_    0.577490 0.303756 0.563930 0.129509
H7    H     H_    0.578993 0.829233 0.565598 0.138728
H8    H     H_    0.421018 0.170767 0.434393 0.138730
H9    H     H_    0.421284 0.829920 0.434143 0.141647
H10   H     H_    0.578704 0.170080 0.565866 0.141657
H11   H     H_    0.389236 0.933961 0.488380 0.135785
H12   H     H_    0.610763 0.066040 0.511621 0.135784
H13   H     H_    0.610866 0.933752 0.511501 0.137234
H14   H     H_    0.389134 0.066249 0.488498 0.137237
H15   H     H_    0.570530 0.589283 0.213182 0.164338
H16   H     H_    0.429584 0.410681 0.786842 0.164317
H17   H     H_    0.433708 0.408086 0.321382 0.160203
H18   H     H_    0.566250 0.591969 0.678602 0.160218
H19   H     H_    0.432564 0.406734 0.216670 0.149978
H20   H     H_    0.567417 0.593337 0.783313 0.149958
H21   H     H_    0.718751 0.382547 0.502755 0.157646
H22   H     H_    0.281218 0.617427 0.496963 0.157605
H23   H     H_    0.281500 0.382693 0.503615 0.164834
H24   H     H_    0.718528 0.617292 0.496344 0.164801
H25   H     H_    0.844708 0.382772 0.501994 0.137445
H26   H     H_    0.155254 0.617157 0.497468 0.137410
H27   H     H_    0.155549 0.382973 0.503169 0.137890
H28   H     H_    0.844487 0.616961 0.496520 0.137902
H29   H     H_    0.936611 0.575570 0.428883 0.145748
H30   H     H_    0.063369 0.424337 0.570632 0.145716
H31   H     H_    0.063005 0.575713 0.429374 0.142633
H32   H     H_    0.936988 0.424183 0.570132 0.142645
N1    N     N_R   0.500213 0.502154 0.852032 -0.357413
N2    N     N_R   0.499841 0.497883 0.147969 -0.357406
N3    N     N_R   0.500000 0.689440 0.500000 -0.093499
N4    N     N_R   0.500000 0.310560 0.500000 -0.093505
O1    O     O_R   0.398180 0.560840 0.499980 -0.630508
O2    O     O_R   0.601820 0.439160 0.500020 -0.630527
O3    O     O_R   0.601820 0.560840 0.500020 -0.619756
O4    O     O_R   0.398180 0.439160 0.499980 -0.619770
O5    O     O_R   0.499980 0.560830 0.416150 -0.595733
O6    O     O_R   0.500020 0.439170 0.583850 -0.595717
O7    O     O_R   0.500020 0.560830 0.583850 -0.626126
O8    O     O_R   0.499980 0.439170 0.416150 -0.626132
O9    O     O_2   0.612300 0.455171 0.848943 -0.510321
O10   O     O_2   0.387759 0.544877 0.151058 -0.510336
O11   O     O_2   0.387370 0.549446 0.850540 -0.542281
O12   O     O_2   0.612682 0.450584 0.149461 -0.542297
Zn1   Zn    Zn3+2 0.500000 0.581210 0.500000 0.971943
Zn2   Zn    Zn3+2 0.500000 0.418790 0.500000 0.971936
I1    I     I_    0.285417 0.584990 0.062710 -0.220252
I2    I     I_    0.714650 0.415085 0.937290 -0.220235
I3    I     I_    0.608842 0.628949 0.335534 -0.328969
I4    I     I_    0.391270 0.370960 0.664504 -0.328950

loop_
_geom_bond_atom_site_label_1
_geom_bond_atom_site_label_2
_ccdc_geom_bond_type
C44   C49   S    
C51   N1    A    
C29   H29   S    
C38   H6    S    
C64   I2    S    
C37   H5    S    
O1    Zn1   S    
C19   C23   A    
C3    H15   S    
C46   H12   S    
C15   C19   A    
C46   C49   A    
C59   C64   A    
O6    Zn2   S    
C60   C63   A    
O2    Zn2   S    
C17   C26   A    
C2    O3    A    
O5    Zn1   S    
O3    Zn1   S    
C38   C42   A    
C37   C41   A    
C57   C59   A    
C27   O5    A    
C28   O7    A    
C58   C60   A    
C7    C27   S    
C12   H20   S    
C48   H14   S    
C13   N2    S    
C61   C63   A    
O7    Zn1   S    
C62   C64   A    
C52   C60   A    
C20   C24   A    
C28   O6    A    
C31   C33   A    
C52   O10   S    
C56   C58   A    
C3    C13   A    
C15   H21   S    
C63   I1    S    
C53   O11   S    
C51   O9    S    
C18   C22   A    
C16   H22   S    
C41   C43   A    
C18   C25   A    
C42   C44   A    
C35   N3    A    
C47   C50   A    
C53   C55   A    
C16   C26   A    
C54   C56   A    
C42   H10   S    
C62   H2    S    
C36   C40   A    
N4    Zn2   S    
C38   N4    A    
C5    C7    A    
C39   C43   A    
C11   H19   S    
C20   H26   S    
C29   C34   A    
C10   H18   S    
C18   H24   S    
C5    I3    S    
C32   C34   A    
C35   C39   A    
C19   H25   S    
C35   H3    S    
C16   C20   A    
C23   C34   S    
C54   O12   S    
C36   N4    A    
C9    C11   A    
C1    O4    A    
C10   C12   A    
O4    Zn2   S    
C4    C6    A    
C48   C49   A    
C32   H32   S    
C12   C14   A    
C55   C57   A    
C1    C26   S    
C8    C28   S    
C56   C62   A    
C51   C59   A    
C47   H13   S    
C1    O1    A    
C37   N3    A    
C14   N1    S    
C21   H27   S    
C45   C48   A    
C7    C9    A    
C46   C47   A    
C39   H7    S    
C40   H8    S    
C30   C33   A    
C17   H23   S    
C8    C10   A    
C22   H28   S    
C3    C5    A    
N3    Zn1   S    
C6    C8    A    
C36   H4    S    
C43   C50   S    
C4    H16   S    
C24   C33   S    
C45   H11   S    
O8    Zn2   S    
C29   C31   A    
C30   C32   A    
C11   C13   A    
C57   C58   A    
C27   O8    A    
C31   H31   S    
C55   C61   A    
C52   N2    A    
C53   N1    A    
C2    C25   S    
C4    C14   A    
C17   C21   A    
C15   C25   A    
C41   H9    S    
C61   H1    S    
C40   C44   A    
C30   H30   S    
C21   C24   A    
C2    O2    A    
C22   C23   A    
C54   N2    A    
C45   C50   A    
C6    I4    S    
C9    H17   S    
