data_mof_unit_67808.cif
_audit_creation_date              2013-03-05T15:41:23-0500
_audit_creation_method            fapswitch 2.2
_symmetry_space_group_name_H-M    P1
_symmetry_Int_Tables_number       1
_space_group_crystal_system       triclinic
_cell_length_a                    7.911367
_cell_length_b                    8.649812
_cell_length_c                    10.761566
_cell_angle_alpha                 92.858838
_cell_angle_beta                  84.666558
_cell_angle_gamma                 92.850334
_cell_volume                      731.579619739

loop_
_atom_site_label
_atom_site_type_symbol
_atom_site_description
_atom_site_fract_x
_atom_site_fract_y
_atom_site_fract_z
_atom_type_partial_charge
O1    O     O_R   0.389250 0.738570 0.508370 -0.583822
O2    O     O_R   0.678390 0.711620 0.486510 -0.574073
C1    C     C_R   0.544050 0.793439 0.497517 0.902552
O3    O     O_R   0.355430 0.513500 0.696140 -0.623473
O4    O     O_R   0.644580 0.486550 0.674270 -0.579284
C2    C     C_R   0.500247 0.501454 0.740956 0.899776
Zn1   Zn    Zn3+2 0.306940 0.517990 0.514600 1.129787
Zn2   Zn    Zn3+2 0.693060 0.482010 0.485400 1.155731
O5    O     O_R   0.321610 0.288380 0.513490 -0.643186
O6    O     O_R   0.610750 0.261430 0.491630 -0.594725
O7    O     O_R   0.355420 0.513450 0.325730 -0.556794
O8    O     O_R   0.644570 0.486500 0.303860 -0.544747
C3    C     C_R   0.456106 0.206384 0.506788 0.898897
C4    C     C_R   0.500042 0.499319 0.257514 0.944771
C5    C     C_3   0.323694 0.542070 0.937582 -0.453123
H1    H     H_    0.223293 0.463834 0.900024 0.269946
H2    H     H_    0.296917 0.657716 0.904698 0.257200
C6    C     C_3   0.316723 0.543902 0.082100 0.447916
H3    H     H_    0.425801 0.260647 0.882381 0.180320
C7    C     C_3   0.537053 0.331894 0.912095 0.067100
C8    C     C_3   0.629086 0.623505 0.919568 -0.373667
C9    C     C_3   0.500010 0.498593 0.876058 -0.186860
H4    H     H_    0.755376 0.609306 0.868319 0.288380
H5    H     H_    0.592195 0.739459 0.893151 0.214933
C10   C     C_3   0.499672 0.494627 0.119066 -0.339144
C11   C     C_3   0.544035 0.323167 0.058236 -0.328442
C12   C     C_3   0.630530 0.623558 0.062375 0.098073
H6    H     H_    0.588935 0.739609 0.096533 0.200328
C13   C     C_2   0.562557 0.953712 0.479154 -0.178791
C14   C     C_2   0.440780 0.046874 0.533593 -0.367700
N1    N     N_2   0.950330 0.457950 0.465890 -0.082904
H7    H     H_    0.002147 0.355814 0.431752 0.214361
N2    N     N_2   0.049670 0.542050 0.534110 0.026460
N3    N     N_R   0.802604 0.616822 0.099337 0.289579
O9    O     O_R   0.845884 0.703915 0.194448 -0.270145
O10   O     O_R   0.921151 0.557999 0.022331 -0.283197
N4    N     N_R   0.686992 0.269974 0.837167 0.246516
O11   O     O_R   0.669811 0.144403 0.766913 -0.319403
O12   O     O_R   0.837158 0.338101 0.839462 -0.310668
C15   C     C_2   0.711093 0.253092 0.085395 1.088292
O13   O     O_2   0.803563 0.313556 0.159309 -0.516084
O14   O     O_R   0.751769 0.107402 0.030674 -0.697382
H8    H     H_    0.862655 0.070146 0.055953 0.388876
C16   C     C_2   0.687995 0.997296 0.373881 1.038214
O15   O     O_2   0.648091 0.981415 0.267006 -0.597914
O16   O     O_R   0.851846 0.051474 0.397268 -0.729966
H9    H     H_    0.925947 0.075102 0.317852 0.366783
C17   C     C_2   0.320109 0.003264 0.643792 1.037973
O17   O     O_2   0.370972 0.932203 0.727213 -0.535467
O18   O     O_R   0.150655 0.045067 0.655627 -0.656060
H10   H     H_    0.113172 0.086415 0.576773 0.360831
N5    N     N_R   0.994225 0.689508 0.563780 0.332894
O19   O     O_R   0.950367 0.730065 0.679747 -0.331972
O20   O     O_R   0.027159 0.796100 0.482886 -0.292669
N6    N     N_R   0.274593 0.704080 0.129067 0.219395
O21   O     O_R   0.338561 0.772671 0.225669 -0.368309
O22   O     O_R   0.150797 0.770416 0.084643 -0.303662
N7    N     N_R   0.177028 0.436423 0.130261 0.241805
O23   O     O_R   0.125105 0.317128 0.062997 -0.375761
O24   O     O_R   0.077895 0.479925 0.227253 -0.268089
C18   C     C_2   0.416654 0.199009 0.111055 0.961147
O25   O     O_2   0.381058 0.193522 0.223908 -0.613923
O26   O     O_R   0.345992 0.085290 0.032286 -0.699857
H11   H     H_    0.245543 0.028799 0.076998 0.412427

loop_
_geom_bond_atom_site_label_1
_geom_bond_atom_site_label_2
_geom_bond_distance
_ccdc_geom_bond_type
C5    C6    1.550399 S    
N6    O21   1.302027 A    
N1    N2    1.297289 D    
C5    H2    1.114035 S    
N4    O11   1.300904 A    
O4    Zn2   2.031863 S    
H3    C7    1.111504 S    
Zn2   O8    2.028256 S    
C18   O25   1.223662 D    
C17   O18   1.398599 S    
O2    C1    1.299041 A    
C8    C12   1.537912 S    
N5    O20   1.299929 A    
N4    O12   1.301396 A    
N1    H7    1.029153 S    
C8    C9    1.535617 S    
N5    O19   1.299562 A    
N2    N5    1.382098 S    
Zn1   O7    2.031862 S    
C7    N4    1.478662 S    
Zn1   N2    2.046558 S    
C11   C15   1.539079 S    
C13   C14   1.358670 D    
C6    C10   1.618680 S    
C7    C11   1.584475 S    
C6    N6    1.493635 S    
O3    Zn1   2.028257 S    
C4    C10   1.488724 S    
C15   O14   1.403388 S    
C17   O17   1.221668 D    
C10   C11   1.632021 S    
C11   C18   1.529313 S    
O8    C4    1.300992 A    
O18   H10   1.011715 S    
N3    O10   1.298514 A    
C13   C16   1.485531 S    
N6    O22   1.298967 A    
C12   N3    1.457990 S    
O4    C2    1.299450 A    
O7    C4    1.308345 A    
O3    C2    1.294490 A    
C10   C12   1.588498 S    
O14   H8    1.014233 S    
C7    C9    1.560236 S    
N7    O24   1.297753 A    
C5    H1    1.109588 S    
C2    C9    1.455179 S    
Zn1   O5    1.994603 S    
C3    C14   1.420610 S    
C16   O15   1.220158 D    
Zn2   O6    1.987456 S    
N3    O9    1.301918 A    
C5    C9    1.543114 S    
C8    H5    1.115772 S    
C14   C17   1.502798 S    
C12   H6    1.106627 S    
C1    C13   1.408602 S    
O5    C3    1.302349 A    
O16   H9    1.014009 S    
C15   O13   1.212456 D    
N7    O23   1.302347 A    
O1    Zn1   1.987458 S    
Zn2   N1    2.046558 S    
C8    H4    1.104773 S    
C6    N7    1.481126 S    
C18   O26   1.396021 S    
O2    Zn2   1.994603 S    
O26   H11   1.007754 S    
C16   O16   1.397065 S    
O1    C1    1.288359 A    
O6    C3    1.289515 A    
