data_mof_unit_7023.cif
_audit_creation_date              2012-12-10T16:46:47-0500
_audit_creation_method            fapswitch 2.2
_symmetry_space_group_name_H-M    P1
_symmetry_Int_Tables_number       1
_space_group_crystal_system       triclinic
_cell_length_a                    15.849346
_cell_length_b                    8.692654
_cell_length_c                    7.493952
_cell_angle_alpha                 103.164421
_cell_angle_beta                  94.480263
_cell_angle_gamma                 92.869982
_cell_volume                      999.806868347

loop_
_atom_site_label
_atom_site_type_symbol
_atom_type_description
_atom_site_fract_x
_atom_site_fract_y
_atom_site_fract_z
_atom_type_partial_charge
C1    C     C_R   0.497089 0.199784 0.453198 0.859976
C2    C     C_3   0.954842 0.473440 0.686472 -0.442686
C3    C     C_3   0.917053 0.500465 0.499767 0.313115
C4    C     C_3   0.954943 0.661633 0.476091 -0.385903
C5    C     C_3   0.052630 0.661164 0.476679 -0.390224
C6    C     C_1   0.824743 0.500133 0.495514 -0.090360
C7    C     C_1   0.175376 0.500863 0.507233 -0.057670
C8    C     C_1   0.250907 0.500394 0.505750 -0.119493
C9    C     C_2   0.494956 0.031621 0.427375 -0.343203
C10   C     C_2   0.503870 0.968409 0.572922 -0.360947
C11   C     C_R   0.340415 0.499760 0.501850 0.803263
C12   C     C_R   0.502444 0.800221 0.546892 0.883554
C13   C     C_R   0.659581 0.500164 0.498202 0.831077
C14   C     C_3   0.053134 0.471062 0.691141 -0.117501
C15   C     C_3   0.040717 0.367641 0.346846 -0.397504
C16   C     C_3   0.942853 0.367160 0.342491 -0.381773
C17   C     C_1   0.749116 0.500005 0.494866 -0.143527
C18   C     C_3   0.083072 0.501386 0.507442 0.245012
Cu1   Cu    Cu3+1 0.509300 0.517380 0.684380 1.007571
Cu2   Cu    Cu3+1 0.490700 0.482620 0.315620 1.008536
H1    H     H_    0.927875 0.358594 0.706915 0.161551
H2    H     H_    0.935585 0.567523 0.800712 0.159577
H3    H     H_    0.927571 0.685380 0.344411 0.172317
H4    H     H_    0.485954 0.959543 0.287387 0.197098
H5    H     H_    0.512524 0.040564 0.712983 0.183022
H6    H     H_    0.433080 0.378319 0.949372 0.203304
H7    H     H_    0.070480 0.350422 0.701449 0.155330
H8    H     H_    0.060865 0.384550 0.213185 0.212913
H9    H     H_    0.061236 0.250526 0.362867 0.157989
H10   H     H_    0.916415 0.250001 0.356949 0.166251
H11   H     H_    0.916208 0.384241 0.206981 0.173247
H12   H     H_    0.083207 0.762051 0.585118 0.150405
H13   H     H_    0.071626 0.679651 0.342740 0.199091
H14   H     H_    0.938375 0.759059 0.589631 0.162514
N1    N     N_2   0.476670 0.456430 0.038530 -0.176508
N2    N     N_2   0.523330 0.543570 0.961470 -0.005215
O1    O     O_R   0.506050 0.286130 0.619770 -0.595999
O2    O     O_R   0.490330 0.256780 0.308370 -0.587859
O3    O     O_R   0.387300 0.514690 0.655770 -0.589542
O4    O     O_R   0.371580 0.485340 0.344370 -0.569204
O5    O     O_R   0.509670 0.743220 0.691630 -0.571750
O6    O     O_R   0.493950 0.713870 0.380230 -0.555935
O7    O     O_R   0.628420 0.514660 0.655630 -0.562671
O8    O     O_R   0.612700 0.485310 0.344230 -0.553426
C19   C     C_2   0.095450 0.588037 0.859294 0.330394
H15   H     H_    0.083212 0.712443 0.883608 0.075222
O9    O     O_2   0.143202 0.543444 0.970103 -0.562593
I1    I     I_    0.619296 0.710862 0.098251 -0.250834

loop_
_geom_bond_atom_site_label_1
_geom_bond_atom_site_label_2
_ccdc_geom_bond_type
C2    H2    S    
C15   C18   S    
Cu2   O6    S    
C9    H4    S    
C15   H9    S    
C12   O5    A    
C1    O1    A    
C14   H7    S    
Cu2   O2    S    
C9    C10   D    
C14   C18   S    
N1    N2    D    
C13   C17   S    
C5    H12   S    
C7    C18   S    
C2    H1    S    
C2    C3    S    
C7    C8    T    
C19   H15   S    
C16   H11   S    
C11   O3    A    
C15   H8    S    
C10   C12   S    
C1    O2    A    
C8    C11   S    
C2    C14   S    
Cu1   O3    S    
C10   H5    S    
Cu2   O8    S    
Cu1   O7    S    
N2    I1    S    
C14   C19   S    
Cu1   N2    S    
C19   O9    D    
C11   O4    A    
Cu2   O4    S    
C4    H14   S    
C3    C16   S    
C16   H10   S    
C15   C16   S    
Cu1   O5    S    
H6    N1    S    
C13   O7    A    
C1    C9    S    
C3    C6    S    
C4    H3    S    
C6    C17   T    
C12   O6    A    
C5    C18   S    
Cu1   O1    S    
Cu2   N1    S    
C13   O8    A    
C3    C4    S    
Cu1   Cu2   S    
C4    C5    S    
C5    H13   S    
