data_mof_unit_67855.cif
_audit_creation_date              2013-03-05T15:41:50-0500
_audit_creation_method            fapswitch 2.2
_symmetry_space_group_name_H-M    P1
_symmetry_Int_Tables_number       1
_space_group_crystal_system       triclinic
_cell_length_a                    7.898363
_cell_length_b                    8.74216
_cell_length_c                    10.598451
_cell_angle_alpha                 94.350502
_cell_angle_beta                  84.519774
_cell_angle_gamma                 92.974202
_cell_volume                      725.630882804

loop_
_atom_site_label
_atom_site_type_symbol
_atom_site_description
_atom_site_fract_x
_atom_site_fract_y
_atom_site_fract_z
_atom_type_partial_charge
O1    O     O_R   0.389250 0.738570 0.508410 -0.591458
O2    O     O_R   0.610750 0.261430 0.491590 -0.591458
O3    O     O_R   0.678390 0.711620 0.486450 -0.597898
O4    O     O_R   0.321610 0.288380 0.513550 -0.597898
C1    C     C_R   0.543891 0.793107 0.495199 0.876497
C2    C     C_R   0.456108 0.206893 0.504802 0.876500
O5    O     O_R   0.355460 0.513510 0.697030 -0.586930
O6    O     O_R   0.644540 0.486490 0.302970 -0.586931
O7    O     O_R   0.644600 0.486560 0.675070 -0.607866
O8    O     O_R   0.355400 0.513440 0.324930 -0.607863
C3    C     C_R   0.500190 0.499926 0.741781 0.979559
C4    C     C_R   0.499810 0.500075 0.258219 0.979563
Zn1   Zn    Zn3+2 0.306940 0.517990 0.514670 1.149711
Zn2   Zn    Zn3+2 0.693060 0.482010 0.485330 1.149710
N1    N     N_2   0.950320 0.457950 0.465730 0.025545
N2    N     N_2   0.049680 0.542050 0.534270 0.025545
C5    C     C_3   0.452603 0.635130 0.970568 0.155329
C6    C     C_3   0.547398 0.364873 0.029432 0.155332
C7    C     C_3   0.610178 0.613600 0.041817 0.076650
C8    C     C_3   0.389823 0.386402 0.958183 0.076649
C9    C     C_3   0.499493 0.500806 0.123959 -0.371421
C10   C     C_3   0.500507 0.499196 0.876041 -0.371422
C11   C     C_3   0.343825 0.524613 0.052753 0.193591
C12   C     C_3   0.656176 0.475390 0.947247 0.193590
C13   C     C_2   0.567645 0.955001 0.500069 0.020125
C14   C     C_2   0.432354 0.044999 0.499933 0.020127
I1    I     I_    0.772229 0.797730 0.112818 0.123311
I2    I     I_    0.227772 0.202271 0.887184 0.123313
N3    N     N_R   0.398326 0.783880 0.939991 0.266780
O9    O     O_R   0.356250 0.886728 0.031136 -0.257889
O10   O     O_R   0.400055 0.817871 0.822547 -0.363792
N4    N     N_R   0.601675 0.216124 0.060011 0.266783
O11   O     O_R   0.643769 0.113282 0.968868 -0.257887
O12   O     O_R   0.599931 0.182129 0.177454 -0.363793
N5    N     N_R   0.175307 0.557509 0.113874 0.257906
O13   O     O_R   0.049394 0.457348 0.103277 -0.324403
O14   O     O_R   0.152835 0.682382 0.186984 -0.274510
N6    N     N_R   0.824694 0.442497 0.886124 0.257903
O15   O     O_R   0.950609 0.542652 0.896730 -0.324404
O16   O     O_R   0.847169 0.317622 0.813016 -0.274507
I3    I     I_    0.042044 0.280658 0.342248 0.168475
I4    I     I_    0.957955 0.719339 0.657755 0.168471
N7    N     N_R   0.738009 0.014281 0.514699 0.225493
O17   O     O_R   0.859774 0.971629 0.430120 -0.271155
O18   O     O_R   0.775684 0.076192 0.624617 -0.271659
N8    N     N_R   0.261991 0.985719 0.485303 0.225494
O19   O     O_R   0.140226 0.028370 0.569885 -0.271155
O20   O     O_R   0.224314 0.923809 0.375385 -0.271657

loop_
_geom_bond_atom_site_label_1
_geom_bond_atom_site_label_2
_geom_bond_distance
_ccdc_geom_bond_type
C12   N6    1.456265 S    
O7    Zn2   2.008590 S    
N3    O9    1.299974 A    
C6    C9    1.533838 S    
C5    N3    1.458818 S    
C3    C10   1.423683 S    
C11   N5    1.456266 S    
C5    C10   1.533837 S    
O1    C1    1.286782 A    
C8    C11   1.545558 S    
O6    C4    1.293056 A    
N7    O17   1.299762 A    
N4    O11   1.299956 A    
C13   N7    1.434756 S    
C7    C12   1.545558 S    
C2    C14   1.415684 S    
O3    C1    1.301651 A    
N3    O10   1.300101 A    
C5    C11   1.526081 S    
O5    C3    1.293056 A    
N7    O18   1.300947 A    
O7    C3    1.289105 A    
O2    C2    1.286782 A    
O3    Zn2   2.015695 S    
O8    C4    1.289105 A    
C1    C13   1.415684 S    
C10   C12   1.533685 S    
C7    I1    2.140562 S    
N6    O16   1.299666 A    
C8    C10   1.545934 S    
N8    O20   1.300946 A    
C9    C11   1.533683 S    
N6    O15   1.297844 A    
O2    Zn2   2.006650 S    
C6    C12   1.526081 S    
C6    N4    1.458819 S    
C14   N8    1.434756 S    
N1    N2    1.285337 D    
N2    I4    2.065799 S    
O5    Zn1   2.009571 S    
O1    Zn1   2.006650 S    
N1    I3    2.065799 S    
C6    C8    1.542733 S    
O4    C2    1.301650 A    
Zn1   N2    2.042852 S    
O4    Zn1   2.015695 S    
Zn2   N1    2.042852 S    
C5    C7    1.542732 S    
O6    Zn2   2.009569 S    
C8    I2    2.140562 S    
N5    O14   1.299667 A    
C13   C14   1.359622 D    
N8    O19   1.299764 A    
C4    C9    1.423685 S    
N5    O13   1.297849 A    
C7    C9    1.545935 S    
O8    Zn1   2.008590 S    
N4    O12   1.300095 A    
