data_mof_unit_10432.cif
_audit_creation_date              2012-12-11T15:55:51-0500
_audit_creation_method            fapswitch 2.2
_symmetry_space_group_name_H-M    P1
_symmetry_Int_Tables_number       1
_space_group_crystal_system       triclinic
_cell_length_a                    6.933844
_cell_length_b                    14.551431
_cell_length_c                    16.080843
_cell_angle_alpha                 90.016565
_cell_angle_beta                  89.939404
_cell_angle_gamma                 89.93582
_cell_volume                      1622.51249147

loop_
_atom_site_label
_atom_site_type_symbol
_atom_type_description
_atom_site_fract_x
_atom_site_fract_y
_atom_site_fract_z
_atom_type_partial_charge
O1    O     O_R   0.505680 0.583900 0.413320 -0.538555
O2    O     O_R   0.176010 0.594950 0.586080 -0.541871
O3    O     O_R   0.005680 0.416100 0.586680 -0.540981
C1    C     C_R   0.345032 0.617603 0.614709 0.679407
O4    O     O_R   0.175960 0.594930 0.413930 -0.541154
O5    O     O_R   0.005640 0.416080 0.413300 -0.545778
C2    C     C_R   0.345036 0.617192 0.385006 0.690947
O6    O     O_R   0.505720 0.583920 0.586700 -0.541561
O7    O     O_3   0.339190 0.441320 0.500000 -0.377895
V1    V     V_3+5 0.064350 0.510890 0.500000 1.380963
O8    O     O_R   0.675920 0.405050 0.413920 -0.539187
C3    C     C_R   0.846043 0.380329 0.386960 0.680587
O9    O     O_R   0.675960 0.405070 0.586070 -0.545413
C4    C     C_R   0.844945 0.382734 0.614676 0.696083
V2    V     V_3+5 0.564340 0.489110 0.500000 1.375529
O10   O     O_3   0.839370 0.558680 0.500000 -0.365016
C5    C     C_R   0.002704 0.319292 0.743473 0.123473
C6    C     C_R   0.853417 0.316658 0.684795 -0.149147
C7    C     C_R   0.704927 0.252236 0.698127 -0.193876
H1    H     H_    0.585088 0.248269 0.655323 0.129525
C8    C     C_R   0.715249 0.188525 0.764058 -0.173540
H2    H     H_    0.602919 0.137399 0.769936 0.124645
C9    C     C_R   0.875208 0.186805 0.818228 -0.108630
C10   C     C_R   0.013526 0.255902 0.808317 0.064768
C11   C     C_3   0.227608 0.248904 0.802868 -0.410550
C12   C     C_3   0.216872 0.317890 0.731560 -0.043411
H3    H     H_    0.274615 0.179429 0.782558 0.148448
H4    H     H_    0.299843 0.274560 0.859978 0.178114
H5    H     H_    0.257571 0.286905 0.670786 0.110701
C13   C     C_R   0.033490 0.191110 0.241026 -0.143296
H6    H     H_    0.158642 0.148315 0.230695 0.130568
C14   C     C_R   0.024933 0.250816 0.310377 0.125866
C15   C     C_R   0.859833 0.308881 0.320220 -0.097020
C16   C     C_R   0.705643 0.299700 0.264006 -0.175408
H7    H     H_    0.578016 0.342116 0.270359 0.127120
C17   C     C_R   0.714243 0.237185 0.198063 -0.166643
H8    H     H_    0.592523 0.232228 0.156137 0.127425
C18   C     C_R   0.879440 0.183442 0.185054 -0.086678
C19   C     C_R   0.187838 0.723679 0.718460 -0.158138
H9    H     H_    0.047032 0.704734 0.695051 0.117912
C20   C     C_R   0.199009 0.787087 0.783795 -0.154469
H10   H     H_    0.066193 0.815268 0.808492 0.119160
C21   C     C_R   0.378746 0.813907 0.816524 -0.046969
C22   C     C_R   0.546936 0.775187 0.782308 -0.161261
C23   C     C_R   0.535754 0.711781 0.716974 -0.156493
H11   H     H_    0.668545 0.683491 0.692349 0.120334
C24   C     C_R   0.356083 0.685393 0.683927 -0.040109
C25   C     C_R   0.188147 0.724922 0.282677 -0.156856
C26   C     C_R   0.199302 0.788498 0.217485 -0.152913
H12   H     H_    0.066587 0.817370 0.193477 0.118825
C27   C     C_R   0.378885 0.814473 0.183926 -0.046805
C28   C     C_R   0.547010 0.775158 0.217499 -0.156479
C29   C     C_R   0.535856 0.711583 0.282695 -0.152124
H13   H     H_    0.668568 0.682719 0.306716 0.119771
C30   C     C_R   0.356262 0.685563 0.316219 -0.048144
O11   O     O_R   0.229200 0.915950 0.913350 -0.540711
O12   O     O_R   0.559090 0.905000 0.086080 -0.542837
O13   O     O_R   0.729280 0.083880 0.086680 -0.538318
C31   C     C_R   0.390051 0.882756 0.115066 0.687690
O14   O     O_R   0.558920 0.904980 0.913920 -0.544037
O15   O     O_R   0.729110 0.083860 0.913300 -0.540221
C32   C     C_R   0.389922 0.882521 0.885134 0.684398
O16   O     O_R   0.229360 0.915970 0.086730 -0.541120
O17   O     O_3   0.395680 0.058580 0.000030 -0.368071
V3    V     V_3+5 0.670570 0.989070 0.999990 1.396645
O18   O     O_R   0.058820 0.094950 0.913870 -0.539764
C33   C     C_R   0.889616 0.116835 0.884965 0.700694
O19   O     O_R   0.058990 0.094970 0.086020 -0.544102
C34   C     C_R   0.889825 0.116966 0.114979 0.694118
V4    V     V_3+5 0.170560 0.010930 0.999930 1.397113
O20   O     O_3   0.895590 0.941310 0.999960 -0.370751
H14   H     H_    0.687749 0.793992 0.805806 0.117174
H15   H     H_    0.047405 0.706623 0.306700 0.117503
H16   H     H_    0.687748 0.793465 0.193477 0.116702
C35   C     C_3   0.320551 0.410061 0.747935 -0.294383
C36   C     C_3   0.228360 0.471096 0.814723 -0.757260
H17   H     H_    0.082573 0.493859 0.794867 0.219741
H18   H     H_    0.217609 0.434076 0.874856 0.225473
H19   H     H_    0.318700 0.533221 0.823995 0.217695
H20   H     H_    0.472494 0.395989 0.765631 0.184152
H21   H     H_    0.324172 0.448977 0.688803 0.190135
C37   C     C_3   0.188157 0.251872 0.374099 -0.319251
C38   C     C_3   0.321544 0.167930 0.374009 -0.800527
H22   H     H_    0.236168 0.103582 0.378720 0.229755
H23   H     H_    0.412230 0.166536 0.317144 0.231785
H24   H     H_    0.419910 0.171714 0.428376 0.221861
H25   H     H_    0.277608 0.314184 0.364194 0.198047
H26   H     H_    0.124177 0.255171 0.437455 0.176866

loop_
_geom_bond_atom_site_label_1
_geom_bond_atom_site_label_2
_ccdc_geom_bond_type
C25   C30   A    
C20   H10   S    
C4    C6    S    
C7    H1    S    
C36   H19   S    
C2    C30   S    
C1    O6    A    
C19   C20   A    
C29   H13   S    
C28   C29   A    
C11   H4    S    
C5    C12   S    
C17   H8    S    
C7    C8    A    
C36   H18   S    
C6    C7    A    
C28   H16   S    
O5    C3    A    
C13   H6    S    
O12   C31   A    
V2    O10   S    
C13   C18   A    
O14   C32   A    
C16   H7    S    
C9    C33   S    
O8    V2    S    
O19   C34   A    
C26   C27   A    
C9    C10   A    
V4    O20   S    
O1    V2    S    
O17   V4    S    
O7    V1    S    
C23   C24   A    
O18   C33   A    
C18   C34   S    
O9    C4    A    
C20   C21   A    
C12   C35   S    
C29   C30   A    
C8    C9    A    
C5    C10   A    
C27   C28   A    
C36   H17   S    
C19   H9    S    
O4    C2    A    
C35   H21   S    
C11   C12   S    
V3    O20   S    
O2    C1    A    
C35   C36   S    
O15   V3    S    
O15   C33   A    
O13   V3    S    
C38   H22   S    
O16   V4    S    
C5    C6    A    
C10   C11   S    
O3    C4    A    
C25   C26   A    
C38   H23   S    
O14   V3    S    
C26   H12   S    
O6    V2    S    
O11   V4    S    
O9    V2    S    
C21   C22   A    
O11   C32   A    
C27   C31   S    
O2    V1    S    
C22   C23   A    
C19   C24   A    
C35   H20   S    
O1    C2    A    
C25   H15   S    
O12   V3    S    
O5    V1    S    
O8    C3    A    
O13   C34   A    
C11   H3    S    
C14   C37   S    
C31   O16   A    
O17   V3    S    
C17   C18   A    
O7    V2    S    
O4    V1    S    
O3    V1    S    
V1    O10   S    
C14   C15   A    
C13   C14   A    
O18   V4    S    
C37   H26   S    
C15   C16   A    
C22   H14   S    
C16   C17   A    
C23   H11   S    
C38   H24   S    
C12   H5    S    
O19   V4    S    
C37   C38   S    
C3    C15   S    
C8    H2    S    
C37   H25   S    
C21   C32   S    
C1    C24   S    
