data_mof_unit_29216.cif
_audit_creation_date              2012-12-10T21:00:50-0500
_audit_creation_method            fapswitch 2.2
_symmetry_space_group_name_H-M    P1
_symmetry_Int_Tables_number       1
_space_group_crystal_system       triclinic
_cell_length_a                    18.122608
_cell_length_b                    18.171807
_cell_length_c                    18.308832
_cell_angle_alpha                 120.003624
_cell_angle_beta                  89.969595
_cell_angle_gamma                 119.804447
_cell_volume                      4276.92791844

loop_
_atom_site_label
_atom_site_type_symbol
_atom_type_description
_atom_site_fract_x
_atom_site_fract_y
_atom_site_fract_z
_atom_type_partial_charge
C1    C     C_R   0.110823 0.220009 0.609800 0.503141
C2    C     C_3   0.449483 0.896834 0.947465 0.065278
C3    C     C_3   0.474753 0.031381 0.070300 0.101121
C4    C     C_3   0.525247 0.968618 0.929700 0.101121
C5    C     C_3   0.413233 0.439744 0.448292 -0.112846
C6    C     C_3   0.586766 0.560256 0.551708 -0.112846
C7    C     C_3   0.475527 0.403689 0.441743 -0.002955
C8    C     C_3   0.524473 0.596311 0.558257 -0.002955
C9    C     C_3   0.551180 0.500156 0.449354 0.069478
C10   C     C_3   0.448820 0.499844 0.550645 0.069478
C11   C     C_3   0.490134 0.537558 0.455894 -0.125078
C12   C     C_R   0.889177 0.779991 0.390200 0.503141
C13   C     C_3   0.509866 0.462442 0.544106 -0.125077
C14   C     C_R   0.155645 0.176453 0.830379 -0.079046
C15   C     C_R   0.844356 0.823548 0.169621 -0.079047
C16   C     C_R   0.392643 0.780974 0.888111 0.514644
C17   C     C_R   0.607356 0.219026 0.111889 0.514644
C18   C     C_R   0.130796 0.126790 0.737793 -0.079240
C19   C     C_R   0.869205 0.873211 0.262207 -0.079241
C20   C     C_R   0.050062 0.099070 0.690835 0.055960
C21   C     C_R   0.949938 0.900930 0.309165 0.055960
C22   C     C_R   0.993652 0.119813 0.737114 -0.089752
C23   C     C_3   0.982104 0.428937 0.413923 -0.110792
C24   C     C_R   0.006348 0.880186 0.262886 -0.089751
C25   C     C_R   0.018425 0.169299 0.829655 -0.090118
C26   C     C_R   0.981576 0.830701 0.170345 -0.090118
C27   C     C_R   0.099767 0.198470 0.876945 0.032127
C28   C     C_R   0.900234 0.801530 0.123055 0.032127
C29   C     C_R   0.971490 0.943880 0.537390 -0.158329
C30   C     C_R   0.028510 0.056120 0.462610 -0.158329
C31   C     C_R   0.945533 0.892335 0.444641 0.017991
C32   C     C_R   0.054467 0.107665 0.555358 0.017991
C33   C     C_R   0.974286 0.949163 0.406531 -0.033311
C34   C     C_3   0.017896 0.571063 0.586077 -0.110793
C35   C     C_R   0.025714 0.050837 0.593469 -0.033311
C36   C     C_R   0.641177 0.612087 0.798519 -0.096907
C37   C     C_R   0.358821 0.387912 0.201480 -0.096908
C38   C     C_R   0.598720 0.557052 0.835865 0.139854
C39   C     C_R   0.401278 0.442947 0.164133 0.139852
C40   C     C_R   0.110737 0.500739 0.889582 0.502102
C41   C     C_R   0.889263 0.499261 0.110418 0.502102
C42   C     C_R   0.592658 0.609550 0.921521 0.070774
C43   C     C_R   0.407341 0.390449 0.078478 0.070774
C44   C     C_R   0.629912 0.715900 0.968826 -0.092781
C45   C     C_3   0.412425 0.964080 0.973610 -0.132044
C46   C     C_R   0.370089 0.284100 0.031175 -0.092779
C47   C     C_R   0.671321 0.770022 0.930832 0.013035
C48   C     C_R   0.328680 0.229979 0.069168 0.013037
C49   C     C_R   0.676816 0.717544 0.845461 -0.096768
C50   C     C_R   0.323184 0.282456 0.154539 -0.096768
C51   C     C_R   0.592839 0.552233 0.016995 -0.166609
C52   C     C_R   0.407161 0.447766 0.983004 -0.166608
C53   C     C_R   0.550387 0.499779 0.055873 0.039255
C54   C     C_R   0.449613 0.500221 0.944127 0.039255
C55   C     C_R   0.456490 0.446934 0.039050 -0.011937
C56   C     C_3   0.587575 0.035919 0.026390 -0.132044
C57   C     C_R   0.543510 0.553065 0.960950 -0.011937
C58   C     C_R   0.151285 0.811876 0.980229 -0.069267
C59   C     C_R   0.848714 0.188123 0.019771 -0.069266
C60   C     C_R   0.128412 0.742789 0.003700 -0.106324
C61   C     C_R   0.871587 0.257211 0.996300 -0.106323
C62   C     C_R   0.048810 0.642319 0.950942 0.050376
C63   C     C_R   0.951189 0.357680 0.049058 0.050376
C64   C     C_R   0.392197 0.500026 0.607741 0.508659
C65   C     C_R   0.607803 0.499974 0.392259 0.508658
C66   C     C_R   0.991514 0.612128 0.875477 -0.103553
C67   C     C_3   0.489603 0.036436 0.954673 -0.120155
C68   C     C_R   0.008486 0.387871 0.124522 -0.103554
C69   C     C_R   0.014398 0.681169 0.851980 -0.088518
C70   C     C_R   0.985602 0.318830 0.148018 -0.088520
C71   C     C_R   0.094881 0.781410 0.903974 0.138036
C72   C     C_R   0.905119 0.218589 0.096025 0.138036
C73   C     C_R   0.971057 0.565087 0.027921 -0.162224
C74   C     C_R   0.028943 0.434912 0.972078 -0.162224
C75   C     C_R   0.945561 0.497682 0.053751 0.018369
C76   C     C_R   0.054439 0.502318 0.946249 0.018369
C77   C     C_R   0.974793 0.431416 0.025221 -0.030061
C78   C     C_3   0.510396 0.963564 0.045327 -0.120154
C79   C     C_R   0.025207 0.568584 0.974779 -0.030061
C80   C     C_R   0.393895 0.499484 0.888121 0.519879
C81   C     C_R   0.606105 0.500515 0.111879 0.519879
C82   C     C_R   0.108956 0.500303 0.607785 0.505124
C83   C     C_R   0.891044 0.499697 0.392215 0.505123
C84   C     C_3   0.077292 0.523909 0.481687 -0.124897
C85   C     C_3   0.922708 0.476091 0.518313 -0.124897
C86   C     C_3   0.043098 0.594245 0.515743 -0.123964
C87   C     C_3   0.956901 0.405755 0.484257 -0.123964
C88   C     C_3   0.948747 0.499314 0.448834 0.066231
C89   C     C_3   0.550517 0.103166 0.052535 0.065277
C90   C     C_3   0.051253 0.500686 0.551166 0.066231
C91   C     C_3   0.126156 0.253007 0.976432 -0.406202
C92   C     C_3   0.873845 0.746994 0.023568 -0.406202
C93   C     C_3   0.708069 0.882867 0.981396 -0.403634
C94   C     C_3   0.291935 0.117134 0.018606 -0.403635
C95   C     C_3   0.447734 0.293501 0.374334 -0.391936
C96   C     C_3   0.552266 0.706499 0.625666 -0.391936
H1    H     H_    0.077628 0.671604 0.527768 0.108114
H2    H     H_    0.025541 0.814596 0.135420 0.103507
H3    H     H_    0.949719 0.900918 0.567027 0.144749
H4    H     H_    0.050281 0.099082 0.432973 0.144750
H5    H     H_    0.708409 0.758014 0.814940 0.101376
H6    H     H_    0.291591 0.241986 0.185060 0.101376
H7    H     H_    0.646307 0.573269 0.732752 0.090097
H8    H     H_    0.353689 0.426730 0.267246 0.090097
H9    H     H_    0.624756 0.755966 0.034457 0.098440
H10   H     H_    0.375247 0.244035 0.965544 0.098440
H11   H     H_    0.141621 0.543580 0.467516 0.106280
H12   H     H_    0.922372 0.328396 0.472232 0.108114
H13   H     H_    0.858379 0.456420 0.532484 0.106280
H14   H     H_    0.664865 0.592002 0.029123 0.137501
H15   H     H_    0.335135 0.407998 0.970877 0.137501
H16   H     H_    0.213087 0.889134 0.021239 0.099744
H17   H     H_    0.786911 0.110867 0.978762 0.099744
H18   H     H_    0.172890 0.767172 0.062475 0.094814
H19   H     H_    0.827109 0.232829 0.937526 0.094814
H20   H     H_    0.929591 0.534942 0.834585 0.098683
H21   H     H_    0.070410 0.465056 0.165413 0.098683
H22   H     H_    0.969595 0.656306 0.793181 0.090141
H23   H     H_    0.218614 0.198167 0.865627 0.095824
H24   H     H_    0.030406 0.343692 0.206817 0.090142
H25   H     H_    0.948892 0.615929 0.049217 0.140048
H26   H     H_    0.051107 0.384071 0.950783 0.140048
H27   H     H_    0.966557 0.370406 0.342490 0.118444
H28   H     H_    0.033443 0.629594 0.657509 0.118444
H29   H     H_    0.482287 0.066303 0.917050 0.107775
H30   H     H_    0.517713 0.933697 0.082950 0.107776
H31   H     H_    0.340590 0.934949 0.953408 0.111751
H32   H     H_    0.659410 0.065051 0.046592 0.111751
H33   H     H_    0.341554 0.389699 0.406321 0.116697
H34   H     H_    0.781387 0.801834 0.134372 0.095824
H35   H     H_    0.658446 0.610300 0.593679 0.116697
H36   H     H_    0.483678 0.569290 0.419765 0.103525
H37   H     H_    0.516322 0.430710 0.580235 0.103524
H38   H     H_    0.191695 0.270632 0.004396 0.130330
H39   H     H_    0.132242 0.327118 0.008307 0.128944
H40   H     H_    0.073884 0.203332 0.993195 0.145677
H41   H     H_    0.808307 0.729369 0.995604 0.130330
H42   H     H_    0.926117 0.796668 0.006805 0.145677
H43   H     H_    0.867759 0.672882 0.991693 0.128944
H44   H     H_    0.566335 0.420172 0.723282 0.213140
H45   H     H_    0.174969 0.111288 0.702840 0.099527
H46   H     H_    0.598148 0.438966 0.820445 0.219537
H47   H     H_    0.433659 0.579826 0.276715 0.213141
H48   H     H_    0.401847 0.561030 0.179551 0.219537
H49   H     H_    0.738597 0.915290 0.943083 0.136153
H50   H     H_    0.652901 0.892984 0.995190 0.134364
H51   H     H_    0.760497 0.926998 0.045735 0.148722
H52   H     H_    0.261406 0.084711 0.056919 0.136151
H53   H     H_    0.239508 0.073002 0.954266 0.148721
H54   H     H_    0.347105 0.107020 0.004814 0.134365
H55   H     H_    0.178272 0.866743 0.863648 0.221817
H56   H     H_    0.825032 0.888713 0.297160 0.099527
H57   H     H_    0.070345 0.819964 0.823700 0.221618
H58   H     H_    0.821729 0.133258 0.136354 0.221818
H59   H     H_    0.929656 0.180034 0.176297 0.221619
H60   H     H_    0.422643 0.107474 0.146697 0.233782
H61   H     H_    0.393074 0.001452 0.141883 0.216425
H62   H     H_    0.577357 0.892526 0.853303 0.233782
H63   H     H_    0.606926 0.998548 0.858117 0.216425
H64   H     H_    0.391975 0.239736 0.385329 0.125284
H65   H     H_    0.424636 0.270146 0.305510 0.150190
H66   H     H_    0.505953 0.289357 0.382483 0.138787
H67   H     H_    0.931173 0.098842 0.701660 0.097611
H68   H     H_    0.608025 0.760263 0.614671 0.125284
H69   H     H_    0.494047 0.710643 0.617517 0.138787
H70   H     H_    0.575364 0.729854 0.694490 0.150190
H71   H     H_    0.068826 0.901157 0.298341 0.097611
H72   H     H_    0.974459 0.185403 0.864580 0.103507
N1    N     N_3   0.560148 0.448066 0.786941 -0.632409
N2    N     N_3   0.439848 0.551932 0.213057 -0.632409
N3    N     N_3   0.119963 0.853226 0.880724 -0.654283
N4    N     N_3   0.880037 0.146773 0.119275 -0.654286
N5    N     N_3   0.447385 0.067202 0.148802 -0.631802
N6    N     N_3   0.552615 0.932798 0.851198 -0.631803
O1    O     O_3   0.251620 0.500000 0.748430 -0.440684
O2    O     O_R   0.570330 0.268390 0.136490 -0.541507
O3    O     O_R   0.134680 0.268390 0.572240 -0.554673
O4    O     O_R   0.865320 0.731610 0.427760 -0.554672
O5    O     O_R   0.306670 0.731630 0.863510 -0.547727
O6    O     O_R   0.693330 0.268370 0.136490 -0.547727
O7    O     O_R   0.135450 0.439270 0.865360 -0.551766
O8    O     O_R   0.864550 0.560730 0.134640 -0.551766
O9    O     O_R   0.429670 0.560710 0.692610 -0.536489
O10   O     O_R   0.570330 0.439290 0.307390 -0.536489
O11   O     O_R   0.308540 0.439240 0.865360 -0.555660
O12   O     O_3   0.748380 0.500000 0.251570 -0.440684
O13   O     O_R   0.691460 0.560760 0.134640 -0.555660
O14   O     O_R   0.133580 0.439310 0.571150 -0.545435
O15   O     O_R   0.866420 0.560690 0.428850 -0.545435
O16   O     O_R   0.430770 0.560690 0.864590 -0.531058
O17   O     O_R   0.569230 0.439310 0.135410 -0.531059
O18   O     O_R   0.133580 0.560760 0.692610 -0.544854
O19   O     O_R   0.866420 0.439240 0.307390 -0.544854
O20   O     O_R   0.134680 0.560740 0.864590 -0.533507
O21   O     O_R   0.865320 0.439260 0.135410 -0.533508
O22   O     O_R   0.306670 0.439270 0.571150 -0.551405
O23   O     O_R   0.693330 0.560730 0.428850 -0.551405
O24   O     O_R   0.135450 0.268370 0.694460 -0.531374
O25   O     O_R   0.864550 0.731630 0.305540 -0.531374
O26   O     O_R   0.429670 0.731610 0.863510 -0.541507
Zn1   Zn    Zn3+2 0.207400 0.586780 0.791530 0.933964
Zn2   Zn    Zn3+2 0.792600 0.413220 0.208470 0.933964
Zn3   Zn    Zn3+2 0.208510 0.413230 0.792630 0.931608
Zn4   Zn    Zn3+2 0.791490 0.586770 0.207370 0.931608
Zn5   Zn    Zn3+2 0.383150 0.586740 0.791530 0.943068
Zn6   Zn    Zn3+2 0.616850 0.413260 0.208470 0.943068
Zn7   Zn    Zn3+2 0.207400 0.413250 0.618010 0.924394
Zn8   Zn    Zn3+2 0.792600 0.586750 0.381990 0.924394

loop_
_geom_bond_atom_site_label_1
_geom_bond_atom_site_label_2
_ccdc_geom_bond_type
C12   O4    A    
O14   Zn7   S    
O26   Zn5   S    
C22   H67   S    
C30   H4    S    
C37   H8    S    
C14   C18   A    
C60   H18   S    
C1    O24   A    
C8    C96   S    
C76   C79   A    
O1    Zn7   S    
C92   H42   S    
C11   H36   S    
C6    C9    S    
O10   Zn6   S    
C47   C49   A    
O21   Zn2   S    
C40   O20   A    
C44   H9    S    
C94   H53   S    
C15   C19   A    
C91   H38   S    
H44   N1    S    
C74   C76   A    
C36   H7    S    
O8    Zn4   S    
C72   N4    S    
C53   C81   S    
C19   C21   A    
C84   C86   S    
C5    C11   S    
C39   N2    S    
O6    Zn2   S    
C67   H29   S    
C49   H5    S    
C8    C10   S    
C86   C88   S    
C58   C71   A    
C85   C88   S    
C66   C69   A    
C21   C33   S    
O15   Zn8   S    
C58   C60   A    
H48   N2    S    
C69   H22   S    
C67   C89   S    
C84   H11   S    
C56   C78   S    
O12   Zn2   S    
C60   C62   A    
C34   C86   S    
O2    Zn6   S    
C61   C63   A    
C86   H1    S    
C71   N3    S    
C81   O17   A    
C64   O9    A    
C1    O3    A    
H59   N4    S    
C3    N5    S    
C40   C76   S    
H55   N3    S    
C91   H40   S    
O5    Zn1   S    
C70   H24   S    
C74   C77   A    
O4    Zn8   S    
C45   C67   S    
O18   Zn1   S    
C31   C33   A    
C93   H49   S    
C51   C57   A    
C14   C27   A    
C44   C47   A    
C2    C16   S    
C16   O26   A    
C52   C55   A    
C59   C72   A    
C48   C50   A    
C83   C88   S    
C2    C45   S    
C23   C87   S    
C4    C56   S    
C73   C75   A    
C95   H65   S    
O7    Zn3   S    
C42   C44   A    
C92   H41   S    
C42   C57   S    
C52   C54   A    
C85   H13   S    
C54   C80   S    
C87   H12   S    
C53   C55   A    
C25   H72   S    
C94   H52   S    
C37   C39   A    
C46   C48   A    
H60   N5    S    
C59   C61   A    
C69   C71   A    
C23   C84   S    
C29   H3    S    
C85   C87   S    
H58   N4    S    
C95   H64   S    
C32   C35   A    
C62   C79   S    
C24   H71   S    
C17   C89   S    
O1    Zn1   S    
C16   O5    A    
C95   H66   S    
C5    C7    S    
O12   Zn6   S    
C23   H27   S    
C13   H37   S    
C52   H15   S    
O20   Zn1   S    
O13   Zn4   S    
H63   N6    S    
C1    C32   S    
O19   Zn2   S    
C96   H68   S    
C82   O14   A    
C51   C53   A    
C34   C85   S    
C83   O19   A    
C2    C4    S    
C34   C90   S    
C61   H19   S    
C2    C78   S    
C96   H70   S    
C68   H21   S    
C41   C75   S    
C9    C11   S    
O16   Zn5   S    
C59   H17   S    
H57   N3    S    
C19   H56   S    
C73   C79   A    
O12   Zn4   S    
C93   H50   S    
C28   C92   S    
C83   O15   A    
C27   C91   S    
C75   C77   A    
C48   C94   S    
C26   H2    S    
H46   N1    S    
C65   O23   A    
C17   O6    A    
C43   C55   S    
C56   C89   S    
C74   H26   S    
C22   C25   A    
C20   C22   A    
C50   H6    S    
C51   H14   S    
C73   H25   S    
C23   C88   S    
C12   C31   S    
O25   Zn4   S    
O9    Zn5   S    
C58   H16   S    
C41   O8    A    
C21   C24   A    
C94   H54   S    
O1    Zn5   S    
C78   H30   S    
C38   N1    S    
C40   O7    A    
C63   C77   S    
C84   C90   S    
C7    C9    S    
C63   C68   A    
C41   O21   A    
C34   H28   S    
C47   C93   S    
C30   C33   A    
C82   O18   A    
C70   C72   A    
C80   O11   A    
C80   O16   A    
C20   C35   S    
C18   H45   S    
C10   C64   S    
H47   N2    S    
C24   C26   A    
C6    H35   S    
C10   C13   S    
H62   N6    S    
C4    C67   S    
C6    C8    S    
C17   O2    A    
C38   C42   A    
C25   C27   A    
C7    C95   S    
C29   C35   A    
C26   C28   A    
C82   C90   S    
O12   Zn8   S    
C3    C89   S    
O11   Zn3   S    
O22   Zn7   S    
C36   C38   A    
C66   H20   S    
O1    Zn3   S    
C5    C10   S    
C29   C31   A    
C54   C57   A    
C6    C13   S    
C30   C32   A    
C37   C50   A    
C3    C78   S    
C15   C28   A    
C15   H34   S    
C45   H31   S    
C8    C11   S    
C64   O22   A    
C5    H33   S    
C12   O25   A    
C3    C45   S    
C93   H51   S    
C18   C20   A    
C56   H32   S    
C43   C46   A    
C9    C65   S    
C62   C66   A    
C46   H10   S    
O3    Zn7   S    
C7    C13   S    
C91   H39   S    
C39   C43   A    
C68   C70   A    
C14   H23   S    
C87   C90   S    
H61   N5    S    
O24   Zn3   S    
C96   H69   S    
O23   Zn8   S    
C4    N6    S    
C92   H43   S    
O17   Zn6   S    
C36   C49   A    
C81   O13   A    
C65   O10   A    
