data_mof_unit_61932.cif
_audit_creation_date              2012-12-10T17:04:59-0500
_audit_creation_method            fapswitch 2.2
_symmetry_space_group_name_H-M    P1
_symmetry_Int_Tables_number       1
_space_group_crystal_system       triclinic
_cell_length_a                    30.118805
_cell_length_b                    30.82542
_cell_length_c                    21.374129
_cell_angle_alpha                 89.999604
_cell_angle_beta                  134.683533
_cell_angle_gamma                 90.00053
_cell_volume                      14109.3090086

loop_
_atom_site_label
_atom_site_type_symbol
_atom_type_description
_atom_site_fract_x
_atom_site_fract_y
_atom_site_fract_z
_atom_type_partial_charge
C1    C     C_R   0.309565 0.809878 0.120548 0.918524
C2    C     C_R   0.690435 0.809878 0.879452 0.918517
C3    C     C_R   0.809566 0.309878 0.120548 0.918509
C4    C     C_R   0.190436 0.309878 0.879451 0.918525
C5    C     C_R   0.547284 0.790484 0.001498 0.015014
C6    C     C_R   0.452706 0.790484 0.998481 0.015014
C7    C     C_R   0.047324 0.290484 0.001580 0.015017
C8    C     C_R   0.952746 0.290485 0.998564 0.015017
C9    C     C_R   0.522772 0.671466 0.999388 -0.186395
C10   C     C_R   0.477247 0.671466 0.000653 -0.186396
C11   C     C_R   0.022683 0.171467 0.999212 -0.186405
C12   C     C_R   0.977158 0.171466 0.000477 -0.186386
C13   C     C_R   0.476786 0.830272 0.000656 0.333168
C14   C     C_R   0.523196 0.830272 0.999304 0.333181
C15   C     C_R   0.976869 0.330272 0.000825 0.333168
C16   C     C_R   0.023278 0.330273 0.999473 0.333178
C17   C     C_R   0.322778 0.804509 0.268976 -0.187604
C18   C     C_R   0.677217 0.804509 0.731019 -0.187598
C19   C     C_R   0.822779 0.304509 0.268977 -0.187594
C20   C     C_R   0.177190 0.304500 0.730993 -0.187601
C21   C     C_R   0.337712 0.798476 0.346657 -0.170896
C22   C     C_R   0.662282 0.798476 0.653337 -0.170899
C23   C     C_R   0.837710 0.298477 0.346657 -0.170897
C24   C     C_R   0.162234 0.298461 0.653295 -0.170893
C25   C     C_R   0.380554 0.825787 0.418074 0.337519
C26   C     C_R   0.619438 0.825787 0.581920 0.337521
C27   C     C_R   0.880553 0.325788 0.418074 0.337524
C28   C     C_R   0.119389 0.325773 0.581883 0.337523
C29   C     C_R   0.405861 0.860582 0.410140 -0.174854
C30   C     C_R   0.594131 0.860580 0.589854 -0.174855
C31   C     C_R   0.905862 0.360581 0.410142 -0.174854
C32   C     C_R   0.094103 0.360575 0.589835 -0.174855
C33   C     C_R   0.389013 0.868327 0.330302 0.013800
C34   C     C_R   0.610982 0.868326 0.669693 0.013796
C35   C     C_R   0.889015 0.368326 0.330305 0.013807
C36   C     C_R   0.110970 0.368324 0.669685 0.013802
C37   C     C_R   0.350988 0.838152 0.261579 0.073425
C38   C     C_R   0.649009 0.838152 0.738417 0.073430
C39   C     C_R   0.850989 0.338152 0.261581 0.073440
C40   C     C_R   0.148997 0.338148 0.738406 0.073426
C41   C     C_R   0.342394 0.842635 0.187682 -0.226717
C42   C     C_R   0.657606 0.842636 0.812318 -0.226723
C43   C     C_R   0.842393 0.342636 0.187682 -0.226715
C44   C     C_R   0.157605 0.342635 0.812316 -0.226735
C45   C     C_R   0.336634 0.749888 0.999737 0.881957
C46   C     C_R   0.663366 0.749888 0.000263 0.881944
C47   C     C_R   0.836634 0.249888 0.999736 0.881926
C48   C     C_R   0.163365 0.249889 0.000262 0.881975
C49   C     C_R   0.367407 0.878023 0.179189 0.234022
C50   C     C_R   0.632599 0.878026 0.820815 0.234023
C51   C     C_R   0.867400 0.378026 0.179184 0.234025
C52   C     C_R   0.132603 0.378026 0.820819 0.234037
C53   C     C_R   0.397688 0.910709 0.241661 0.238875
C54   C     C_R   0.602317 0.910711 0.758342 0.238871
C55   C     C_R   0.897682 0.410712 0.241658 0.238877
C56   C     C_R   0.102321 0.410713 0.758347 0.238853
C57   C     C_R   0.409110 0.905459 0.317232 -0.213405
C58   C     C_R   0.590888 0.905459 0.682766 -0.213401
C59   C     C_R   0.909111 0.405459 0.317233 -0.213395
C60   C     C_R   0.090888 0.405460 0.682768 -0.213392
C61   C     C_R   0.868735 0.747780 0.923660 -0.289671
C62   C     C_R   0.131265 0.747780 0.076341 -0.289672
C63   C     C_R   0.368735 0.247780 0.923660 -0.289671
C64   C     C_R   0.631265 0.247779 0.076341 -0.289672
C65   C     C_R   0.886490 0.747996 0.003954 -0.119961
C66   C     C_R   0.113511 0.747995 0.996046 -0.119959
C67   C     C_R   0.386489 0.247996 0.003954 -0.119962
C68   C     C_R   0.613511 0.247995 0.996046 -0.119959
C69   C     C_R   0.949762 0.746859 0.084438 0.201833
C70   C     C_R   0.050238 0.746858 0.915562 0.201833
C71   C     C_R   0.449762 0.246859 0.084438 0.201833
C72   C     C_R   0.550238 0.246858 0.915562 0.201832
C73   C     C_R   0.995791 0.747131 0.083272 0.049157
C74   C     C_R   0.004210 0.747129 0.916728 0.049157
C75   C     C_R   0.495790 0.247130 0.083272 0.049157
C76   C     C_R   0.504210 0.247130 0.916728 0.049159
C77   C     C_R   0.977357 0.747401 0.001263 0.036731
C78   C     C_R   0.022643 0.747400 0.998738 0.036731
C79   C     C_R   0.477357 0.247401 0.001263 0.036731
C80   C     C_R   0.522643 0.247400 0.998738 0.036731
C81   C     C_R   0.913640 0.747429 0.921627 0.127387
C82   C     C_R   0.086360 0.747430 0.078374 0.127387
C83   C     C_R   0.413640 0.247430 0.921627 0.127388
C84   C     C_R   0.586360 0.247429 0.078374 0.127387
C85   C     C_R   0.059696 0.747071 0.161674 -0.141245
C86   C     C_R   0.940304 0.747069 0.838326 -0.141245
C87   C     C_R   0.559696 0.247070 0.161674 -0.141245
C88   C     C_R   0.440304 0.247070 0.838326 -0.141248
C89   C     C_R   0.191439 0.690171 0.879469 0.868097
C90   C     C_R   0.808561 0.690171 0.120531 0.868094
C91   C     C_R   0.691438 0.190171 0.879469 0.868090
C92   C     C_R   0.308561 0.190171 0.120531 0.868103
C93   C     C_R   0.104482 0.747318 0.159104 -0.195526
C94   C     C_R   0.895519 0.747316 0.840897 -0.195527
C95   C     C_R   0.604482 0.247317 0.159104 -0.195526
C96   C     C_R   0.395518 0.247317 0.840896 -0.195529
C97   C     C_R   0.183174 0.694945 0.734768 -0.215913
C98   C     C_R   0.816829 0.694945 0.265236 -0.215914
C99   C     C_R   0.683180 0.194942 0.734774 -0.215924
C100  C     C_R   0.316833 0.194946 0.265239 -0.215903
C101  C     C_R   0.172162 0.699778 0.659914 0.334155
C102  C     C_R   0.827843 0.699778 0.340091 0.334154
C103  C     C_R   0.672172 0.199774 0.659923 0.334155
C104  C     C_R   0.327848 0.199780 0.340095 0.334154
C105  C     C_R   0.130707 0.672103 0.588469 -0.145000
C106  C     C_R   0.869299 0.672103 0.411536 -0.144999
C107  C     C_R   0.630717 0.172099 0.588478 -0.145003
C108  C     C_R   0.369303 0.172104 0.411539 -0.144997
C109  C     C_R   0.102079 0.638483 0.592975 -0.225017
C110  C     C_R   0.897925 0.638483 0.407028 -0.225016
C111  C     C_R   0.602085 0.138481 0.592980 -0.225016
C112  C     C_R   0.397928 0.138484 0.407030 -0.225016
C113  C     C_R   0.114637 0.631987 0.669747 0.098331
C114  C     C_R   0.885366 0.631987 0.330255 0.098330
C115  C     C_R   0.614640 0.131986 0.669749 0.098331
C116  C     C_R   0.385367 0.131988 0.330256 0.098330
C117  C     C_R   0.152685 0.662054 0.739227 0.051270
C118  C     C_R   0.847317 0.662055 0.260775 0.051271
C119  C     C_R   0.652688 0.162053 0.739230 0.051268
C120  C     C_R   0.347319 0.162055 0.260776 0.051272
C121  C     C_R   0.159782 0.657786 0.811769 -0.082629
C122  C     C_R   0.840218 0.657786 0.188231 -0.082629
C123  C     C_R   0.659782 0.157786 0.811770 -0.082626
C124  C     C_R   0.340218 0.157786 0.188231 -0.082629
C125  C     C_R   0.132814 0.623420 0.817685 -0.161945
C126  C     C_R   0.867184 0.623419 0.182313 -0.161946
C127  C     C_R   0.632811 0.123421 0.817683 -0.161945
C128  C     C_R   0.367182 0.123418 0.182312 -0.161949
C129  C     C_R   0.098202 0.592889 0.751849 -0.160785
C130  C     C_R   0.901797 0.592888 0.248149 -0.160786
C131  C     C_R   0.598200 0.092890 0.751847 -0.160782
C132  C     C_R   0.401794 0.092887 0.248147 -0.160793
C133  C     C_R   0.162407 0.749157 0.998259 0.918973
C134  C     C_R   0.837593 0.749157 0.001741 0.918974
C135  C     C_R   0.662407 0.249157 0.998259 0.918971
C136  C     C_R   0.337593 0.249157 0.001741 0.918978
C137  C     C_R   0.089739 0.596584 0.679018 -0.105350
C138  C     C_R   0.910262 0.596584 0.320982 -0.105350
C139  C     C_R   0.589739 0.096585 0.679018 -0.105355
C140  C     C_R   0.410261 0.096584 0.320981 -0.105343
C141  C     C_R   0.941437 0.561385 0.382874 0.855362
C142  C     C_R   0.058563 0.561385 0.617126 0.855355
C143  C     C_R   0.441437 0.061385 0.382874 0.855354
C144  C     C_R   0.558563 0.061385 0.617126 0.855360
C145  C     C_R   0.440509 0.939666 0.380838 0.909365
C146  C     C_R   0.559490 0.939666 0.619160 0.909376
C147  C     C_R   0.940510 0.439665 0.380840 0.909368
C148  C     C_R   0.059491 0.439667 0.619163 0.909380
C149  C     C_R   0.594377 0.789559 0.003043 -0.092619
C150  C     C_R   0.405614 0.789559 0.996936 -0.092607
C151  C     C_R   0.094415 0.289558 0.003123 -0.092589
C152  C     C_R   0.905652 0.289560 0.997017 -0.092639
C153  C     C_R   0.615621 0.750040 0.000441 -0.102498
C154  C     C_R   0.384379 0.750040 0.999558 -0.102509
C155  C     C_R   0.115619 0.250040 0.000439 -0.102545
C156  C     C_R   0.884377 0.250040 0.999556 -0.102463
C157  C     C_R   0.591467 0.710795 0.998011 -0.233006
C158  C     C_R   0.408542 0.710795 0.002009 -0.233005
C159  C     C_R   0.091422 0.210797 0.997924 -0.233001
C160  C     C_R   0.908498 0.210794 0.001922 -0.233008
C161  C     C_R   0.546003 0.710778 0.999331 0.170740
C162  C     C_R   0.454006 0.710779 0.000689 0.170735
C163  C     C_R   0.045957 0.210779 0.999242 0.170719
C164  C     C_R   0.953960 0.210778 0.000600 0.170756
C165  C     C_R   0.523401 0.750735 0.000418 -0.014535
C166  C     C_R   0.476599 0.750735 0.999581 -0.014534
C167  C     C_R   0.023398 0.250735 0.000415 -0.014535
C168  C     C_R   0.976596 0.250735 0.999578 -0.014537
H1    H     H_    0.614078 0.819456 0.004678 0.233157
H2    H     H_    0.385906 0.819456 0.995288 0.233161
H3    H     H_    0.114147 0.319455 0.004819 0.233163
H4    H     H_    0.885976 0.319458 0.995432 0.233150
H5    H     H_    0.819601 0.748387 0.862498 0.154618
H6    H     H_    0.180399 0.748388 0.137503 0.154617
H7    H     H_    0.319601 0.248389 0.862498 0.154620
H8    H     H_    0.680399 0.248387 0.137503 0.154617
H9    H     H_    0.075941 0.747132 0.225631 0.205620
H10   H     H_    0.924059 0.747129 0.774369 0.205620
H11   H     H_    0.575941 0.247130 0.225631 0.205620
H12   H     H_    0.424059 0.247130 0.774369 0.205619
H13   H     H_    0.153461 0.747426 0.220478 0.160055
H14   H     H_    0.846540 0.747424 0.779522 0.160055
H15   H     H_    0.653460 0.247425 0.220478 0.160055
H16   H     H_    0.346540 0.247425 0.779522 0.160056
H17   H     H_    0.138104 0.620463 0.873197 0.176022
H18   H     H_    0.861893 0.620462 0.126800 0.176023
H19   H     H_    0.638100 0.120464 0.873193 0.176021
H20   H     H_    0.361889 0.120460 0.126797 0.176023
H21   H     H_    0.216309 0.716743 0.789207 0.170787
H22   H     H_    0.783694 0.716743 0.210797 0.170788
H23   H     H_    0.716315 0.216740 0.789214 0.170785
H24   H     H_    0.283697 0.216744 0.210801 0.170790
H25   H     H_    0.121013 0.676354 0.529533 0.184508
H26   H     H_    0.878994 0.676354 0.470473 0.184508
H27   H     H_    0.621026 0.176350 0.529544 0.184507
H28   H     H_    0.379000 0.176356 0.470477 0.184508
H29   H     H_    0.069606 0.618187 0.535450 0.165058
H30   H     H_    0.930399 0.618187 0.464553 0.165057
H31   H     H_    0.569612 0.118185 0.535454 0.165062
H32   H     H_    0.430402 0.118187 0.464554 0.165055
H33   H     H_    0.608975 0.680388 0.996741 0.152358
H34   H     H_    0.391041 0.680389 0.003294 0.152368
H35   H     H_    0.108898 0.180391 0.996590 0.152398
H36   H     H_    0.890964 0.180387 0.003143 0.152328
H37   H     H_    0.078769 0.565837 0.758467 0.202761
H38   H     H_    0.921228 0.565836 0.241529 0.202761
H39   H     H_    0.578765 0.065839 0.758464 0.202761
H40   H     H_    0.421224 0.065834 0.241526 0.202756
H41   H     H_    0.540007 0.640757 0.998818 0.153916
H42   H     H_    0.460019 0.640757 0.001240 0.153916
H43   H     H_    0.039885 0.140758 0.998575 0.153917
H44   H     H_    0.959897 0.140757 0.000997 0.153916
H45   H     H_    0.288638 0.782761 0.215162 0.155174
H46   H     H_    0.711359 0.782762 0.784834 0.155174
H47   H     H_    0.788639 0.282761 0.215162 0.155172
H48   H     H_    0.211333 0.282752 0.784804 0.155187
H49   H     H_    0.316446 0.772176 0.351529 0.167887
H50   H     H_    0.683549 0.772177 0.648465 0.167887
H51   H     H_    0.816441 0.272177 0.351527 0.167885
H52   H     H_    0.183484 0.272154 0.648409 0.167896
H53   H     H_    0.439128 0.880945 0.467279 0.159996
H54   H     H_    0.560864 0.880943 0.532715 0.159991
H55   H     H_    0.939128 0.380944 0.467281 0.159994
H56   H     H_    0.060836 0.380940 0.532700 0.159970
O1    O     O_R   0.321630 0.769940 0.143350 -0.622932
O2    O     O_R   0.678370 0.769940 0.856650 -0.622934
O3    O     O_R   0.821630 0.269940 0.143350 -0.622927
O4    O     O_R   0.178370 0.269940 0.856650 -0.622939
O5    O     O_R   0.916920 0.545810 0.408440 -0.619025
O6    O     O_R   0.083080 0.545810 0.591560 -0.619028
O7    O     O_R   0.416920 0.045810 0.408440 -0.619026
O8    O     O_R   0.583080 0.045810 0.591560 -0.619029
O9    O     O_R   0.491480 0.954180 0.408380 -0.577914
O10   O     O_R   0.508520 0.954180 0.591620 -0.577917
O11   O     O_R   0.991480 0.454180 0.408380 -0.577912
O12   O     O_R   0.008520 0.454180 0.591620 -0.577921
O13   O     O_R   0.416890 0.954190 0.408420 -0.621523
O14   O     O_R   0.583110 0.954190 0.591580 -0.621519
O15   O     O_R   0.916890 0.454190 0.408420 -0.621523
O16   O     O_R   0.083110 0.454190 0.591580 -0.621519
O17   O     O_R   0.269950 0.821660 0.039930 -0.582593
O18   O     O_R   0.730050 0.821660 0.960070 -0.582589
O19   O     O_R   0.769950 0.321660 0.039930 -0.582594
O20   O     O_R   0.230050 0.321660 0.960070 -0.582585
O21   O     O_R   0.341900 0.724110 0.051720 -0.612829
O22   O     O_R   0.658100 0.724110 0.948280 -0.612826
O23   O     O_R   0.841900 0.224110 0.051720 -0.612814
O24   O     O_R   0.158100 0.224110 0.948280 -0.612838
O25   O     O_R   0.290220 0.775830 0.948290 -0.607219
O26   O     O_R   0.709780 0.775830 0.051710 -0.607214
O27   O     O_R   0.790220 0.275830 0.948290 -0.607199
O28   O     O_R   0.209780 0.275830 0.051710 -0.607234
O29   O     O_R   0.230030 0.678320 0.960120 -0.624159
O30   O     O_R   0.769970 0.678320 0.039880 -0.624159
O31   O     O_R   0.730030 0.178320 0.960120 -0.624159
O32   O     O_R   0.269970 0.178320 0.039880 -0.624160
O33   O     O_R   0.178350 0.730040 0.856700 -0.596320
O34   O     O_R   0.821650 0.730040 0.143300 -0.596320
O35   O     O_R   0.678350 0.230040 0.856700 -0.596319
O36   O     O_R   0.321650 0.230040 0.143300 -0.596321
O37   O     O_R   0.209770 0.724150 0.051760 -0.635746
O38   O     O_R   0.790230 0.724150 0.948240 -0.635746
O39   O     O_R   0.709770 0.224150 0.051760 -0.635746
O40   O     O_R   0.290230 0.224150 0.948240 -0.635748
O41   O     O_R   0.158090 0.775870 0.948330 -0.578377
O42   O     O_R   0.841910 0.775870 0.051670 -0.578376
O43   O     O_R   0.658090 0.275870 0.948330 -0.578377
O44   O     O_R   0.341910 0.275870 0.051670 -0.578377
O45   O     O_R   0.991500 0.545800 0.408400 -0.610243
O46   O     O_R   0.008500 0.545800 0.591600 -0.610243
O47   O     O_R   0.491500 0.045800 0.408400 -0.610242
O48   O     O_R   0.508500 0.045800 0.591600 -0.610242
Zn1   Zn    Zn3+2 0.284500 0.715460 0.069080 1.005656
Zn2   Zn    Zn3+2 0.715500 0.715460 0.930920 1.005655
Zn3   Zn    Zn3+2 0.784500 0.215460 0.069080 1.005671
Zn4   Zn    Zn3+2 0.215500 0.215460 0.930920 1.005641
Zn5   Zn    Zn3+2 0.215490 0.784530 0.930970 1.085752
Zn6   Zn    Zn3+2 0.784510 0.784530 0.069030 1.085757
Zn7   Zn    Zn3+2 0.715490 0.284530 0.930970 1.085759
Zn8   Zn    Zn3+2 0.284510 0.284530 0.069030 1.085753
Zn9   Zn    Zn3+2 0.549790 0.999990 0.499990 1.040899
Zn10  Zn    Zn3+2 0.450210 0.999990 0.500010 1.040900
Zn11  Zn    Zn3+2 0.049790 0.499990 0.499990 1.040894
Zn12  Zn    Zn3+2 0.950210 0.499990 0.500010 1.040899
Br1   Br    Br    0.420468 0.963497 0.220471 -0.409134
Br2   Br    Br    0.579547 0.963502 0.779537 -0.409140
Br3   Br    Br    0.920454 0.463503 0.220464 -0.409143
Br4   Br    Br    0.079549 0.463503 0.779541 -0.409152
Br5   Br    Br    0.972310 0.741695 0.194320 -0.479015
Br6   Br    Br    0.027690 0.741692 0.805682 -0.479018
Br7   Br    Br    0.472310 0.241694 0.194319 -0.479016
Br8   Br    Br    0.527690 0.241693 0.805681 -0.479020
Br9   Br    Br    0.213453 0.744672 0.655157 -0.438558
Br10  Br    Br    0.786554 0.744672 0.344850 -0.438557
Br11  Br    Br    0.713468 0.244666 0.655171 -0.438558
Br12  Br    Br    0.286561 0.244674 0.344857 -0.438567
O49   O     O_3   0.455323 0.868277 0.006171 -0.724024
H57   H     H_    0.488990 0.890269 0.037939 0.365954
O50   O     O_3   0.544652 0.868276 0.993772 -0.724022
H58   H     H_    0.510986 0.890269 0.962011 0.365964
O51   O     O_3   0.955446 0.368273 0.006425 -0.724005
H59   H     H_    0.989134 0.390250 0.038233 0.365956
O52   O     O_3   0.044775 0.368279 0.994023 -0.724048
H60   H     H_    0.011132 0.390288 0.962307 0.365957
Br13  Br    Br    0.363932 0.881349 0.085207 -0.373445
Br14  Br    Br    0.636085 0.881357 0.914806 -0.373431
Br15  Br    Br    0.863913 0.381360 0.085192 -0.373428
Br16  Br    Br    0.136086 0.381356 0.914808 -0.373431
Br17  Br    Br    0.403819 0.816234 0.526312 -0.449272
Br18  Br    Br    0.596173 0.816235 0.473681 -0.449269
Br19  Br    Br    0.903810 0.316238 0.526308 -0.449262
Br20  Br    Br    0.096091 0.316211 0.473623 -0.449298

loop_
_geom_bond_atom_site_label_1
_geom_bond_atom_site_label_2
_ccdc_geom_bond_type
C99   C103  A    
C146  O10   A    
C57   C145  S    
O7    Zn10  S    
C109  H29   S    
C98   H22   S    
C6    C166  A    
O30   Zn2   S    
C30   H54   S    
C100  H24   S    
O51   H59   S    
O42   Zn6   S    
C154  C158  A    
C55   C59   A    
C20   C40   A    
C29   C33   A    
C100  C104  A    
C5    C149  A    
C149  C153  A    
C64   C84   A    
C8    C168  A    
C93   H13   S    
C152  C156  A    
O16   Zn11  S    
C70   C74   A    
C127  H19   S    
C52   Br16  S    
C151  C155  A    
C20   H48   S    
C10   C162  A    
C41   C49   A    
C32   H56   S    
C25   C29   A    
O38   Zn2   S    
C23   H51   S    
C27   C31   A    
C164  C168  A    
O19   Zn7   S    
C62   C66   A    
C98   C102  A    
C17   C21   A    
C48   O28   A    
C19   C23   A    
C142  O46   A    
C78   C82   A    
C53   Br1   S    
O52   H60   S    
C68   C72   A    
C13   O49   S    
C89   O33   A    
C24   H52   S    
C1    C41   S    
C48   C155  S    
C115  C139  A    
C113  C137  A    
C54   Br2   S    
O18   Zn6   S    
O23   Zn3   S    
C90   O34   A    
C160  C164  A    
C2    O2    A    
C46   C153  S    
C148  O16   A    
O1    Zn1   S    
C138  C141  S    
O22   Zn2   S    
C133  O41   A    
C119  C123  A    
C67   C136  S    
C18   C38   A    
C48   O24   A    
C101  Br9   S    
C95   H15   S    
C66   C70   A    
C91   O31   A    
O4    Zn4   S    
C49   C53   A    
O25   Zn5   S    
C51   C55   A    
C97   C117  A    
C127  C131  A    
C99   C119  A    
C61   C65   A    
C129  C137  A    
C34   C58   A    
C126  C130  A    
C47   O23   A    
O45   Zn11  S    
C103  C107  A    
C45   C154  S    
C60   C148  S    
O46   Zn12  S    
C75   C79   A    
C112  H32   S    
C161  C165  A    
C59   C147  S    
C79   C83   A    
C137  C142  S    
O33   Zn5   S    
O35   Zn7   S    
C140  C143  S    
C86   H10   S    
C131  H39   S    
C106  H26   S    
C150  H2    S    
C133  O37   A    
O40   Zn4   S    
C143  O47   A    
C64   C68   A    
C144  O48   A    
C152  H4    S    
C142  O6    A    
C151  H3    S    
C125  H17   S    
C118  C122  A    
C7    C167  A    
O3    Zn3   S    
C45   O25   A    
C85   C93   A    
C10   H42   S    
C46   O26   A    
C146  O14   A    
C87   C95   A    
O8    Zn9   S    
C64   H8    S    
C9    C10   A    
C110  C114  A    
C47   O27   A    
C44   C52   A    
C97   H21   S    
C90   O30   A    
C91   O35   A    
C91   C123  S    
C13   C14   A    
C18   H46   S    
C11   C163  A    
C98   C118  A    
C21   H49   S    
C30   C34   A    
C155  C159  A    
C156  C160  A    
C46   O22   A    
C17   C37   A    
C104  Br12  S    
C116  C120  A    
C84   C95   A    
C121  C125  A    
C130  H38   S    
C125  C129  A    
C123  C127  A    
C55   Br3   S    
C56   Br4   S    
C9    C161  A    
O13   Zn10  S    
C2    O18   A    
C73   C85   A    
C19   C39   A    
C42   C50   A    
C113  C117  A    
C75   C87   A    
C25   Br17  S    
C26   C30   A    
C115  C119  A    
C74   C78   A    
C70   Br6   S    
C27   Br19  S    
C157  H33   S    
C112  C116  A    
C21   C25   A    
C73   C77   A    
C18   C22   A    
C107  C111  A    
C68   C135  S    
O32   Zn4   S    
C24   C28   A    
C32   C36   A    
C103  Br11  S    
C147  O15   A    
C94   H14   S    
O15   Zn12  S    
O39   Zn3   S    
C136  O44   A    
C72   Br8   S    
C61   C81   A    
C81   C94   A    
C2    C42   S    
C83   C96   A    
C114  C138  A    
C37   C41   A    
O27   Zn7   S    
C131  C139  A    
C40   C44   A    
C143  O7    A    
C4    O20   A    
C88   C96   A    
C145  O9    A    
C110  H30   S    
O9    Zn9   S    
O12   Zn12  S    
C80   C84   A    
C102  Br10  S    
C77   C78   A    
C29   H53   S    
C50   C54   A    
O26   Zn6   S    
C49   Br13  S    
C92   C124  S    
C54   C58   A    
O47   Zn9   S    
C47   C156  S    
C15   O51   S    
C141  O5    A    
C35   C59   A    
C105  C109  A    
C162  C166  A    
O10   Zn10  S    
O34   Zn6   S    
C69   C73   A    
C141  O45   A    
C108  H28   S    
C65   C134  S    
C124  C128  A    
C62   C82   A    
C82   C93   A    
O48   Zn10  S    
C50   Br14  S    
C88   H12   S    
C76   C80   A    
C126  H18   S    
C3    O3    A    
C45   O21   A    
C167  C168  A    
C53   C57   A    
C4    C44   S    
O6    Zn11  S    
O41   Zn5   S    
C33   C37   A    
C108  C112  A    
C63   C83   A    
C35   C39   A    
O50   H58   S    
C12   C164  A    
C129  H37   S    
C28   C32   A    
C28   Br20  S    
C5    C14   A    
C7    C151  A    
C92   O32   A    
C7    C16   A    
C8    C15   A    
C149  H1    S    
C157  C161  A    
C104  C108  A    
C1    O1    A    
C8    C152  A    
C128  H20   S    
C144  O8    A    
C160  H36   S    
C38   C42   A    
C132  C140  A    
O44   Zn8   S    
O28   Zn8   S    
O14   Zn9   S    
O29   Zn1   S    
C99   H23   S    
C43   C51   A    
C89   C121  S    
C65   C69   A    
C26   Br18  S    
C16   O52   S    
O43   Zn7   S    
C67   C71   A    
C4    O4    A    
C153  C157  A    
O11   Zn11  S    
C6    C150  A    
C56   C60   A    
C85   H9    S    
C77   C81   A    
C22   C26   A    
O31   Zn3   S    
O2    Zn2   S    
C147  O11   A    
C134  O42   A    
C135  O39   A    
C165  C166  A    
C136  O40   A    
O49   H57   S    
C72   C76   A    
C107  H27   S    
C105  H25   S    
C19   H47   S    
C3    C43   S    
C51   Br15  S    
O24   Zn4   S    
O36   Zn8   S    
O37   Zn1   S    
C15   C16   A    
C62   H6    S    
O20   Zn8   S    
O21   Zn1   S    
C117  C121  A    
C86   C94   A    
C11   H43   S    
C20   C24   A    
C9    H41   S    
C145  O13   A    
C100  C120  A    
C23   C27   A    
C76   C88   A    
C109  C113  A    
C111  H31   S    
C22   H50   S    
C134  O38   A    
C89   O29   A    
C135  O43   A    
C90   C122  S    
C71   Br7   S    
C96   H16   S    
C17   H45   S    
C128  C132  A    
C92   O36   A    
C101  C105  A    
C63   C67   A    
O17   Zn5   S    
C36   C40   A    
C61   H5    S    
C12   H44   S    
C39   C43   A    
O5    Zn12  S    
C14   O50   S    
C148  O12   A    
C122  C126  A    
C163  C167  A    
C66   C133  S    
C139  C144  S    
C159  H35   S    
C3    O19   A    
C74   C86   A    
C114  C118  A    
C1    O17   A    
C31   H55   S    
C132  H40   S    
C5    C165  A    
C158  H34   S    
C159  C163  A    
C106  C110  A    
C33   C57   A    
C34   C38   A    
C36   C60   A    
C11   C12   A    
C58   C146  S    
C63   H7    S    
C6    C13   A    
C71   C75   A    
C69   Br5   S    
C102  C106  A    
C31   C35   A    
C158  C162  A    
C87   H11   S    
C79   C80   A    
C52   C56   A    
C150  C154  A    
C111  C115  A    
C97   C101  A    
C120  C124  A    
C116  C140  A    
C130  C138  A    
