data_mof_unit_35509.cif
_audit_creation_date              2012-12-10T18:57:04-0500
_audit_creation_method            fapswitch 2.2
_symmetry_space_group_name_H-M    P1
_symmetry_Int_Tables_number       1
_space_group_crystal_system       triclinic
_cell_length_a                    10.632504
_cell_length_b                    9.848779
_cell_length_c                    10.676986
_cell_angle_alpha                 90.036016
_cell_angle_beta                  90.043219
_cell_angle_gamma                 89.985353
_cell_volume                      1118.063312

loop_
_atom_site_label
_atom_site_type_symbol
_atom_type_description
_atom_site_fract_x
_atom_site_fract_y
_atom_site_fract_z
_atom_type_partial_charge
C1    C     C_R   0.260228 0.499921 0.503033 0.923070
C2    C     C_R   0.739756 0.499934 0.503082 0.931622
C3    C     C_R   0.569017 0.071933 0.585947 -0.041901
C4    C     C_R   0.430885 0.071883 0.414108 -0.050588
C5    C     C_R   0.569126 0.928112 0.585870 -0.064562
C6    C     C_R   0.430881 0.928038 0.414108 -0.065569
C7    C     C_R   0.496156 0.500022 0.259914 0.873222
C8    C     C_R   0.496388 0.500067 0.740101 0.926338
C9    C     C_R   0.477847 0.623365 0.063927 0.124290
C10   C     C_R   0.477977 0.623388 0.936191 0.140860
C11   C     C_R   0.476304 0.500678 0.128548 -0.105262
C12   C     C_R   0.476682 0.500708 0.871446 -0.091007
C13   C     C_R   0.451081 0.379236 0.064639 -0.206275
C14   C     C_R   0.451425 0.379225 0.935142 -0.143088
C15   C     C_3   0.568759 0.739080 0.929323 -0.473990
C16   C     C_3   0.568640 0.739026 0.071319 -0.459088
C17   C     C_R   0.065293 0.425586 0.601764 0.238847
C18   C     C_R   0.934799 0.425991 0.602016 0.227353
C19   C     C_R   0.872075 0.500167 0.508689 -0.134008
C20   C     C_R   0.127898 0.500051 0.508615 -0.132130
C21   C     C_R   0.935576 0.576913 0.419485 -0.210387
C22   C     C_R   0.064241 0.576981 0.419542 -0.213995
H1    H     H_    0.439930 0.283676 0.113595 0.168918
H2    H     H_    0.440531 0.283639 0.886047 0.188548
H3    H     H_    0.660799 0.709441 0.888040 0.215063
H4    H     H_    0.525142 0.831546 0.112401 0.204058
H5    H     H_    0.525300 0.831647 0.888353 0.208314
H6    H     H_    0.660619 0.709307 0.112789 0.209402
H7    H     H_    0.885373 0.634493 0.348769 0.163744
H8    H     H_    0.114322 0.634663 0.348904 0.162495
H9    H     H_    0.624135 0.126322 0.654758 0.168241
H10   H     H_    0.375562 0.126285 0.345442 0.128058
H11   H     H_    0.624556 0.873713 0.654443 0.136324
H12   H     H_    0.375580 0.873559 0.345424 0.128362
N1    N     N_R   0.500000 0.857200 0.500000 -0.083358
N2    N     N_R   0.500000 0.142810 0.500000 -0.082424
O1    O     O_R   0.316770 0.614620 0.499990 -0.619974
O2    O     O_R   0.683230 0.614620 0.500010 -0.623502
O3    O     O_R   0.316800 0.385290 0.500000 -0.592261
O4    O     O_R   0.683200 0.385290 0.500000 -0.588866
O5    O     O_R   0.500000 0.614690 0.316780 -0.628472
O6    O     O_R   0.500000 0.614690 0.683220 -0.626870
O7    O     O_R   0.500020 0.385360 0.316780 -0.630214
O8    O     O_R   0.499980 0.385360 0.683220 -0.603181
Zn1   Zn    Zn3+2 0.500000 0.653120 0.500000 0.959496
Zn2   Zn    Zn3+2 0.500000 0.346880 0.500000 0.994755
Br1   Br    Br    0.156773 0.330678 0.731454 -0.462915
Br2   Br    Br    0.843405 0.333333 0.732998 -0.487494

loop_
_geom_bond_atom_site_label_1
_geom_bond_atom_site_label_2
_ccdc_geom_bond_type
C16   H6    S    
C7    C11   S    
C4    N2    A    
N2    Zn2   S    
C7    O7    A    
C11   C13   A    
C9    C10   A    
C2    O2    A    
C15   H5    S    
C8    O6    A    
C1    O1    A    
C8    C12   S    
C17   C18   A    
C21   C22   A    
C3    H9    S    
C9    C11   A    
C8    O8    A    
C4    H10   S    
C10   C12   A    
C3    N2    A    
O3    Zn2   S    
C5    N1    A    
C19   C21   A    
C9    C16   S    
C20   C22   A    
C10   C15   S    
C7    O5    A    
C16   H4    S    
O7    Zn2   S    
C15   H3    S    
O4    Zn2   S    
O1    Zn1   S    
C15   C16   S    
N1    Zn1   S    
C5    H11   S    
C2    O4    A    
C17   C20   A    
C6    N1    A    
C13   H1    S    
C4    C6    A    
C18   C19   A    
C14   H2    S    
C1    O3    A    
C1    C20   S    
O5    Zn1   S    
C22   H8    S    
C3    C5    A    
C2    C19   S    
C13   C14   A    
C21   H7    S    
O8    Zn2   S    
C6    H12   S    
C17   Br1   S    
C12   C14   A    
O2    Zn1   S    
O6    Zn1   S    
C18   Br2   S    
