data_mof_unit_14605.cif
_audit_creation_date              2012-12-11T15:56:01-0500
_audit_creation_method            fapswitch 2.2
_symmetry_space_group_name_H-M    P1
_symmetry_Int_Tables_number       1
_space_group_crystal_system       triclinic
_cell_length_a                    11.083188
_cell_length_b                    11.075847
_cell_length_c                    18.776033
_cell_angle_alpha                 90.325314
_cell_angle_beta                  90.586841
_cell_angle_gamma                 59.661712
_cell_volume                      1989.12794984

loop_
_atom_site_label
_atom_site_type_symbol
_atom_type_description
_atom_site_fract_x
_atom_site_fract_y
_atom_site_fract_z
_atom_type_partial_charge
C1    C     C_R   0.354651 0.777250 0.398518 0.531258
C2    C     C_R   0.260867 0.434318 0.195393 -0.174146
C3    C     C_R   0.252596 0.436285 0.268560 -0.036214
C4    C     C_R   0.386917 0.354202 0.386803 0.573928
C5    C     C_R   0.868322 0.705928 0.369733 -0.089530
C6    C     C_R   0.877160 0.607923 0.319328 -0.045491
C7    C     C_R   0.998343 0.528043 0.281329 -0.037922
C8    C     C_R   0.115986 0.535431 0.298266 0.040778
C9    C     C_R   0.367216 0.336555 0.309672 0.032475
C10   C     C_R   0.847844 0.343367 0.180147 0.014523
C11   C     C_R   0.934075 0.272538 0.237207 -0.079962
C12   C     C_R   0.631615 0.112980 0.168170 0.034445
C13   C     C_R   0.888418 0.290349 0.304604 0.052976
C14   C     C_R   0.657453 0.460312 0.265624 -0.212605
C15   C     C_R   0.705654 0.438561 0.194377 -0.168817
C16   C     C_R   0.711099 0.416346 0.395415 0.566108
C17   C     C_3   0.083659 0.185563 0.257561 -0.232282
C18   C     C_3   0.031878 0.202935 0.334867 0.267588
C19   C     C_R   0.752001 0.387343 0.322077 0.001712
C20   C     C_R   0.351734 0.843986 0.179146 -0.006962
C21   C     C_R   0.423400 0.892116 0.222881 0.024538
C22   C     C_R   0.409988 0.893788 0.297608 0.034056
C23   C     C_R   0.370171 0.322638 0.160149 0.010889
C24   C     C_R   0.230131 0.840127 0.284687 -0.193823
C25   C     C_R   0.260078 0.810109 0.213198 -0.171078
C26   C     C_3   0.578780 0.824526 0.234876 -0.301664
C27   C     C_3   0.556259 0.842558 0.313471 -0.282477
C28   C     C_R   0.343479 0.769942 0.603823 0.575565
C29   C     C_R   0.324216 0.851966 0.329669 0.018583
C30   C     C_R   0.298551 0.304924 0.808047 0.013010
C31   C     C_R   0.413077 0.199351 0.772232 0.021573
C32   C     C_R   0.427071 0.203504 0.700726 0.016015
C33   C     C_R   0.197017 0.407181 0.692744 -0.159057
C34   C     C_R   0.482933 0.228433 0.273624 -0.151256
C35   C     C_R   0.183447 0.402655 0.767085 -0.167813
C36   C     C_3   0.566042 0.132699 0.787186 -0.272863
C37   C     C_3   0.583074 0.139096 0.707802 -0.261085
C38   C     C_R   0.326219 0.315904 0.660745 0.027017
C39   C     C_R   0.911691 0.292435 0.821944 0.007880
C40   C     C_R   0.369911 0.348624 0.594748 0.571806
C41   C     C_R   0.865318 0.421490 0.789523 -0.037352
C42   C     C_R   0.830357 0.441172 0.719236 0.017734
C43   C     C_R   0.894983 0.199103 0.706711 -0.178437
C44   C     C_R   0.934801 0.178194 0.779171 -0.172103
C45   C     C_R   0.489977 0.219170 0.199297 -0.008551
C46   C     C_3   0.748693 0.564870 0.809841 -0.078429
C47   C     C_3   0.708306 0.584966 0.731638 0.241336
C48   C     C_R   0.836614 0.333906 0.677442 0.039324
C49   C     C_R   0.310531 0.842538 0.825860 0.029161
C50   C     C_R   0.256987 0.766663 0.793276 0.038497
C51   C     C_R   0.257494 0.757445 0.720423 0.091049
C52   C     C_R   0.767241 0.375079 0.608753 0.605684
C53   C     C_R   0.389426 0.874305 0.709753 -0.106621
C54   C     C_R   0.386947 0.886708 0.783666 -0.126225
C55   C     C_3   0.122116 0.768254 0.799617 -0.293698
C56   C     C_R   0.099902 0.646222 0.338102 -0.071443
C57   C     C_3   0.117501 0.768657 0.718635 -0.283995
C58   C     C_R   0.317432 0.815651 0.677064 0.065609
C59   C     C_R   0.907422 0.317674 0.110196 0.562158
C60   C     C_R   0.332126 0.293708 0.090573 0.546872
C61   C     C_R   0.307971 0.899471 0.106141 0.526485
C62   C     C_R   0.945461 0.282004 0.897307 0.569654
C63   C     C_R   0.291861 0.284425 0.883695 0.526688
C64   C     C_R   0.905186 0.910584 0.123914 -0.083682
C65   C     C_R   0.274897 0.896487 0.897643 0.539127
C66   C     C_R   0.885356 0.011915 0.173985 -0.083492
C67   C     C_R   0.978875 0.730696 0.376370 -0.110762
C68   C     C_R   0.750704 0.111744 0.195506 -0.113467
C69   C     C_R   0.643701 0.565524 0.862054 0.107703
C70   C     C_R   0.620368 0.639009 0.926584 -0.051581
C71   C     C_R   0.540219 0.627073 0.980062 -0.087474
C72   C     C_R   0.477639 0.546362 0.968862 -0.104440
C73   C     C_R   0.497752 0.474848 0.904659 -0.125271
C74   C     C_R   0.581694 0.482402 0.851865 -0.037910
C75   C     C_R   0.657024 0.000745 0.121763 -0.074378
C76   C     C_R   0.790895 0.904196 0.098340 -0.146482
Cr1   Cr    Cr6+3 0.601740 0.606840 0.505840 1.030226
Cr2   Cr    Cr6+3 0.291500 0.601560 0.495070 1.016355
Cr3   Cr    Cr6+3 0.606780 0.291630 0.499130 1.010494
Cr4   Cr    Cr6+3 0.062440 0.063060 0.008240 1.009504
Cr5   Cr    Cr6+3 0.062950 0.375000 0.998920 0.986399
Cr6   Cr    Cr6+3 0.374550 0.061770 0.992470 0.977749
F1    F     F_    0.072104 0.280575 0.376242 -0.612098
F2    F     F_    0.584280 0.588833 0.716380 -0.654347
H1    H     H_    0.572956 0.151341 0.303535 0.133990
H2    H     H_    0.134333 0.852056 0.304844 0.112985
H3    H     H_    0.806475 0.819741 0.063178 0.095442
H4    H     H_    0.194284 0.782153 0.182989 0.130808
H5    H     H_    0.626433 0.885063 0.219444 0.147986
H6    H     H_    0.636601 0.714306 0.216512 0.137162
H7    H     H_    0.603172 0.744275 0.342668 0.165796
H8    H     H_    0.571555 0.926301 0.336987 0.138486
H9    H     H_    0.111647 0.487162 0.661571 0.119109
H10   H     H_    0.086571 0.477480 0.792272 0.122237
H11   H     H_    0.611874 0.024004 0.807458 0.133372
H12   H     H_    0.776634 0.764578 0.402112 0.103805
H13   H     H_    0.593864 0.200822 0.818361 0.136943
H14   H     H_    0.620343 0.212096 0.693735 0.176051
H15   H     H_    0.972273 0.811613 0.411476 0.111908
H16   H     H_    0.640986 0.034036 0.682550 0.126344
H17   H     H_    0.903243 0.113497 0.674988 0.115702
H18   H     H_    0.977555 0.076217 0.802334 0.130220
H19   H     H_    0.791350 0.632538 0.826897 0.056752
H20   H     H_    0.718974 0.668713 0.705323 0.101809
H21   H     H_    0.447735 0.909261 0.678548 0.114404
H22   H     H_    0.437950 0.938966 0.806957 0.140319
H23   H     H_    0.793464 0.590173 0.308649 0.127494
H24   H     H_    0.036155 0.863106 0.824402 0.144815
H25   H     H_    0.008940 0.833333 0.106900 0.118837
H26   H     H_    0.138392 0.669201 0.823057 0.141232
H27   H     H_    0.121671 0.675227 0.695380 0.152603
H28   H     H_    0.034930 0.869337 0.695760 0.121137
H29   H     H_    0.974442 0.012466 0.196742 0.124038
H30   H     H_    0.739301 0.185085 0.236308 0.123488
H31   H     H_    0.188722 0.655795 0.339336 0.172786
H32   H     H_    0.578862 0.973338 0.109746 0.172469
H33   H     H_    0.171546 0.513691 0.165624 0.127452
H34   H     H_    0.000787 0.461194 0.239243 0.123289
H35   H     H_    0.668758 0.701437 0.936715 0.088893
H36   H     H_    0.527625 0.679628 0.030416 0.111768
H37   H     H_    0.414777 0.538104 0.010188 0.112570
H38   H     H_    0.450651 0.411123 0.896422 0.115588
H39   H     H_    0.600909 0.420505 0.804076 0.161624
H40   H     H_    0.549137 0.535975 0.276677 0.121949
H41   H     H_    0.633652 0.496259 0.151436 0.117805
H42   H     H_    0.147547 0.234515 0.246727 0.164988
H43   H     H_    0.126756 0.081370 0.234526 0.115970
H44   H     H_    0.048533 0.105545 0.360552 0.115247
O1    O     O_R   0.748670 0.497520 0.427970 -0.488571
O2    O     O_R   0.417470 0.174910 0.067830 -0.530730
O3    O     O_R   0.375160 0.946380 0.070880 -0.519154
O4    O     O_R   0.476470 0.723930 0.429450 -0.537964
O5    O     O_R   0.160500 0.919670 0.926690 -0.531492
O6    O     O_R   0.933140 0.190380 0.936050 -0.500045
O7    O     O_R   0.909010 0.403210 0.925030 -0.526234
O8    O     O_R   0.179590 0.361290 0.918480 -0.524790
O9    O     O_R   0.391360 0.170840 0.907510 -0.524974
O10   O     O_R   0.350950 0.942600 0.922260 -0.520734
O11   O     O_3   0.166650 0.166610 0.999880 -0.268250
O12   O     O_R   0.300170 0.471020 0.567120 -0.491656
O13   O     O_R   0.264730 0.744140 0.416740 -0.557226
O14   O     O_R   0.309440 0.472410 0.418220 -0.498957
O15   O     O_R   0.501630 0.260530 0.414310 -0.540437
O16   O     O_R   0.727920 0.305730 0.428950 -0.507416
O17   O     O_R   0.738670 0.496020 0.588600 -0.487356
O18   O     O_R   0.467190 0.722540 0.578350 -0.465114
O19   O     O_R   0.254720 0.742640 0.577370 -0.530231
O20   O     O_R   0.491630 0.259030 0.574940 -0.522173
O21   O     O_R   0.718640 0.304340 0.577850 -0.509783
O22   O     O_3   0.500010 0.500010 0.500020 -0.278548
O23   O     O_R   0.186620 0.923750 0.087000 -0.532455
O24   O     O_R   0.957350 0.194160 0.084660 -0.485005
O25   O     O_R   0.935120 0.407280 0.085350 -0.526938
O26   O     O_R   0.203800 0.365060 0.067090 -0.508687

loop_
_geom_bond_atom_site_label_1
_geom_bond_atom_site_label_2
_ccdc_geom_bond_type
Cr4   O23   S    
C66   C68   A    
C21   C26   S    
C52   O17   A    
C23   C45   A    
C66   H29   S    
C72   H37   S    
C41   C42   A    
C5    C67   A    
C1    O4    A    
C8    C56   A    
C4    O15   A    
C59   O25   A    
C61   O3    A    
Cr5   O25   S    
C7    C8    A    
C39   C41   A    
C57   H27   S    
C53   C54   A    
C26   H5    S    
C12   C68   A    
C18   F1    S    
C26   C27   S    
C49   C65   S    
C13   C18   S    
C36   C37   S    
C22   C29   A    
Cr6   O9    S    
C10   C15   A    
Cr2   O14   S    
C4    O14   A    
C30   C31   A    
C17   H42   S    
C57   H28   S    
C20   C25   A    
C49   C54   A    
Cr4   O6    S    
Cr5   O11   S    
C73   C74   A    
C20   C61   S    
C24   C29   A    
C46   C69   S    
C18   H44   S    
Cr3   O15   S    
Cr3   O16   S    
C52   O21   A    
C41   C46   S    
C27   H7    S    
C70   C71   A    
C51   C57   S    
C32   C38   A    
Cr6   O2    S    
C43   C48   A    
C67   H15   S    
Cr3   O21   S    
C74   H39   S    
C21   C22   A    
C63   O9    A    
C7    H34   S    
C37   H14   S    
C2    H33   S    
Cr5   O7    S    
C6    C7    A    
C23   C60   S    
C14   H40   S    
C54   H22   S    
C27   H8    S    
C24   C25   A    
C72   C73   A    
C3    C8    S    
Cr2   O13   S    
C60   O2    A    
C51   C58   A    
C13   C19   A    
C17   H43   S    
C42   C48   A    
C50   C51   A    
C32   C37   S    
C25   H4    S    
Cr5   O26   S    
Cr2   O12   S    
Cr1   O4    S    
C64   C66   A    
C62   O7    A    
C75   C76   A    
C43   H17   S    
Cr6   O11   S    
C3    C9    A    
C31   C32   A    
C70   H35   S    
C6    H23   S    
C1    C29   S    
C17   C18   S    
C64   C76   A    
C69   C74   A    
C34   C45   A    
Cr1   O1    S    
C47   F2    S    
C16   O1    A    
C61   O23   A    
C76   H3    S    
C36   H13   S    
Cr2   O19   S    
Cr3   O22   S    
C65   O10   A    
C71   H36   S    
C40   O20   A    
C49   C50   A    
C22   C27   S    
C55   C57   S    
C43   C44   A    
C9    C34   A    
C56   C67   A    
Cr1   O17   S    
C5    H12   S    
Cr2   O22   S    
Cr5   O8    S    
C35   H10   S    
Cr4   O24   S    
C39   C62   S    
C46   C47   S    
C11   C17   S    
C28   O19   A    
C44   H18   S    
C47   H20   S    
C16   O16   A    
C31   C36   S    
C14   C19   A    
C50   C55   S    
C12   C45   S    
C33   H9    S    
Cr1   O22   S    
C53   C58   A    
C39   C44   A    
C28   C58   S    
C26   H6    S    
Cr4   O11   S    
C30   C35   A    
C46   H19   S    
C28   O18   A    
C33   C38   A    
C59   O24   A    
C55   H24   S    
C63   O8    A    
C62   O6    A    
C2    C3    A    
Cr6   O3    S    
C71   C72   A    
C55   H26   S    
C38   C40   S    
C11   C13   A    
C36   H11   S    
C64   H25   S    
C5    C6    A    
C16   C19   S    
C40   O12   A    
C33   C35   A    
C56   H31   S    
C10   C59   S    
Cr3   O20   S    
C42   C47   S    
C69   C70   A    
C60   O26   A    
C1    O13   A    
C10   C11   A    
Cr4   O5    S    
C53   H21   S    
C48   C52   S    
C20   C21   A    
Cr6   O10   S    
C73   H38   S    
C15   H41   S    
C12   C75   A    
C2    C23   A    
C14   C15   A    
C75   H32   S    
C4    C9    S    
C30   C63   S    
C24   H2    S    
Cr1   O18   S    
C34   H1    S    
C37   H16   S    
C65   O5    A    
C68   H30   S    
