data_mof_unit_6361.cif
_audit_creation_date              2012-10-26T18:34:22-0400
_audit_creation_method            fapswitch 2.2
_symmetry_space_group_name_H-M    P1
_symmetry_Int_Tables_number       1
_space_group_crystal_system       triclinic
_cell_length_a                    10.927715
_cell_length_b                    9.578813
_cell_length_c                    9.072632
_cell_angle_alpha                 90.001536
_cell_angle_beta                  92.264796
_cell_angle_gamma                 90.009446
_cell_volume                      948.93173045

loop_
_atom_site_label
_atom_site_type_symbol
_atom_type_description
_atom_site_fract_x
_atom_site_fract_y
_atom_site_fract_z
_atom_type_partial_charge
C1    C     C_R   0.262696 0.500103 0.512351 0.553319
C2    C     C_R   0.063160 0.629294 0.518248 -0.006423
C3    C     C_R   0.872194 0.500839 0.475232 -0.027426
C4    C     C_R   0.127803 0.500759 0.524757 -0.027514
C5    C     C_R   0.424762 0.074145 0.403499 0.336664
C6    C     C_R   0.574149 0.925936 0.597726 0.339412
C7    C     C_R   0.575240 0.074177 0.596498 0.336534
C8    C     C_R   0.425841 0.925904 0.402282 0.339656
C9    C     C_2   0.121506 0.238111 0.563225 0.297932
C10   C     C_2   0.874061 0.762577 0.440838 0.356417
C11   C     C_2   0.878354 0.238314 0.435923 0.297505
C12   C     C_R   0.737303 0.500130 0.487647 0.553518
C13   C     C_2   0.126080 0.762390 0.559922 0.356731
C14   C     C_R   0.499736 0.499995 0.220768 0.572657
C15   C     C_R   0.500264 0.499998 0.779232 0.572568
C16   C     C_1   0.499909 0.499991 0.065577 0.039786
C17   C     C_1   0.500092 0.499994 0.934423 0.039742
C18   C     C_R   0.062448 0.372878 0.520017 -0.024901
C19   C     C_R   0.936899 0.629354 0.482125 -0.006418
C20   C     C_R   0.937487 0.372943 0.479574 -0.024744
Cl1   Cl    Cl    0.324230 0.161983 0.278256 -0.454150
Cl2   Cl    Cl    0.669612 0.838395 0.728790 -0.423450
Cl3   Cl    Cl    0.675802 0.162052 0.721711 -0.453743
Cl4   Cl    Cl    0.330317 0.838321 0.271279 -0.423577
Cu1   Cu    Cu3+1 0.500000 0.640660 0.500000 1.114133
Cu2   Cu    Cu3+1 0.500000 0.359340 0.500000 1.179507
H1    H     H_    0.107264 0.145722 0.495726 0.176835
H2    H     H_    0.816261 0.767162 0.340844 0.126463
H3    H     H_    0.892625 0.145703 0.503041 0.176636
H4    H     H_    0.183793 0.766733 0.659999 0.126450
N1    N     N_R   0.500000 0.852070 0.500000 -0.293683
N2    N     N_R   0.500000 0.147930 0.500000 -0.273335
O1    O     O_R   0.319640 0.618740 0.499990 -0.496108
O2    O     O_2   0.881468 0.865188 0.520385 -0.429642
O3    O     O_2   0.816330 0.229399 0.321339 -0.438543
O4    O     O_2   0.118881 0.865139 0.480571 -0.429692
O5    O     O_R   0.680360 0.381260 0.500010 -0.444541
O6    O     O_R   0.680360 0.618740 0.500010 -0.496340
O7    O     O_R   0.319640 0.381260 0.499990 -0.444588
O8    O     O_R   0.500000 0.618760 0.288390 -0.470326
O9    O     O_R   0.500000 0.381240 0.711610 -0.447437
O10   O     O_R   0.500000 0.618760 0.711610 -0.470302
O11   O     O_R   0.500000 0.381240 0.288390 -0.447365
O12   O     O_2   0.183430 0.228822 0.677860 -0.438213

loop_
_geom_bond_atom_site_label_1
_geom_bond_atom_site_label_2
_ccdc_geom_bond_type
Cu1   O10   S    
Cu1   N1    S    
C5    C8    A    
C2    C4    A    
Cu2   O5    S    
Cu2   N2    S    
C6    C7    A    
C7    N2    A    
Cu1   O6    S    
C13   H4    S    
C10   C19   S    
C5    N2    A    
C4    C18   A    
C1    C4    S    
C11   O3    D    
C6    N1    A    
C2    C19   A    
C1    O1    A    
C3    C20   A    
C10   O2    D    
Cu2   O9    S    
C3    C19   A    
C9    H1    S    
C7    Cl3   S    
C8    Cl4   S    
Cu2   O11   S    
C18   C20   A    
Cu1   O8    S    
C12   O6    A    
Cu2   O7    S    
C14   C16   S    
C11   C20   S    
C1    O7    A    
C15   O9    A    
C14   O8    A    
C6    Cl2   S    
C9    C18   S    
C5    Cl1   S    
C11   H3    S    
C13   O4    D    
C10   H2    S    
C12   O5    A    
C15   C17   S    
C2    C13   S    
C16   C17   T    
C9    O12   D    
C3    C12   S    
Cu1   Cu2   S    
C8    N1    A    
C15   O10   A    
Cu1   O1    S    
C14   O11   A    
