data_mof_unit_14440.cif
_audit_creation_date              2012-12-11T16:07:21-0500
_audit_creation_method            fapswitch 2.2
_symmetry_space_group_name_H-M    P1
_symmetry_Int_Tables_number       1
_space_group_crystal_system       monoclinic
_cell_length_a                    17.29144
_cell_length_b                    17.291451
_cell_length_c                    17.343035
_cell_angle_alpha                 90.000015
_cell_angle_beta                  90.0
_cell_angle_gamma                 90.0
_cell_volume                      5185.46492395

loop_
_atom_site_label
_atom_site_type_symbol
_atom_type_description
_atom_site_fract_x
_atom_site_fract_y
_atom_site_fract_z
_atom_type_partial_charge
C1    C     C_R   0.418610 0.669239 0.646511 0.433027
C2    C     C_R   0.608533 0.700941 0.592912 0.534027
C3    C     C_3   0.721099 0.247111 0.730597 -0.393860
C4    C     C_3   0.721100 0.752890 0.269403 -0.393859
C5    C     C_3   0.191107 0.219849 0.629399 -0.370166
C6    C     C_3   0.808889 0.219846 0.370601 -0.370164
C7    C     C_3   0.278900 0.752882 0.730598 -0.393869
C8    C     C_3   0.747112 0.778901 0.769403 -0.393863
C9    C     C_3   0.280160 0.308886 0.129394 -0.370171
C10   C     C_3   0.719847 0.308890 0.870600 -0.370167
C11   C     C_3   0.252892 0.778901 0.230601 -0.393858
C12   C     C_3   0.252892 0.221098 0.769399 -0.393856
C13   C     C_R   0.699318 0.388494 0.404230 0.514614
C14   C     C_3   0.719848 0.691110 0.129401 -0.370167
C15   C     C_3   0.280159 0.691113 0.870604 -0.370172
C16   C     C_3   0.747112 0.221099 0.230597 -0.393861
C17   C     C_1   0.276101 0.209535 0.345483 0.466069
C18   C     C_1   0.843365 0.781090 0.552026 0.452107
C19   C     C_1   0.156625 0.781088 0.447972 0.452113
C20   C     C_1   0.723893 0.209520 0.654519 0.466079
C21   C     C_1   0.723893 0.790481 0.345481 0.466080
C22   C     C_1   0.156624 0.218913 0.552028 0.452113
C23   C     C_1   0.843366 0.218910 0.447974 0.452106
C24   C     C_R   0.322659 0.582901 0.640382 0.447203
C25   C     C_1   0.276101 0.790467 0.654517 0.466071
C26   C     C_1   0.709523 0.776105 0.845482 0.466079
C27   C     C_1   0.281100 0.343359 0.052019 0.452110
C28   C     C_1   0.718911 0.343368 0.947973 0.452111
C29   C     C_1   0.290486 0.776109 0.154524 0.466082
C30   C     C_1   0.290487 0.223890 0.845476 0.466083
C31   C     C_1   0.718912 0.656631 0.052028 0.452111
C32   C     C_1   0.281098 0.656640 0.947979 0.452112
C33   C     C_1   0.709522 0.223894 0.154518 0.466080
C34   C     C_R   0.581392 0.669241 0.353490 0.433043
C35   C     C_R   0.391466 0.299058 0.592909 0.534026
C36   C     C_R   0.300681 0.611507 0.404236 0.514635
C37   C     C_R   0.677346 0.417095 0.640378 0.447211
C38   C     C_R   0.917095 0.177345 0.140378 0.447197
C39   C     C_R   0.111506 0.800682 0.904230 0.514614
C40   C     C_R   0.200941 0.108533 0.092913 0.534029
C41   C     C_R   0.608533 0.299059 0.407088 0.534027
C42   C     C_R   0.830760 0.918609 0.853490 0.433038
C43   C     C_R   0.082906 0.822654 0.140377 0.447215
C44   C     C_R   0.888494 0.199318 0.904231 0.514610
C45   C     C_R   0.799059 0.891466 0.092911 0.534028
C46   C     C_R   0.169242 0.081393 0.853491 0.433041
C47   C     C_R   0.917096 0.822655 0.859621 0.447202
C48   C     C_R   0.111506 0.199318 0.095771 0.514609
C49   C     C_R   0.200941 0.891467 0.907087 0.534030
C50   C     C_R   0.830759 0.081391 0.146510 0.433039
C51   C     C_R   0.082906 0.177347 0.859623 0.447211
C52   C     C_R   0.699318 0.611505 0.595770 0.514614
C53   C     C_R   0.888494 0.800682 0.095769 0.514615
C54   C     C_R   0.799059 0.108533 0.907088 0.534029
C55   C     C_R   0.169242 0.918606 0.146509 0.433039
C56   C     C_3   0.318086 0.324155 0.248167 -0.192180
C57   C     C_3   0.732679 0.741068 0.651908 -0.221469
C58   C     C_3   0.267320 0.741070 0.348097 -0.221467
C59   C     C_3   0.681920 0.324150 0.751828 -0.192186
C60   C     C_3   0.681921 0.675850 0.248173 -0.192187
C61   C     C_3   0.267321 0.258930 0.651903 -0.221467
C62   C     C_3   0.732678 0.258931 0.348092 -0.221471
C63   C     C_R   0.322660 0.417099 0.359617 0.447201
C64   C     C_3   0.318084 0.675846 0.751832 -0.192181
C65   C     C_3   0.824151 0.818081 0.748171 -0.192186
C66   C     C_3   0.241070 0.232680 0.151907 -0.221464
C67   C     C_3   0.758931 0.232679 0.848093 -0.221470
C68   C     C_3   0.175850 0.818078 0.251828 -0.192185
C69   C     C_3   0.175851 0.181922 0.748172 -0.192184
C70   C     C_3   0.758932 0.767321 0.151907 -0.221470
C71   C     C_3   0.241069 0.767320 0.848093 -0.221465
C72   C     C_3   0.824151 0.181919 0.251829 -0.192186
C73   C     C_R   0.357229 0.637109 0.687332 -0.135805
C74   C     C_R   0.581392 0.330759 0.646510 0.433041
C75   C     C_R   0.683710 0.311971 0.391421 -0.180843
C76   C     C_R   0.683710 0.688029 0.608579 -0.180844
C77   C     C_R   0.357230 0.362892 0.312667 -0.135804
C78   C     C_R   0.642776 0.362888 0.687329 -0.135812
C79   C     C_R   0.316289 0.688031 0.391428 -0.180845
C80   C     C_R   0.316289 0.311969 0.608572 -0.180845
C81   C     C_R   0.642777 0.637113 0.312672 -0.135813
C82   C     C_R   0.862888 0.142775 0.187329 -0.135810
C83   C     C_R   0.188029 0.816290 0.891420 -0.180846
C84   C     C_R   0.188029 0.183709 0.108581 -0.180844
C85   C     C_R   0.391466 0.700941 0.407091 0.534025
C86   C     C_R   0.862889 0.857225 0.812671 -0.135810
C87   C     C_R   0.137114 0.857222 0.187328 -0.135813
C88   C     C_R   0.811971 0.183710 0.891422 -0.180841
C89   C     C_R   0.811971 0.816290 0.108577 -0.180842
C90   C     C_R   0.137114 0.142778 0.812673 -0.135813
C91   C     C_3   0.771482 0.707187 0.724268 0.413124
C92   C     C_3   0.245646 0.348152 0.201410 0.502553
C93   C     C_3   0.646979 0.285671 0.824073 0.447545
C94   C     C_3   0.291457 0.813674 0.302061 0.491516
C95   C     C_3   0.228523 0.292813 0.724266 0.413109
C96   C     C_R   0.300681 0.388493 0.595764 0.514634
C97   C     C_3   0.754364 0.651854 0.201421 0.502554
C98   C     C_3   0.353025 0.714332 0.824073 0.447552
C99   C     C_3   0.708541 0.186328 0.302055 0.491516
C100  C     C_3   0.771482 0.292813 0.275732 0.413124
C101  C     C_3   0.245644 0.651849 0.798588 0.502554
C102  C     C_3   0.646980 0.714328 0.175928 0.447545
C103  C     C_3   0.291457 0.186325 0.697939 0.491515
C104  C     C_3   0.228522 0.707187 0.275734 0.413109
C105  C     C_3   0.754363 0.348147 0.798580 0.502554
C106  C     C_3   0.353026 0.285667 0.175926 0.447553
C107  C     C_R   0.677346 0.582906 0.359623 0.447212
C108  C     C_3   0.708542 0.813672 0.697945 0.491516
C109  C     C_3   0.313671 0.208542 0.197948 0.491514
C110  C     C_3   0.785670 0.853022 0.675928 0.447548
C111  C     C_3   0.151854 0.745635 0.298580 0.502553
C112  C     C_3   0.792813 0.271481 0.775732 0.413120
C113  C     C_3   0.686327 0.791458 0.197944 0.491517
C114  C     C_3   0.214325 0.146979 0.675926 0.447539
C115  C     C_3   0.848147 0.254362 0.298581 0.502550
C116  C     C_3   0.207189 0.728511 0.775736 0.413124
C117  C     C_3   0.313671 0.791458 0.802053 0.491515
C118  C     C_R   0.418611 0.330761 0.353488 0.433024
C119  C     C_3   0.785670 0.146978 0.324072 0.447546
C120  C     C_3   0.151855 0.254366 0.701421 0.502550
C121  C     C_3   0.792814 0.728521 0.224269 0.413119
C122  C     C_3   0.686327 0.208542 0.802056 0.491516
C123  C     C_3   0.214326 0.853021 0.324074 0.447540
C124  C     C_3   0.848147 0.745639 0.701418 0.502552
C125  C     C_3   0.207189 0.271491 0.224264 0.413127
C126  C     C_3   0.278900 0.247119 0.269402 -0.393870
C127  C     C_3   0.808889 0.780154 0.629399 -0.370167
C128  C     C_3   0.191107 0.780152 0.370601 -0.370168
Cl1   Cl    Cl    0.463303 0.756425 0.671343 -0.435834
Cl2   Cl    Cl    0.584063 0.784211 0.540185 -0.397669
Cl3   Cl    Cl    0.789667 0.414098 0.442208 -0.370164
Cl4   Cl    Cl    0.222471 0.570260 0.635320 -0.357539
Cl5   Cl    Cl    0.536694 0.756423 0.328655 -0.435848
Cl6   Cl    Cl    0.415940 0.215790 0.540181 -0.397659
Cl7   Cl    Cl    0.210336 0.585906 0.442225 -0.370187
Cl8   Cl    Cl    0.777536 0.429718 0.635303 -0.357554
Cl9   Cl    Cl    0.929719 0.277536 0.135305 -0.357544
Cl10  Cl    Cl    0.085904 0.710334 0.942210 -0.370156
Cl11  Cl    Cl    0.284212 0.084062 0.040187 -0.397674
Cl12  Cl    Cl    0.584063 0.215789 0.459815 -0.397668
Cl13  Cl    Cl    0.743576 0.963304 0.828656 -0.435843
Cl14  Cl    Cl    0.070280 0.722464 0.135303 -0.357543
Cl15  Cl    Cl    0.914097 0.289667 0.942210 -0.370167
Cl16  Cl    Cl    0.715790 0.915938 0.040184 -0.397669
Cl17  Cl    Cl    0.256424 0.036696 0.828655 -0.435845
Cl18  Cl    Cl    0.929723 0.722466 0.864693 -0.357547
Cl19  Cl    Cl    0.085904 0.289667 0.057792 -0.370152
Cl20  Cl    Cl    0.284211 0.915938 0.959813 -0.397673
Cl21  Cl    Cl    0.743577 0.036695 0.171344 -0.435845
Cl22  Cl    Cl    0.070284 0.277539 0.864700 -0.357540
Cl23  Cl    Cl    0.789667 0.585902 0.557793 -0.370162
Cl24  Cl    Cl    0.914097 0.710334 0.057789 -0.370170
Cl25  Cl    Cl    0.715790 0.084062 0.959816 -0.397670
Cl26  Cl    Cl    0.256424 0.963303 0.171344 -0.435843
Cl27  Cl    Cl    0.762463 0.613179 0.765083 -0.430611
Cl28  Cl    Cl    0.194363 0.436507 0.187850 -0.283000
Cl29  Cl    Cl    0.550729 0.297396 0.859252 -0.458164
Cl30  Cl    Cl    0.380420 0.865567 0.296773 -0.254403
Cl31  Cl    Cl    0.237549 0.386821 0.765081 -0.430619
Cl32  Cl    Cl    0.805654 0.563502 0.187872 -0.282987
Cl33  Cl    Cl    0.449276 0.702616 0.859252 -0.458148
Cl34  Cl    Cl    0.222471 0.429740 0.364678 -0.357540
Cl35  Cl    Cl    0.619576 0.134439 0.296762 -0.254404
Cl36  Cl    Cl    0.762462 0.386821 0.234916 -0.430613
Cl37  Cl    Cl    0.194360 0.563495 0.812147 -0.282996
Cl38  Cl    Cl    0.550730 0.702603 0.140749 -0.458164
Cl39  Cl    Cl    0.380420 0.134432 0.703226 -0.254403
Cl40  Cl    Cl    0.237548 0.613179 0.234920 -0.430615
Cl41  Cl    Cl    0.805651 0.436500 0.812129 -0.282989
Cl42  Cl    Cl    0.449277 0.297382 0.140747 -0.458146
Cl43  Cl    Cl    0.619576 0.865560 0.703238 -0.254404
Cl44  Cl    Cl    0.365554 0.119574 0.203247 -0.254408
Cl45  Cl    Cl    0.536694 0.243577 0.671346 -0.435849
Cl46  Cl    Cl    0.797392 0.949271 0.640748 -0.458155
Cl47  Cl    Cl    0.063503 0.694343 0.312127 -0.282982
Cl48  Cl    Cl    0.886821 0.262460 0.734917 -0.430622
Cl49  Cl    Cl    0.634437 0.880422 0.203234 -0.254409
Cl50  Cl    Cl    0.202596 0.050730 0.640748 -0.458155
Cl51  Cl    Cl    0.936500 0.305650 0.312133 -0.282998
Cl52  Cl    Cl    0.113179 0.737523 0.734922 -0.430588
Cl53  Cl    Cl    0.365555 0.880425 0.796755 -0.254408
Cl54  Cl    Cl    0.797393 0.050729 0.359252 -0.458155
Cl55  Cl    Cl    0.063503 0.305658 0.687875 -0.282981
Cl56  Cl    Cl    0.415940 0.784210 0.459819 -0.397660
Cl57  Cl    Cl    0.886822 0.737543 0.265084 -0.430625
Cl58  Cl    Cl    0.634437 0.119577 0.796765 -0.254409
Cl59  Cl    Cl    0.202597 0.949270 0.359252 -0.458154
Cl60  Cl    Cl    0.936500 0.694351 0.687866 -0.282997
Cl61  Cl    Cl    0.113180 0.262480 0.265078 -0.430582
Cl62  Cl    Cl    0.210336 0.414093 0.557774 -0.370189
Cl63  Cl    Cl    0.777536 0.570283 0.364699 -0.357553
Cl64  Cl    Cl    0.463303 0.243576 0.328657 -0.435833
N1    N     N_R   0.424590 0.632770 0.578330 -0.126774
N2    N     N_R   0.575410 0.632770 0.578330 -0.145919
N3    N     N_R   0.632770 0.424590 0.421670 -0.148973
N4    N     N_R   0.367230 0.575410 0.578330 -0.136893
N5    N     N_R   0.575410 0.632770 0.421670 -0.126774
N6    N     N_R   0.424590 0.367230 0.578330 -0.145917
N7    N     N_R   0.367230 0.575410 0.421670 -0.148971
N8    N     N_R   0.632770 0.424590 0.578330 -0.136895
N9    N     N_R   0.924590 0.132770 0.078330 -0.136894
N10   N     N_R   0.075410 0.867230 0.921670 -0.148974
N11   N     N_R   0.132770 0.075410 0.078330 -0.145918
N12   N     N_R   0.575410 0.367230 0.421670 -0.145919
N13   N     N_R   0.867230 0.924590 0.921670 -0.126774
N14   N     N_R   0.075410 0.867230 0.078330 -0.136896
N15   N     N_R   0.924590 0.132770 0.921670 -0.148972
N16   N     N_R   0.867230 0.924590 0.078330 -0.145917
N17   N     N_R   0.132770 0.075410 0.921670 -0.126773
N18   N     N_R   0.924590 0.867230 0.921670 -0.136894
N19   N     N_R   0.075410 0.132770 0.078330 -0.148975
N20   N     N_R   0.132770 0.924590 0.921670 -0.145918
N21   N     N_R   0.867230 0.075410 0.078330 -0.126773
N22   N     N_R   0.075410 0.132770 0.921670 -0.136895
N23   N     N_R   0.632770 0.575410 0.578330 -0.148973
N24   N     N_R   0.924590 0.867230 0.078330 -0.148972
N25   N     N_R   0.867230 0.075410 0.921670 -0.145917
N26   N     N_R   0.132770 0.924590 0.078330 -0.126774
N27   N     N_1   0.274562 0.179543 0.405064 0.015494
N28   N     N_1   0.871249 0.781558 0.491385 0.008653
N29   N     N_1   0.128738 0.781555 0.508611 0.008655
N30   N     N_1   0.725428 0.179523 0.594941 0.015513
N31   N     N_1   0.725428 0.820479 0.405058 0.015515
N32   N     N_1   0.128736 0.218446 0.491389 0.008655
N33   N     N_1   0.871250 0.218443 0.508615 0.008653
N34   N     N_R   0.367230 0.424590 0.421670 -0.136892
N35   N     N_1   0.274563 0.820461 0.594937 0.015498
N36   N     N_1   0.679527 0.774570 0.905061 0.015510
N37   N     N_1   0.281569 0.371239 0.991377 0.008655
N38   N     N_1   0.718444 0.371252 0.008614 0.008655
N39   N     N_1   0.320486 0.774575 0.094948 0.015519
N40   N     N_1   0.320488 0.225423 0.905052 0.015520
N41   N     N_1   0.718446 0.628746 0.991388 0.008656
N42   N     N_1   0.281568 0.628758 0.008621 0.008656
N43   N     N_1   0.679526 0.225429 0.094939 0.015511
N44   N     N_R   0.575410 0.367230 0.578330 -0.126773
N45   N     N_R   0.424590 0.632770 0.421670 -0.145917
N46   N     N_R   0.367230 0.424590 0.578330 -0.148971
N47   N     N_R   0.632770 0.575410 0.421670 -0.136896
N48   N     N_R   0.424590 0.367230 0.421670 -0.126774
Ni1   Ni    Ni4+2 0.500000 0.631570 0.500000 0.314506
Ni2   Ni    Ni4+2 0.500000 0.368430 0.500000 0.314507
Ni3   Ni    Ni4+2 0.631570 0.500000 0.500000 0.314099
Ni4   Ni    Ni4+2 0.368430 0.500000 0.500000 0.314103
Ni5   Ni    Ni4+2 0.000000 0.131570 0.000000 0.314100
Ni6   Ni    Ni4+2 0.000000 0.868430 0.000000 0.314101
Ni7   Ni    Ni4+2 0.131570 0.000000 0.000000 0.314506
Ni8   Ni    Ni4+2 0.868430 0.000000 0.000000 0.314507

loop_
_geom_bond_atom_site_label_1
_geom_bond_atom_site_label_2
_ccdc_geom_bond_type
C47   N18   A    
C63   Cl34  S    
C113  Cl49  S    
C12   C69   S    
C81   C107  A    
C103  Cl39  S    
C4    C21   S    
N2    Ni1   S    
N46   Ni4   S    
C5    C114  S    
C55   Cl26  S    
C8    C26   S    
C48   N19   A    
C40   C84   A    
C19   N29   T    
C36   N7    A    
C14   C31   S    
N13   Ni8   S    
C18   N28   T    
C92   C125  S    
C54   Cl25  S    
N16   Ni8   S    
C15   C32   S    
C32   N42   T    
C10   C67   S    
N6    Ni2   S    
C58   C128  S    
C31   N41   T    
C72   C115  S    
N5    Ni1   S    
C67   C88   S    
C59   C105  S    
C105  Cl41  S    
N4    Ni4   S    
C95   Cl31  S    
C57   C76   S    
C65   C110  S    
C61   C103  S    
C1    Cl1   S    
C52   Cl23  S    
C51   C90   A    
C16   C33   S    
C117  Cl53  S    
C24   C73   A    
C122  Cl58  S    
C46   Cl17  S    
C41   C75   A    
C24   N4    A    
C61   C80   S    
C96   Cl62  S    
C48   Cl19  S    
N15   Ni5   S    
C19   C128  S    
C59   C78   S    
C42   N13   A    
C37   N8    A    
N44   Ni2   S    
C7    C117  S    
C9    C66   S    
C41   Cl12  S    
C97   C121  S    
N6    N46   A    
C10   C105  S    
C109  Cl44  S    
C118  Cl64  S    
C27   N37   T    
C5    C22   S    
C13   C75   A    
C51   Cl22  S    
C26   N36   T    
C114  Cl50  S    
C38   N9    A    
C16   C72   S    
C71   C116  S    
C53   Cl24  S    
C64   C73   S    
N25   Ni8   S    
C12   C95   S    
C11   C104  S    
C42   C86   A    
C34   C81   A    
C56   C126  S    
C1    C73   A    
C80   C96   A    
C45   C89   A    
N17   Ni7   S    
C74   C78   A    
C17   N27   T    
C3    C122  S    
C110  C127  S    
C12   C30   S    
C94   C123  S    
C53   N24   A    
C47   Cl18  S    
C8    C65   S    
N16   N24   A    
C38   C82   A    
C43   N14   A    
C55   C87   A    
C106  Cl42  S    
N11   N19   A    
C14   C70   S    
C100  C115  S    
N1    Ni1   S    
N20   Ni7   S    
C60   C102  S    
N7    N45   A    
C9    C92   S    
C23   N33   T    
N7    Ni4   S    
C55   N26   A    
C71   C83   S    
C14   C97   S    
C110  Cl46  S    
C70   C113  S    
C64   C101  S    
N10   Ni6   S    
C69   C114  S    
N15   N25   A    
C40   Cl11  S    
N9    Ni5   S    
C71   C117  S    
C5    C120  S    
C125  Cl61  S    
C97   Cl32  S    
C4    C113  S    
C65   C86   S    
C103  C114  S    
N34   N48   A    
C93   C122  S    
C29   N39   T    
C12   C103  S    
C92   Cl28  S    
C60   C97   S    
N2    N23   A    
C124  Cl60  S    
C70   C121  S    
C16   C100  S    
N3    N12   A    
C10   C93   S    
C9    C106  S    
C99   C119  S    
C25   N35   T    
C52   N23   A    
N14   N26   A    
C56   C77   S    
C48   C84   A    
C49   Cl20  S    
C2    N2    A    
C119  Cl54  S    
C7    C116  S    
C50   N21   A    
N21   Ni8   S    
C1    N1    A    
C47   C86   A    
C91   Cl27  S    
C18   C127  S    
C45   Cl16  S    
C30   N40   T    
C60   C81   S    
C24   Cl4   S    
N34   Ni4   S    
C67   C122  S    
C40   N11   A    
C35   Cl6   S    
C3    C112  S    
N1    N4    A    
N9    N21   A    
C4    C60   S    
C42   Cl13  S    
N48   Ni2   S    
C13   Cl3   S    
C37   Cl8   S    
C5    C61   S    
C3    C20   S    
C100  Cl36  S    
C8    C91   S    
C7    C25   S    
C15   C101  S    
C41   N12   A    
C101  Cl37  S    
N8    Ni3   S    
C56   C106  S    
C102  Cl38  S    
C109  C126  S    
C74   Cl45  S    
C124  C127  S    
C99   Cl35  S    
C58   C79   S    
C11   C94   S    
C118  N48   A    
C49   C83   A    
C112  Cl48  S    
C105  C112  S    
C77   C118  A    
C85   Cl56  S    
C91   C124  S    
C116  Cl52  S    
C53   C89   A    
C125  C126  S    
C111  Cl47  S    
C62   C75   S    
C39   N10   A    
C70   C89   S    
C58   C104  S    
N18   Ni6   S    
C15   C98   S    
C74   N44   A    
C69   C90   S    
C36   Cl7   S    
C28   N38   T    
C6    C119  S    
C79   C85   A    
C98   Cl33  S    
C2    C76   A    
C11   C68   S    
C9    C27   S    
C98   C117  S    
C63   C77   A    
C10   C28   S    
C68   C87   S    
C62   C100  S    
N3    Ni3   S    
C7    C64   S    
C57   C91   S    
C22   N32   T    
N14   Ni6   S    
C96   N46   A    
C67   C112  S    
C63   N34   A    
N8    N44   A    
N10   N20   A    
C52   C76   A    
C36   C79   A    
C33   N43   T    
C57   C127  S    
C104  C111  S    
N12   Ni2   S    
C104  Cl40  S    
C61   C95   S    
C16   C99   S    
C46   C90   A    
C95   C120  S    
C45   N16   A    
C46   N17   A    
C15   C71   S    
C37   C78   A    
C69   C120  S    
N23   Ni3   S    
N17   N22   A    
C34   Cl5   S    
C66   C125  S    
N45   Ni1   S    
C39   Cl10  S    
C43   C87   A    
N26   Ni7   S    
C6    C62   S    
C51   N22   A    
C58   C94   S    
C39   C83   A    
C102  C113  S    
C68   C123  S    
C54   C88   A    
C93   Cl29  S    
N5    N47   A    
C50   Cl21  S    
N19   Ni5   S    
C123  C128  S    
C107  N47   A    
N13   N18   A    
C44   Cl15  S    
C6    C23   S    
C72   C119  S    
C64   C98   S    
C2    Cl2   S    
C38   Cl9   S    
C108  C110  S    
C4    C121  S    
N22   Ni5   S    
C85   N45   A    
C44   N15   A    
C66   C109  S    
C123  Cl59  S    
C17   C126  S    
C120  Cl55  S    
C72   C82   S    
C6    C115  S    
C34   N5    A    
C14   C102  S    
C66   C84   S    
C62   C99   S    
C65   C124  S    
C21   N31   T    
C35   C80   A    
C56   C92   S    
C57   C108  S    
N11   Ni7   S    
C11   C29   S    
C54   N25   A    
C94   Cl30  S    
C13   N3    A    
C108  Cl43  S    
C107  Cl63  S    
C111  C128  S    
C101  C116  S    
C20   N30   T    
C8    C108  S    
C43   Cl14  S    
N47   Ni3   S    
C59   C93   S    
C49   N20   A    
C44   C88   A    
N24   Ni6   S    
C50   C82   A    
C68   C111  S    
C115  Cl51  S    
C121  Cl57  S    
C35   N6    A    
C106  C109  S    
C3    C59   S    
