data_mof_unit_24186.cif
_audit_creation_date              2012-12-10T16:41:51-0500
_audit_creation_method            fapswitch 2.2
_symmetry_space_group_name_H-M    P1
_symmetry_Int_Tables_number       1
_space_group_crystal_system       triclinic
_cell_length_a                    10.89173
_cell_length_b                    8.715943
_cell_length_c                    7.43804
_cell_angle_alpha                 102.116307
_cell_angle_beta                  93.602746
_cell_angle_gamma                 92.639978
_cell_volume                      687.740531055

loop_
_atom_site_label
_atom_site_type_symbol
_atom_type_description
_atom_site_fract_x
_atom_site_fract_y
_atom_site_fract_z
_atom_type_partial_charge
C1    C     C_R   0.493201 0.200085 0.455273 0.913466
C2    C     C_2   0.467230 0.959497 0.567465 0.194866
C3    C     C_R   0.265609 0.504308 0.503970 0.879794
C4    C     C_R   0.494864 0.798349 0.545407 0.788279
C5    C     C_R   0.734744 0.504385 0.497102 0.893675
C6    C     C_2   0.932948 0.564494 0.374745 0.398025
C7    C     C_2   0.866786 0.499207 0.489737 -0.353841
C8    C     C_2   0.064543 0.540057 0.367937 -0.225484
C9    C     C_2   0.135044 0.523325 0.515700 -0.363858
C10   C     C_2   0.497159 0.033652 0.434562 -0.396513
Cu1   Cu    Cu3+1 0.513740 0.517380 0.684380 1.100857
Cu2   Cu    Cu3+1 0.486260 0.482620 0.315620 1.079121
H1    H     H_    0.910711 0.433603 0.582094 0.148935
H2    H     H_    0.105024 0.542346 0.238574 0.223612
H3    H     H_    0.098859 0.533814 0.650131 0.187149
H4    H     H_    0.536385 0.971348 0.310905 0.190929
H5    H     H_    0.398124 0.387939 0.951405 0.286918
H6    H     H_    0.594519 0.622390 0.050913 0.287863
N1    N     N_2   0.465540 0.456420 0.038510 -0.184790
N2    N     N_2   0.534460 0.543580 0.961490 -0.184992
O1    O     O_R   0.508930 0.286130 0.619780 -0.540637
O2    O     O_R   0.485720 0.256780 0.308360 -0.541350
O3    O     O_R   0.333540 0.514670 0.655670 -0.575177
O4    O     O_R   0.310330 0.485320 0.344250 -0.586250
O5    O     O_R   0.514280 0.743220 0.691640 -0.532471
O6    O     O_R   0.491070 0.713870 0.380220 -0.605989
O7    O     O_R   0.689670 0.514680 0.655750 -0.551408
O8    O     O_R   0.666460 0.485330 0.344330 -0.539930
S1    S     S_3+6 0.870695 0.677632 0.223028 0.017929
O9    O     O_2   0.819800 0.567838 0.048046 -0.257649
O10   O     O_2   0.770356 0.775187 0.307541 -0.328569
O11   O     O_3   0.982567 0.797272 0.171387 -0.487350
H7    H     H_    0.012189 0.866981 0.290792 0.354725
S2    S     S_3+6 0.381287 0.037867 0.757432 0.027392
O12   O     O_2   0.470209 0.113215 0.917311 -0.242858
O13   O     O_2   0.295499 0.156583 0.711075 -0.326830
O14   O     O_3   0.297653 0.892542 0.818682 -0.483966
H8    H     H_    0.235613 0.854207 0.713719 0.336379

loop_
_geom_bond_atom_site_label_1
_geom_bond_atom_site_label_2
_ccdc_geom_bond_type
C2    C4    S    
Cu1   Cu2   S    
C1    O1    A    
C6    C7    D    
C3    C9    S    
S2    O14   S    
Cu2   O4    S    
S2    O13   D    
N1    N2    D    
Cu1   O7    S    
O11   H7    S    
C2    S2    S    
C4    O5    A    
C9    H3    S    
C1    O2    A    
S1    O10   D    
C10   H4    S    
C3    O4    A    
S1    O9    D    
Cu2   O8    S    
C6    C8    S    
Cu2   N1    S    
Cu1   O3    S    
H5    N1    S    
O14   H8    S    
S1    O11   S    
H6    N2    S    
C4    O6    A    
Cu1   N2    S    
Cu1   O5    S    
C5    O8    A    
Cu2   O2    S    
C7    H1    S    
C6    S1    S    
S2    O12   D    
C5    C7    S    
C8    H2    S    
C5    O7    A    
C3    O3    A    
Cu1   O1    S    
C1    C10   S    
Cu2   O6    S    
C8    C9    D    
C2    C10   D    
