data_mof_unit_50375.cif
_audit_creation_date              2012-12-10T18:36:57-0500
_audit_creation_method            fapswitch 2.2
_symmetry_space_group_name_H-M    P1
_symmetry_Int_Tables_number       1
_space_group_crystal_system       triclinic
_cell_length_a                    14.92566
_cell_length_b                    15.42767
_cell_length_c                    23.396423
_cell_angle_alpha                 90.47625
_cell_angle_beta                  104.016518
_cell_angle_gamma                 81.482756
_cell_volume                      5167.26484761

loop_
_atom_site_label
_atom_site_type_symbol
_atom_type_description
_atom_site_fract_x
_atom_site_fract_y
_atom_site_fract_z
_atom_type_partial_charge
C1    C     C_R   0.441490 0.662371 0.489619 0.872274
C2    C     C_R   0.558673 0.337656 0.507095 0.884451
C3    C     C_R   0.581916 0.519926 0.774231 -0.150713
C4    C     C_R   0.531438 0.575314 0.245505 -0.160444
C5    C     C_R   0.581870 0.516817 0.714981 -0.223356
C6    C     C_R   0.534721 0.570847 0.305131 -0.239244
C7    C     C_R   0.500819 0.503406 0.673009 -0.070020
C8    C     C_R   0.493701 0.506710 0.327018 -0.058324
C9    C     C_R   0.419689 0.493421 0.690983 -0.275275
C10   C     C_R   0.445989 0.449240 0.288790 -0.292499
C11   C     C_R   0.419591 0.495526 0.750564 0.260459
C12   C     C_R   0.441319 0.453995 0.228593 0.275850
C13   C     C_R   0.501339 0.509342 0.792186 0.296687
C14   C     C_R   0.486012 0.516571 0.207313 0.296537
C15   C     C_R   0.407366 0.754421 0.471927 -0.118360
C16   C     C_R   0.595235 0.244741 0.504993 -0.106052
C17   C     C_R   0.296182 0.867332 0.408907 0.231115
C18   C     C_R   0.723250 0.122708 0.523420 0.213990
C19   C     C_R   0.321019 0.780734 0.432307 -0.227816
C20   C     C_R   0.690622 0.212957 0.524229 -0.213123
C21   C     C_R   0.470588 0.813215 0.487058 -0.256373
C22   C     C_R   0.532573 0.187976 0.481526 -0.269258
C23   C     C_R   0.500396 0.500733 0.610570 0.887621
C24   C     C_R   0.498651 0.501176 0.389543 0.875333
C25   C     C_R   0.452997 0.896084 0.460147 0.063143
C26   C     C_R   0.562038 0.098443 0.478813 0.061458
C27   C     C_R   0.362603 0.925962 0.424166 0.088195
C28   C     C_R   0.657651 0.064763 0.502987 0.100993
C29   C     C_R   0.522957 0.950880 0.470401 0.090202
C30   C     C_R   0.496627 0.041130 0.456718 0.093648
C31   C     C_R   0.405798 0.070998 0.421830 -0.223975
C32   C     C_R   0.618622 0.917816 0.492678 -0.236892
C33   C     C_R   0.340883 0.013954 0.404762 -0.229751
C34   C     C_R   0.685077 0.973797 0.506825 -0.226174
C35   C     C_R   0.847279 0.615462 0.602821 -0.314567
C36   C     C_R   0.168460 0.344608 0.424893 -0.311031
C37   C     C_R   0.754690 0.605389 0.579728 -0.095642
C38   C     C_R   0.251336 0.378370 0.431336 -0.085951
C39   C     C_R   0.796552 0.508909 0.507427 0.533111
C40   C     C_R   0.206383 0.486414 0.496412 0.533963
C41   C     C_R   0.893212 0.510032 0.532818 -0.128718
C42   C     C_R   0.123522 0.450289 0.495223 -0.128144
C43   C     C_R   0.916963 0.567845 0.579650 0.133274
C44   C     C_R   0.104148 0.380338 0.456568 0.136138
C45   C     C_R   0.545018 0.449786 0.127964 0.536132
C46   C     C_R   0.452437 0.583118 0.873112 0.541026
C47   C     C_R   0.966386 0.459613 0.512034 0.079149
C48   C     C_R   0.057564 0.482864 0.528316 0.075729
C49   C     C_R   0.079539 0.535402 0.577930 -0.198889
C50   C     C_R   0.952876 0.385303 0.477322 -0.193654
C51   C     C_R   0.010210 0.576764 0.603364 -0.212296
C52   C     C_R   0.021095 0.346011 0.450337 -0.213544
C53   C     C_R   0.441656 0.586249 0.110768 0.484027
C54   C     C_R   0.554614 0.445974 0.890308 0.483980
C55   C     C_R   0.444609 0.587812 0.051556 -0.013723
C56   C     C_R   0.554889 0.446438 0.950017 -0.014207
C57   C     C_R   0.498672 0.517696 0.030620 -0.021324
C58   C     C_R   0.501339 0.516883 0.970993 -0.021558
C59   C     C_R   0.549740 0.448158 0.069106 -0.019685
C60   C     C_R   0.450011 0.586227 0.932415 -0.021404
C61   C     C_R   0.394412 0.657023 0.012895 -0.161273
C62   C     C_R   0.606212 0.377879 0.988845 -0.160913
C63   C     C_R   0.397158 0.656276 0.953819 -0.163137
C64   C     C_R   0.603737 0.378779 0.047926 -0.164415
H1    H     H_    0.352548 0.711661 0.028057 0.191112
H2    H     H_    0.647974 0.323165 0.973682 0.191715
H3    H     H_    0.384319 0.137744 0.405007 0.139830
H4    H     H_    0.644117 0.848306 0.497469 0.150227
H5    H     H_    0.029468 0.617809 0.640847 0.148220
H6    H     H_    0.007592 0.289970 0.423068 0.147265
H7    H     H_    0.303527 0.348437 0.409279 0.149087
H8    H     H_    0.700891 0.637975 0.599574 0.158598
H9    H     H_    0.864497 0.658508 0.639413 0.159685
H10   H     H_    0.155459 0.289986 0.396188 0.156019
H11   H     H_    0.150438 0.543174 0.599110 0.198724
H12   H     H_    0.891060 0.354633 0.471962 0.200854
H13   H     H_    0.357296 0.710340 0.924966 0.190561
H14   H     H_    0.643692 0.324752 0.076781 0.190573
H15   H     H_    0.644588 0.530763 0.806415 0.154942
H16   H     H_    0.565564 0.623433 0.228956 0.153785
H17   H     H_    0.645187 0.525007 0.702133 0.170517
H18   H     H_    0.569254 0.617304 0.334122 0.153221
H19   H     H_    0.356438 0.483422 0.658980 0.176836
H20   H     H_    0.413300 0.400271 0.305792 0.147644
H21   H     H_    0.272651 0.040489 0.377892 0.153764
H22   H     H_    0.757492 0.945000 0.523056 0.158831
H23   H     H_    0.459341 0.214205 0.468208 0.166032
H24   H     H_    0.534700 0.792861 0.520068 0.161292
H25   H     H_    0.738575 0.258309 0.541602 0.176170
H26   H     H_    0.275566 0.732585 0.417931 0.162641
N1    N     N_R   0.490538 0.517433 0.147181 -0.347284
N2    N     N_R   0.503006 0.513097 0.853322 -0.347542
N3    N     N_R   0.731690 0.552740 0.533440 -0.132330
N4    N     N_R   0.268310 0.447260 0.466560 -0.130991
O1    O     O_R   0.383120 0.605620 0.483150 -0.586669
O2    O     O_R   0.616880 0.394380 0.516850 -0.586964
O3    O     O_R   0.531890 0.639510 0.504600 -0.627567
O4    O     O_R   0.468110 0.360490 0.495400 -0.626593
O5    O     O_R   0.425590 0.483070 0.573110 -0.575185
O6    O     O_R   0.574410 0.516930 0.426890 -0.579450
O7    O     O_R   0.574360 0.516970 0.594570 -0.631730
O8    O     O_R   0.425640 0.483030 0.405430 -0.629441
O9    O     O_2   0.594569 0.384598 0.165901 -0.566256
O10   O     O_2   0.404759 0.649256 0.835393 -0.561508
O11   O     O_2   0.389597 0.652149 0.131781 -0.565205
O12   O     O_2   0.604123 0.378431 0.868990 -0.562701
Zn1   Zn    Zn3+2 0.400660 0.477370 0.485670 0.974597
Zn2   Zn    Zn3+2 0.599340 0.522630 0.514330 0.971463
N5    N     N_2   0.208159 0.895248 0.368032 -0.308403
H27   H     H_    0.212816 0.925233 0.329848 0.224526
C65   C     C_3   0.134860 0.841091 0.359281 -0.800802
H28   H     H_    0.069170 0.878196 0.332022 0.247605
H29   H     H_    0.121900 0.823670 0.402180 0.242057
H30   H     H_    0.153766 0.780918 0.335740 0.236933
N6    N     N_2   0.820083 0.088851 0.545321 -0.314934
H31   H     H_    0.834972 0.049224 0.582724 0.221897
C66   C     C_3   0.889418 0.144532 0.543406 -0.778983
H32   H     H_    0.959084 0.103570 0.550349 0.246328
H33   H     H_    0.892493 0.192969 0.578952 0.234637
H34   H     H_    0.873355 0.178833 0.499709 0.249210
O13   O     O_3   0.227416 0.560217 0.527364 -0.610494
C67   C     C_3   0.175191 0.635050 0.494289 0.082291
H35   H     H_    0.098720 0.633021 0.484016 0.129909
H36   H     H_    0.195564 0.640595 0.452020 0.141815
C68   C     C_3   0.193566 0.716152 0.530084 -0.791403
H37   H     H_    0.269281 0.720849 0.541387 0.264286
H38   H     H_    0.154542 0.775914 0.504430 0.203497
H39   H     H_    0.170220 0.712424 0.571489 0.247805
O14   O     O_3   0.765582 0.464617 0.456706 -0.609059
C69   C     C_3   0.770726 0.514953 0.407646 0.080313
H40   H     H_    0.840082 0.536890 0.413074 0.123430
H41   H     H_    0.716501 0.574108 0.400595 0.151677
C70   C     C_3   0.754801 0.459448 0.353050 -0.763242
H42   H     H_    0.688924 0.431613 0.347607 0.273169
H43   H     H_    0.750548 0.500313 0.313361 0.210401
H44   H     H_    0.813543 0.404653 0.357281 0.242133
N7    N     N_2   0.337017 0.485428 0.768426 -0.295249
H45   H     H_    0.276256 0.509232 0.737660 0.227760
C71   C     C_3   0.335499 0.397981 0.789575 -0.763652
H46   H     H_    0.270581 0.396864 0.804602 0.241470
H47   H     H_    0.395958 0.377657 0.827426 0.261374
H48   H     H_    0.337056 0.350551 0.753673 0.239667
N8    N     N_2   0.394922 0.394013 0.189960 -0.294842
H49   H     H_    0.395099 0.334622 0.209978 0.229521
C72   C     C_3   0.302811 0.430435 0.155787 -0.768916
H50   H     H_    0.273363 0.380394 0.125465 0.241842
H51   H     H_    0.305995 0.488185 0.128828 0.263404
H52   H     H_    0.255762 0.450079 0.185439 0.237476

loop_
_geom_bond_atom_site_label_1
_geom_bond_atom_site_label_2
_ccdc_geom_bond_type
C23   O5    A    
C6    H18   S    
C71   H47   S    
C65   H28   S    
C53   O11   S    
C3    H15   S    
C72   H50   S    
C39   C41   A    
C23   O7    A    
C27   C33   A    
C15   C19   A    
C40   O13   S    
N7    C71   S    
C59   C64   A    
C60   C63   A    
C35   C37   A    
C4    H16   S    
C29   C32   A    
N5    C65   S    
N3    Zn2   S    
C30   C31   A    
C71   H48   S    
C57   C59   A    
C46   N2    A    
C58   C60   A    
N8    H49   S    
N8    C72   S    
C34   H22   S    
C10   H20   S    
C61   C63   A    
C33   H21   S    
C39   N3    A    
C62   C64   A    
C45   O9    S    
C17   C19   A    
O3    Zn2   S    
C45   C59   A    
N6    C66   S    
C53   N1    A    
C68   H39   S    
C50   C52   A    
C31   C33   A    
C1    C15   S    
C2    C16   S    
C24   O8    A    
C3    C13   A    
C1    O1    A    
N7    H45   S    
C32   H4    S    
C44   C52   A    
O7    Zn2   S    
C40   C42   A    
O2    Zn2   S    
C21   H24   S    
C28   C34   A    
O1    Zn1   S    
C41   C43   A    
C42   C44   A    
C72   H51   S    
C47   C50   A    
C53   C55   A    
C25   C29   A    
C54   C56   A    
N4    Zn1   S    
O6    Zn2   S    
C54   O12   S    
C17   C27   A    
C18   C28   A    
C4    C6    A    
C66   H34   S    
C1    O3    A    
C5    C7    A    
C62   H2    S    
C6    C8    A    
C39   O14   S    
C49   C51   A    
C46   O10   S    
C2    O2    A    
O4    Zn1   S    
C32   C34   A    
C69   H41   S    
C54   N2    A    
C29   C30   A    
C50   H12   S    
C70   H44   S    
C5    H17   S    
C47   C48   A    
C16   C20   A    
C38   N4    A    
C49   H11   S    
C41   C47   A    
C37   N3    A    
O8    Zn1   S    
C65   H29   S    
C42   C48   A    
C22   H23   S    
C9    C11   A    
O13   C67   S    
C10   C12   A    
C9    H19   S    
C48   C49   A    
C12   C14   A    
C26   C30   A    
C55   C57   A    
C13   N2    S    
C70   H42   S    
C56   C62   A    
C36   C44   A    
C69   C70   S    
C67   H36   S    
C72   H52   S    
C35   C43   A    
C70   H43   S    
O14   C69   S    
C63   H13   S    
C7    C9    A    
C21   C25   A    
C38   H7    S    
C35   H9    S    
C16   C22   A    
C46   C60   A    
C24   O6    A    
C64   H14   S    
C40   N4    A    
C3    C5    A    
C17   N5    S    
C18   N6    S    
C71   H46   S    
C25   C27   A    
O5    Zn1   S    
C20   H25   S    
C26   C28   A    
C12   N8    S    
C67   C68   S    
C66   H33   S    
C69   H40   S    
C11   N7    S    
C19   H26   S    
N5    H27   S    
C11   C13   A    
C43   C51   A    
C57   C58   A    
C68   H37   S    
C7    C23   S    
C55   C61   A    
C36   C38   A    
C8    C24   S    
C56   C58   A    
C65   H30   S    
C18   C20   A    
C4    C14   A    
C45   N1    A    
C14   N1    S    
C52   H6    S    
C31   H3    S    
C61   H1    S    
C15   C21   A    
C2    O4    A    
C8    C10   A    
C22   C26   A    
C37   H8    S    
C68   H38   S    
C51   H5    S    
C67   H35   S    
C66   H32   S    
C36   H10   S    
N6    H31   S    
