data_mof_unit_49456.cif
_audit_creation_date              2012-12-10T17:12:34-0500
_audit_creation_method            fapswitch 2.2
_symmetry_space_group_name_H-M    P1
_symmetry_Int_Tables_number       1
_space_group_crystal_system       triclinic
_cell_length_a                    23.347206
_cell_length_b                    10.794614
_cell_length_c                    10.089288
_cell_angle_alpha                 90.227165
_cell_angle_beta                  89.449367
_cell_angle_gamma                 90.622565
_cell_volume                      2542.45702602

loop_
_atom_site_label
_atom_site_type_symbol
_atom_type_description
_atom_site_fract_x
_atom_site_fract_y
_atom_site_fract_z
_atom_type_partial_charge
C1    C     C_R   0.499970 0.263175 0.499453 0.889288
C2    C     C_R   0.118973 0.657942 0.480155 0.576168
C3    C     C_R   0.246533 0.622999 0.391555 0.153744
C4    C     C_R   0.389439 0.504491 0.500455 0.964491
C5    C     C_R   0.305712 0.612523 0.407957 0.284146
C6    C     C_R   0.327502 0.525568 0.498709 -0.240207
C7    C     C_R   0.289510 0.457432 0.581602 0.055362
C8    C     C_R   0.230263 0.473321 0.569173 0.205778
C9    C     C_R   0.209258 0.552163 0.470893 0.145057
C10   C     C_R   0.759958 0.452946 0.366206 -0.175300
C11   C     C_R   0.701307 0.440906 0.382578 0.321325
C12   C     C_R   0.976147 0.333137 0.328458 0.372979
C13   C     C_R   0.673835 0.495661 0.493590 -0.257592
C14   C     C_R   0.707495 0.552232 0.593673 0.281965
C15   C     C_R   0.767578 0.554384 0.580740 0.209052
C16   C     C_R   0.503417 0.736673 0.499350 0.923569
C17   C     C_R   0.793294 0.509460 0.463449 0.123283
C18   C     C_2   0.504588 0.935934 0.392458 0.113153
C19   C     C_2   0.520544 0.864089 0.494206 0.201667
C20   C     C_2   0.519041 0.065958 0.399797 0.121255
C21   C     C_2   0.493507 0.132304 0.496453 0.201857
C22   C     C_2   0.522276 0.586593 0.929355 0.252190
C23   C     C_R   0.035859 0.344206 0.317569 0.344780
C24   C     C_2   0.534159 0.568057 0.073802 0.241012
C25   C     C_R   0.610837 0.498455 0.499006 0.985916
C26   C     C_R   0.878546 0.637718 0.447204 0.619764
C27   C     C_R   0.885339 0.419802 0.412805 0.575250
C28   C     C_R   0.944080 0.431202 0.384281 -0.161079
C29   C     C_R   0.971492 0.545309 0.414176 -0.117412
C30   C     C_R   0.938650 0.650931 0.446941 -0.120230
C31   C     C_3   0.826630 0.510636 0.769473 -0.671439
C32   C     C_3   0.430484 0.975135 0.225758 -0.651031
C33   C     C_3   0.603786 0.040874 0.257091 -0.603698
C34   C     C_R   0.064194 0.448748 0.372818 -0.158552
C35   C     C_3   0.491726 0.795439 0.889680 -0.634041
C36   C     C_3   0.443087 0.324833 0.896880 -0.674047
C37   C     C_3   0.635983 0.628267 0.076393 -0.592823
C38   C     C_3   0.071071 0.959265 0.413515 -0.493694
C39   C     C_3   0.215264 0.647287 0.165816 -0.709776
C40   C     C_3   0.322635 0.250184 0.622767 -0.680635
C41   C     C_3   0.171985 0.476890 0.767609 -0.715796
C42   C     C_R   0.031728 0.552222 0.414697 -0.099922
C43   C     C_R   0.059426 0.661302 0.460309 -0.079509
C44   C     C_R   0.026940 0.768515 0.488298 0.111722
C45   C     C_R   0.966823 0.764042 0.479624 0.365125
C46   C     C_R   0.123826 0.453351 0.390287 0.598024
Cl1   Cl    Cl    0.942606 0.199287 0.260237 -0.412962
Cl2   Cl    Cl    0.665133 0.352078 0.261529 -0.590769
Cl3   Cl    Cl    0.675883 0.624629 0.733319 -0.631592
Cl4   Cl    Cl    0.570081 0.916274 0.615228 -0.581352
Cl5   Cl    Cl    0.444937 0.067512 0.614607 -0.663223
Cl6   Cl    Cl    0.073004 0.228325 0.227098 -0.513666
Cl7   Cl    Cl    0.928944 0.901989 0.516441 -0.457251
Cl8   Cl    Cl    0.351884 0.709899 0.313628 -0.626192
H1    H     H_    0.462827 0.471427 0.107133 0.181092
H2    H     H_    0.402706 0.017375 0.303313 0.269219
H3    H     H_    0.538347 0.166587 0.230216 0.253061
H4    H     H_    0.586129 0.964089 0.195686 0.201613
H5    H     H_    0.628012 0.002489 0.341511 0.274838
H6    H     H_    0.633843 0.095840 0.194371 0.283487
H7    H     H_    0.560199 0.705472 0.791717 0.327058
H8    H     H_    0.455559 0.770442 0.823766 0.261411
H9    H     H_    0.508600 0.888390 0.862327 0.291799
H10   H     H_    0.475482 0.800269 0.993170 0.205678
H11   H     H_    0.530712 0.328053 0.863194 0.275676
H12   H     H_    0.780107 0.416776 0.277151 0.214922
H13   H     H_    0.443432 0.236367 0.952605 0.228489
H14   H     H_    0.431107 0.304816 0.793166 0.287648
H15   H     H_    0.410007 0.385776 0.941342 0.205726
H16   H     H_    0.576539 0.663062 0.230187 0.263525
H17   H     H_    0.666694 0.608303 0.156639 0.242476
H18   H     H_    0.649054 0.716661 0.028546 0.264437
H19   H     H_    0.638250 0.551916 0.002326 0.274608
H20   H     H_    0.035856 0.929811 0.601218 0.271404
H21   H     H_    0.032298 0.992006 0.361828 0.279002
H22   H     H_    0.098523 0.907357 0.342417 0.240127
H23   H     H_    0.786522 0.678180 0.734393 0.301631
H24   H     H_    0.095749 0.040843 0.449918 0.254222
H25   H     H_    0.243380 0.789426 0.289181 0.285254
H26   H     H_    0.194259 0.714255 0.099201 0.242932
H27   H     H_    0.187262 0.563843 0.174075 0.255126
H28   H     H_    0.257134 0.620822 0.121360 0.259458
H29   H     H_    0.339827 0.405617 0.740510 0.251991
H30   H     H_    0.333447 0.186824 0.704993 0.270296
H31   H     H_    0.359594 0.256274 0.552954 0.242063
H32   H     H_    0.285003 0.210955 0.569942 0.254896
H33   H     H_    0.203049 0.318868 0.676252 0.268230
H34   H     H_    0.856041 0.555906 0.841155 0.245495
H35   H     H_    0.139315 0.421863 0.823118 0.256619
H36   H     H_    0.152253 0.565366 0.737312 0.258824
H37   H     H_    0.208705 0.496717 0.834041 0.241736
H38   H     H_    0.851459 0.441986 0.710847 0.253439
H39   H     H_    0.791816 0.462289 0.825372 0.262543
H40   H     H_    0.493830 0.841463 0.216089 0.234495
H41   H     H_    0.402761 0.923698 0.155201 0.263358
H42   H     H_    0.453799 0.048699 0.169960 0.197209
N1    N     N_R   0.853887 0.522523 0.441286 -0.348773
N2    N     N_2   0.578869 0.640660 0.131542 -0.317091
N3    N     N_2   0.054868 0.881650 0.524439 -0.266846
N4    N     N_2   0.223596 0.703733 0.294560 -0.274211
N5    N     N_2   0.309603 0.371179 0.676218 -0.321949
N6    N     N_2   0.190945 0.407568 0.652683 -0.284288
N7    N     N_R   0.149060 0.554943 0.446418 -0.327569
N8    N     N_2   0.500610 0.501330 0.852150 -0.081830
N9    N     N_2   0.500630 0.501360 0.147810 -0.211783
N10   N     N_2   0.802802 0.603274 0.683520 -0.271702
N11   N     N_2   0.470405 0.890414 0.285226 -0.266822
N12   N     N_2   0.558214 0.119637 0.305418 -0.285775
N13   N     N_2   0.536842 0.705070 0.878373 -0.285029
N14   N     N_2   0.499126 0.383072 0.903337 -0.275326
O1    O     O_R   0.499990 0.319060 0.613040 -0.598552
O2    O     O_R   0.583840 0.500020 0.613040 -0.576565
O3    O     O_R   0.583850 0.500060 0.386900 -0.592604
O4    O     O_2   0.844465 0.737543 0.454045 -0.449993
O5    O     O_2   0.859858 0.307161 0.417173 -0.444395
O6    O     O_2   0.156823 0.356286 0.356373 -0.500855
O7    O     O_2   0.146859 0.754505 0.536470 -0.532040
O8    O     O_R   0.500010 0.319100 0.386900 -0.633452
O9    O     O_R   0.416150 0.499940 0.613100 -0.630853
O10   O     O_R   0.416160 0.499980 0.386960 -0.569813
O11   O     O_R   0.499990 0.680900 0.613100 -0.609510
O12   O     O_R   0.500010 0.680940 0.386960 -0.645439
Zn1   Zn    Zn3+2 0.499990 0.499970 0.650990 0.987798
Zn2   Zn    Zn3+2 0.500010 0.500030 0.349010 0.994021

loop_
_geom_bond_atom_site_label_1
_geom_bond_atom_site_label_2
_ccdc_geom_bond_type
C41   H35   S    
C1    C21   S    
C33   H4    S    
C29   C42   A    
C40   H30   S    
C30   C45   A    
C34   C42   A    
C43   C44   A    
H7    N13   S    
C23   Cl6   S    
C36   H13   S    
C7    C8    A    
N8    Zn1   S    
C38   H22   S    
C36   H15   S    
C12   C23   A    
H1    N9    S    
C24   N2    S    
C15   N10   S    
C28   C29   A    
C5    C6    A    
C44   N3    S    
C14   Cl3   S    
C10   C17   A    
C22   N8    D    
C41   N6    S    
C18   C19   D    
C40   H32   S    
C16   O12   A    
C18   N11   S    
C25   O2    A    
C40   N5    S    
C3    N4    S    
C27   N1    A    
C8    C9    A    
C32   N11   S    
C4    O9    A    
C35   H10   S    
C34   C46   A    
C35   N13   S    
C22   N13   S    
C41   H36   S    
C45   Cl7   S    
C33   H5    S    
C13   C14   A    
C13   C25   S    
C11   Cl2   S    
C33   N12   S    
C12   Cl1   S    
C37   N2    S    
C2    O7    S    
C38   H21   S    
C10   H12   S    
H40   N11   S    
O1    Zn1   S    
C5    Cl8   S    
C39   H27   S    
O2    Zn1   S    
C4    C6    S    
C38   H24   S    
C31   H39   S    
N9    Zn2   S    
C40   H31   S    
C16   O11   A    
C26   O4    S    
C29   C30   A    
C3    C9    A    
C25   O3    A    
H33   N6    S    
H25   N4    S    
C2    C43   A    
C9    N7    S    
C23   C34   A    
C32   H41   S    
O8    Zn2   S    
C6    C7    A    
C41   H37   S    
C12   C28   A    
C26   C30   A    
C33   H6    S    
C37   H17   S    
C36   N14   S    
C31   N10   S    
C22   C24   S    
C42   C43   A    
O12   Zn2   S    
C21   Cl5   S    
C44   C45   A    
C15   C17   A    
C37   H19   S    
H23   N10   S    
C31   H34   S    
H29   N5    S    
C32   H42   S    
C39   H28   S    
C38   N3    S    
C3    C5    A    
C36   H14   S    
H20   N3    S    
O9    Zn1   S    
C46   N7    A    
C46   O6    S    
C39   H26   S    
C1    O1    A    
N8    N14   S    
C11   C13   A    
C19   Cl4   S    
C39   N4    S    
O3    Zn2   S    
C8    N6    S    
C2    N7    A    
C16   C19   S    
C35   H8    S    
C18   C20   S    
C1    O8    A    
H11   N14   S    
O11   Zn1   S    
C10   C11   A    
C26   N1    A    
O10   Zn2   S    
H3    N12   S    
C20   C21   D    
C31   H38   S    
C7    N5    S    
C37   H18   S    
C27   C28   A    
C14   C15   A    
C4    O10   A    
C35   H9    S    
C24   N9    D    
C17   N1    S    
C32   H2    S    
H16   N2    S    
C20   N12   S    
C27   O5    S    
