data_mof_unit_35601.cif
_audit_creation_date              2012-12-10T19:50:57-0500
_audit_creation_method            fapswitch 2.2
_symmetry_space_group_name_H-M    P1
_symmetry_Int_Tables_number       1
_space_group_crystal_system       triclinic
_cell_length_a                    23.479249
_cell_length_b                    10.779754
_cell_length_c                    22.249682
_cell_angle_alpha                 91.483932
_cell_angle_beta                  89.518602
_cell_angle_gamma                 90.373346
_cell_volume                      5629.20719994

loop_
_atom_site_label
_atom_site_type_symbol
_atom_type_description
_atom_site_fract_x
_atom_site_fract_y
_atom_site_fract_z
_atom_type_partial_charge
C1    C     C_R   0.496556 0.262012 0.499493 0.797970
C2    C     C_R   0.702213 0.528682 0.446721 -0.238581
C3    C     C_R   0.240648 0.571731 0.453422 -0.145179
C4    C     C_R   0.761569 0.533460 0.447028 -0.119470
C5    C     C_R   0.209682 0.532475 0.503629 0.351246
C6    C     C_R   0.791161 0.510314 0.499886 0.346751
C7    C     C_R   0.319516 0.229481 0.429772 -0.211551
C8    C     C_R   0.679389 0.788746 0.568320 -0.154790
C9    C     C_R   0.368435 0.193143 0.460206 -0.184698
C10   C     C_R   0.633988 0.838970 0.537144 -0.252761
C11   C     C_R   0.406574 0.108920 0.432925 0.143520
C12   C     C_R   0.501291 0.737765 0.500674 0.798028
C13   C     C_R   0.586208 0.884408 0.568524 0.113553
C14   C     C_R   0.394494 0.061141 0.375008 -0.203126
C15   C     C_R   0.583650 0.876884 0.631240 -0.187070
C16   C     C_R   0.390893 0.504395 0.500398 0.790698
C17   C     C_R   0.609274 0.499974 0.499793 0.806944
C18   C     C_R   0.346486 0.099294 0.344242 -0.165556
C19   C     C_R   0.628708 0.824838 0.662402 -0.253822
C20   C     C_R   0.308724 0.184671 0.370582 0.570968
C21   C     C_R   0.677867 0.782855 0.631111 0.560781
C22   C     C_R   0.458166 0.927620 0.468554 -0.239392
C23   C     C_R   0.238492 0.489225 0.553747 -0.110400
C24   C     C_R   0.536404 0.070232 0.534267 -0.221366
C25   C     C_R   0.500131 0.871069 0.501884 -0.081128
C26   C     C_R   0.495200 0.127879 0.499550 -0.100920
C27   C     C_R   0.539383 0.941810 0.535544 0.009510
C28   C     C_R   0.454516 0.056301 0.467052 -0.000047
C29   C     C_R   0.529376 0.419645 0.873788 0.636783
C30   C     C_R   0.481046 0.620838 0.129100 0.660180
C31   C     C_R   0.491903 0.623720 0.873191 0.652277
C32   C     C_R   0.535533 0.435483 0.127813 0.617413
C33   C     C_R   0.491027 0.630109 0.937254 -0.163869
C34   C     C_R   0.761183 0.482348 0.552504 -0.075036
C35   C     C_R   0.542472 0.439207 0.064330 -0.184849
C36   C     C_R   0.516267 0.533209 0.968962 -0.146048
C37   C     C_R   0.515948 0.535274 0.033012 -0.133163
C38   C     C_R   0.539431 0.430855 0.936548 -0.186803
C39   C     C_R   0.487659 0.631188 0.065668 -0.177754
C40   C     C_R   0.879619 0.626420 0.499324 0.536934
C41   C     C_R   0.120917 0.417818 0.502323 0.515983
C42   C     C_R   0.465968 0.730643 0.970120 0.374547
C43   C     C_R   0.575027 0.349526 0.031065 0.382381
C44   C     C_R   0.465545 0.732817 0.033834 0.414280
C45   C     C_R   0.297690 0.481724 0.553015 -0.221814
C46   C     C_R   0.571437 0.342230 0.967879 0.420409
C47   C     C_R   0.472280 0.422825 0.251833 0.284958
C48   C     C_R   0.455098 0.539772 0.746202 0.277353
C49   C     C_R   0.477729 0.406732 0.314694 0.481643
C50   C     C_R   0.455119 0.545768 0.682654 0.475167
C51   C     C_R   0.525832 0.599188 0.324543 -0.176542
C52   C     C_R   0.547761 0.461801 0.677729 -0.167783
C53   C     C_R   0.529030 0.609128 0.261499 0.362809
C54   C     C_R   0.552904 0.472385 0.740816 0.384941
C55   C     C_R   0.501179 0.520947 0.224309 0.114979
C56   C     C_R   0.701851 0.478070 0.552407 -0.206144
C57   C     C_R   0.505551 0.509168 0.776538 0.075055
C58   C     C_R   0.881545 0.404839 0.500914 0.531774
C59   C     C_R   0.119260 0.639485 0.501585 0.537582
C60   C     C_R   0.941266 0.405830 0.501161 -0.014841
C61   C     C_R   0.059473 0.638628 0.500678 -0.016825
C62   C     C_R   0.970290 0.520622 0.500577 -0.019533
C63   C     C_R   0.030388 0.523900 0.501024 -0.019377
C64   C     C_R   0.939355 0.632098 0.499622 -0.014537
C65   C     C_R   0.061255 0.412386 0.501858 -0.007204
C66   C     C_R   0.972498 0.295194 0.501910 -0.167769
C67   C     C_R   0.328713 0.516112 0.501786 -0.057364
C68   C     C_R   0.028203 0.749259 0.499710 -0.164137
C69   C     C_R   0.031882 0.298433 0.502184 -0.161931
C70   C     C_R   0.968765 0.746024 0.499150 -0.164648
C71   C     C_3   0.461528 0.931454 0.936634 0.156362
C72   C     C_3   0.419211 0.034820 0.952641 -0.343205
C73   C     C_3   0.447550 0.162304 0.952213 -0.881197
C74   C     C_3   0.656277 0.317597 0.086598 0.140738
C75   C     C_3   0.708992 0.303822 0.046276 -0.395102
C76   C     C_3   0.763218 0.338708 0.080264 -0.917036
C77   C     C_3   0.479510 0.910770 0.091378 -0.206267
C78   C     C_R   0.671865 0.501421 0.499502 -0.056479
C79   C     C_3   0.647006 0.285463 0.906443 -0.201370
C80   C     C_3   0.384268 0.354030 0.225586 -0.267676
C81   C     C_3   0.376433 0.460077 0.790481 -0.241577
C82   C     C_3   0.511375 0.211805 0.330059 0.107479
C83   C     C_3   0.505354 0.128853 0.273258 -0.374806
C84   C     C_3   0.541559 0.012163 0.276525 -0.863296
C85   C     C_3   0.412674 0.727510 0.659693 0.104898
C86   C     C_3   0.373946 0.784535 0.613013 -0.314913
C87   C     C_3   0.377776 0.926005 0.615177 -0.907133
C88   C     C_3   0.615764 0.680918 0.233472 -0.344847
C89   C     C_R   0.299884 0.562964 0.452327 -0.249837
C90   C     C_3   0.641351 0.542926 0.763462 -0.342244
C91   C     C_3   0.242703 0.335564 0.347716 -0.319042
C92   C     C_3   0.740438 0.797669 0.710587 -0.332745
Cu1   Cu    Cu3+1 0.500000 0.499970 0.559570 0.968483
Cu2   Cu    Cu3+1 0.500000 0.500030 0.440430 0.959261
H1    H     H_    0.951193 0.205787 0.502294 0.188045
H2    H     H_    0.583425 0.426154 0.651861 0.183560
H3    H     H_    0.054647 0.211407 0.502784 0.190995
H4    H     H_    0.945980 0.833012 0.498433 0.188616
H5    H     H_    0.214845 0.459413 0.592848 0.147221
H6    H     H_    0.783928 0.464561 0.593499 0.149673
H7    H     H_    0.319059 0.446204 0.591881 0.183319
H8    H     H_    0.679517 0.457079 0.593727 0.157253
H9    H     H_    0.323065 0.591748 0.412718 0.160490
H10   H     H_    0.680115 0.547671 0.405456 0.153964
H11   H     H_    0.218664 0.605216 0.414511 0.147275
H12   H     H_    0.049522 0.838653 0.499418 0.188659
H13   H     H_    0.784644 0.554881 0.406215 0.139834
H14   H     H_    0.289419 0.288871 0.453280 0.169533
H15   H     H_    0.716294 0.755118 0.543544 0.188460
H16   H     H_    0.375059 0.226169 0.506007 0.126864
H17   H     H_    0.636280 0.843521 0.488602 0.149213
H18   H     H_    0.476085 0.943297 0.889493 0.189554
H19   H     H_    0.500149 0.940830 0.965252 0.106249
H20   H     H_    0.383910 0.032236 0.919636 0.228865
H21   H     H_    0.400621 0.019801 0.997954 0.259132
H22   H     H_    0.481719 0.168032 0.986353 0.270866
H23   H     H_    0.422154 0.992802 0.353712 0.148049
H24   H     H_    0.415565 0.235076 0.963097 0.253608
H25   H     H_    0.465838 0.179589 0.907075 0.291561
H26   H     H_    0.663996 0.268163 0.128954 0.189833
H27   H     H_    0.650727 0.417563 0.099487 0.103597
H28   H     H_    0.712334 0.206360 0.029135 0.243472
H29   H     H_    0.705089 0.366478 0.007815 0.202641
H30   H     H_    0.760899 0.436103 0.097656 0.254966
H31   H     H_    0.800511 0.329986 0.049459 0.262819
H32   H     H_    0.769331 0.275850 0.118432 0.259791
H33   H     H_    0.487338 0.992522 0.063312 0.154115
H34   H     H_    0.546611 0.910440 0.655875 0.146065
H35   H     H_    0.521080 0.866287 0.101116 0.141189
H36   H     H_    0.461767 0.946354 0.134827 0.216989
H37   H     H_    0.656618 0.386695 0.911865 0.104595
H38   H     H_    0.642179 0.263285 0.857808 0.235245
H39   H     H_    0.684473 0.232937 0.921527 0.144439
H40   H     H_    0.371339 0.334443 0.272614 0.179717
H41   H     H_    0.360953 0.287702 0.195676 0.193266
H42   H     H_    0.371233 0.449425 0.213712 0.166891
H43   H     H_    0.401749 0.398733 0.819450 0.156448
H44   H     H_    0.363950 0.409572 0.748270 0.152841
H45   H     H_    0.338194 0.060982 0.299678 0.155742
H46   H     H_    0.336775 0.484352 0.815412 0.190413
H47   H     H_    0.512526 0.150875 0.369312 0.177397
H48   H     H_    0.553524 0.260617 0.329747 0.110001
H49   H     H_    0.460134 0.101296 0.266704 0.251329
H50   H     H_    0.519691 0.180674 0.233516 0.284535
H51   H     H_    0.587027 0.037443 0.283360 0.252741
H52   H     H_    0.537790 0.957615 0.233716 0.295367
H53   H     H_    0.526718 0.953573 0.313987 0.260790
H54   H     H_    0.456990 0.762121 0.651975 0.132395
H55   H     H_    0.398325 0.759070 0.705322 0.186577
H56   H     H_    0.624898 0.817132 0.710620 0.136215
H57   H     H_    0.386546 0.750543 0.567303 0.222962
H58   H     H_    0.329143 0.755409 0.621434 0.233207
H59   H     H_    0.363467 0.962888 0.659827 0.259827
H60   H     H_    0.350054 0.964244 0.580044 0.269564
H61   H     H_    0.422247 0.957063 0.606622 0.262993
H62   H     H_    0.623941 0.595781 0.205360 0.162647
H63   H     H_    0.633935 0.671151 0.279145 0.157333
H64   H     H_    0.638276 0.759142 0.211958 0.192715
H65   H     H_    0.623233 0.627881 0.785625 0.155698
H66   H     H_    0.652905 0.560748 0.715869 0.194791
H67   H     H_    0.427075 0.870238 0.444819 0.149178
H68   H     H_    0.681123 0.520412 0.787304 0.188908
H69   H     H_    0.279417 0.401447 0.346550 0.142718
H70   H     H_    0.217950 0.346063 0.390236 0.205547
H71   H     H_    0.213913 0.360001 0.310635 0.196796
H72   H     H_    0.741641 0.899224 0.702402 0.172535
H73   H     H_    0.712608 0.777136 0.749716 0.148864
H74   H     H_    0.784252 0.769698 0.722349 0.200877
H75   H     H_    0.567496 0.125676 0.559048 0.155963
H76   H     H_    0.546329 0.669941 0.352139 0.189387
N1    N     N_R   0.852144 0.514015 0.500008 -0.468982
N2    N     N_R   0.148606 0.530143 0.502533 -0.469078
N3    N     N_R   0.508935 0.517693 0.842426 -0.426664
N4    N     N_R   0.505810 0.525859 0.158924 -0.409404
N5    N     N_R   0.500010 0.500010 0.350920 -0.250757
N6    N     N_R   0.499990 0.499990 0.649080 -0.245859
O1    O     O_R   0.500000 0.319610 0.550310 -0.577046
O2    O     O_2   0.151109 0.311672 0.502145 -0.546696
O3    O     O_2   0.853005 0.295776 0.501258 -0.534712
O4    O     O_2   0.147835 0.748512 0.502050 -0.529916
O5    O     O_2   0.538161 0.310136 0.844707 -0.503107
O6    O     O_2   0.448525 0.702381 0.160649 -0.497841
O7    O     O_2   0.476553 0.723351 0.841948 -0.511545
O8    O     O_2   0.557328 0.340713 0.158286 -0.553876
O9    O     O_3   0.433048 0.815752 0.940525 -0.549069
O10   O     O_3   0.607783 0.261508 0.059053 -0.559018
O11   O     O_3   0.438619 0.830603 0.063920 -0.539581
O12   O     O_R   0.500000 0.680390 0.449690 -0.595784
O13   O     O_3   0.598099 0.243821 0.937982 -0.535328
O14   O     O_3   0.443187 0.336846 0.216381 -0.558027
O15   O     O_3   0.406230 0.570515 0.778094 -0.527100
O16   O     O_3   0.464107 0.292992 0.338140 -0.577664
O17   O     O_3   0.408980 0.596623 0.654460 -0.576474
O18   O     O_3   0.557193 0.708273 0.236464 -0.560607
O19   O     O_3   0.603618 0.441334 0.767428 -0.547107
O20   O     O_3   0.259790 0.211324 0.338701 -0.577589
O21   O     O_3   0.723390 0.727669 0.659270 -0.597240
O22   O     O_R   0.499990 0.319670 0.449690 -0.545161
O23   O     O_R   0.500010 0.680330 0.550310 -0.569311
O24   O     O_R   0.417880 0.499930 0.550320 -0.532644
O25   O     O_R   0.582120 0.500070 0.449680 -0.586911
O26   O     O_R   0.417880 0.499990 0.449700 -0.563321
O27   O     O_R   0.582120 0.500010 0.550300 -0.590319
O28   O     O_2   0.849189 0.732147 0.498752 -0.540089

loop_
_geom_bond_atom_site_label_1
_geom_bond_atom_site_label_2
_ccdc_geom_bond_type
C81   H46   S    
C23   H5    S    
C63   C65   A    
C34   C56   A    
Cu1   Cu2   S    
C23   C45   A    
C75   H28   S    
C76   H32   S    
C14   C18   A    
C1    O22   A    
C61   C68   A    
C24   C27   A    
C82   H48   S    
C19   H56   S    
C80   H40   S    
C48   C57   A    
C47   C49   A    
C49   O16   S    
C84   H51   S    
C3    H11   S    
C15   C19   A    
C72   H21   S    
C73   H22   S    
C29   O5    S    
C90   H68   S    
C75   H29   S    
C33   C42   A    
C88   H62   S    
C50   N6    A    
C59   O4    S    
Cu1   O23   S    
Cu2   O12   S    
C83   H50   S    
C50   O17   S    
C66   C69   A    
C58   C60   A    
C12   O12   A    
C72   H20   S    
C67   C89   A    
C33   C36   A    
C56   C78   A    
C71   H19   S    
C60   C62   A    
C90   H65   S    
C61   C63   A    
C81   O15   S    
C48   O15   S    
C62   C64   A    
C1    O1    A    
C5    N2    S    
C90   O19   S    
C40   O28   S    
C92   H72   S    
C22   C25   A    
C29   C38   A    
C45   C67   A    
C34   H6    S    
C70   H4    S    
C31   C33   A    
C58   O3    S    
Cu2   O26   S    
C88   H64   S    
C35   C43   A    
C52   N6    A    
C16   O24   A    
Cu2   N5    S    
C82   O16   S    
C48   C50   A    
C60   C66   A    
C80   H41   S    
C22   C28   A    
C89   H9    S    
C53   O18   S    
C30   O6    S    
C91   H69   S    
C68   H12   S    
C71   O9    S    
C82   H47   S    
C16   O26   A    
C51   N5    A    
C4    H13   S    
C52   C54   A    
C74   O10   S    
C6    N1    S    
C53   C55   A    
C81   H44   S    
C79   H39   S    
C41   N2    A    
C59   C61   A    
C74   C75   S    
C76   H30   S    
C32   C35   A    
C88   O18   S    
C41   O2    S    
Cu1   O24   S    
C4    C6    A    
C29   N3    A    
Cu2   O25   S    
C22   H67   S    
Cu1   O1    S    
C86   C87   S    
C41   C65   A    
C43   O10   S    
C85   C86   S    
C32   N4    A    
C6    C34   A    
Cu2   O22   S    
C2    C4    A    
C75   C76   S    
C55   N4    S    
C62   C63   A    
C2    C78   A    
C86   H58   S    
C92   H74   S    
C83   C84   S    
C5    C23   A    
C2    H10   S    
C54   O19   S    
C14   H23   S    
C79   H37   S    
C71   H18   S    
C87   H59   S    
C8    C21   A    
C87   H60   S    
C10   H17   S    
C16   C67   S    
C77   H35   S    
C88   H63   S    
C76   H31   S    
C17   O25   A    
C24   H75   S    
C9    C11   A    
C45   H7    S    
C57   N3    S    
C42   O9    S    
C8    C10   A    
C82   C83   S    
C64   C70   A    
C15   H34   S    
C13   C15   A    
C1    C26   S    
C77   O11   S    
C87   H61   S    
C91   H70   S    
C46   O13   S    
C59   N2    A    
C49   N5    A    
C85   H54   S    
C35   C37   A    
C47   C55   A    
C31   N3    A    
C84   H53   S    
C9    H16   S    
C7    C9    A    
C36   C37   A    
C73   H24   S    
C31   O7    S    
C80   O14   S    
C32   O8    S    
C51   H76   S    
C24   C26   A    
C21   O21   S    
C72   C73   S    
C3    C5    A    
C10   C13   A    
C40   C64   A    
C39   C44   A    
C84   H52   S    
C25   C27   A    
C74   H26   S    
Cu1   N6    S    
C26   C28   A    
C80   H42   S    
C12   C25   S    
C3    C89   A    
C47   O14   S    
C36   C38   A    
C58   N1    A    
C42   C44   A    
C56   H8    S    
C71   C72   S    
C37   C39   A    
C8    H15   S    
C83   H49   S    
C91   O20   S    
C92   H73   S    
C85   O17   S    
C11   C28   S    
C65   C69   A    
C79   H38   S    
C17   C78   S    
C11   C14   A    
C12   O23   A    
C20   O20   S    
C30   C39   A    
C52   H2    S    
C18   C20   A    
C77   H36   S    
C90   H66   S    
C18   H45   S    
Cu1   O27   S    
C43   C46   A    
C85   H55   S    
C38   C46   A    
C77   H33   S    
C44   O11   S    
C73   H25   S    
C91   H71   S    
C17   O27   A    
C74   H27   S    
C68   C70   A    
C7    C20   A    
C79   O13   S    
C81   H43   S    
C7    H14   S    
C13   C27   S    
C51   C53   A    
C86   H57   S    
C30   N4    A    
C40   N1    A    
C92   O21   S    
C66   H1    S    
C19   C21   A    
C54   C57   A    
C69   H3    S    
