data_mof_unit_47744.cif
_audit_creation_date              2012-12-11T16:28:32-0500
_audit_creation_method            fapswitch 2.2
_symmetry_space_group_name_H-M    P1
_symmetry_Int_Tables_number       1
_space_group_crystal_system       triclinic
_cell_length_a                    16.794198
_cell_length_b                    7.250515
_cell_length_c                    15.053307
_cell_angle_alpha                 89.44921
_cell_angle_beta                  94.251968
_cell_angle_gamma                 89.60258
_cell_volume                      1827.80649611

loop_
_atom_site_label
_atom_site_type_symbol
_atom_type_description
_atom_site_fract_x
_atom_site_fract_y
_atom_site_fract_z
_atom_type_partial_charge
O1    O     O_R   0.663460 0.361760 0.165970 -0.525277
O2    O     O_R   0.336540 0.638240 0.834030 -0.525391
O3    O     O_R   0.836540 0.861760 0.334030 -0.514102
O4    O     O_R   0.163460 0.138240 0.665970 -0.514356
O5    O     O_R   0.827100 0.689870 0.163730 -0.533655
O6    O     O_R   0.172900 0.310130 0.836270 -0.523802
O7    O     O_R   0.672900 0.189870 0.336270 -0.542898
O8    O     O_R   0.327100 0.810130 0.663730 -0.531219
C1    C     C_R   0.854333 0.523157 0.144871 0.742060
C2    C     C_R   0.146648 0.476940 0.856348 0.739895
C3    C     C_R   0.645721 0.023196 0.355130 0.734475
C4    C     C_R   0.354469 0.976731 0.645111 0.733562
O9    O     O_R   0.663490 0.691370 0.155500 -0.536868
O10   O     O_R   0.336510 0.308630 0.844500 -0.538898
O11   O     O_R   0.836510 0.191370 0.344500 -0.549728
O12   O     O_R   0.163490 0.808630 0.655500 -0.545766
O13   O     O_R   0.671770 0.863320 0.325740 -0.523192
O14   O     O_R   0.328230 0.136680 0.674260 -0.534516
O15   O     O_R   0.828230 0.363320 0.174260 -0.529967
O16   O     O_R   0.171770 0.636680 0.825740 -0.542362
C5    C     C_R   0.636429 0.523564 0.133051 0.853982
C6    C     C_R   0.363212 0.475922 0.867672 0.823569
C7    C     C_R   0.862781 0.021305 0.367543 0.838970
C8    C     C_R   0.136091 0.978974 0.633404 0.856738
H1    H     H_    0.118110 0.942073 0.220074 0.134605
H2    H     H_    0.879893 0.113517 0.773851 0.133492
H3    H     H_    0.373662 0.592378 0.268762 0.134388
H4    H     H_    0.618783 0.608682 0.724459 0.133834
O17   O     O_3   0.752910 0.528800 0.305860 -0.385309
O18   O     O_3   0.247090 0.471200 0.694140 -0.380921
O19   O     O_3   0.747090 0.028800 0.194140 -0.381545
O20   O     O_3   0.252910 0.971200 0.805860 -0.379682
V1    V     V_3+5 0.749460 0.803010 0.239640 1.425496
V2    V     V_3+5 0.250540 0.196990 0.760360 1.422922
V3    V     V_3+5 0.750540 0.303010 0.260360 1.397633
V4    V     V_3+5 0.249460 0.696990 0.739640 1.412595
C9    C     C_1   0.469409 0.994397 0.530786 -0.006221
C10   C     C_1   0.530732 0.005184 0.469343 -0.006813
C11   C     C_1   0.031260 0.494335 0.970017 -0.015707
C12   C     C_1   0.969535 0.504774 0.030948 -0.013801
H5    H     H_    0.769150 0.041481 0.668411 0.129461
H6    H     H_    0.228126 0.938180 0.329629 0.129182
H7    H     H_    0.730491 0.542173 0.830962 0.129683
H8    H     H_    0.273057 0.451612 0.171798 0.134381
C13   C     C_R   0.027626 0.993179 0.313034 0.270767
C14   C     C_R   0.970637 0.057000 0.683368 0.258688
C15   C     C_R   0.468084 0.558870 0.180446 0.261288
C16   C     C_R   0.528801 0.549123 0.815578 0.259256
C17   C     C_R   0.104804 0.952952 0.289018 -0.185462
C18   C     C_R   0.892094 0.078609 0.706343 -0.210404
C19   C     C_R   0.389138 0.550078 0.203381 -0.223187
C20   C     C_R   0.607041 0.574477 0.792460 -0.215242
C21   C     C_R   0.168389 0.949137 0.351940 -0.236404
C22   C     C_R   0.828963 0.042314 0.645920 -0.223078
C23   C     C_R   0.330769 0.473394 0.146308 -0.183524
C24   C     C_R   0.670656 0.541055 0.853388 -0.221333
C25   C     C_R   0.157414 0.987992 0.440642 0.267903
C26   C     C_R   0.842113 0.995346 0.558719 0.265994
C27   C     C_R   0.347954 0.417001 0.060804 0.271131
C28   C     C_R   0.658103 0.494913 0.941253 0.262465
C29   C     C_R   0.078997 0.992217 0.471658 -0.004665
C30   C     C_R   0.920472 0.007121 0.527670 -0.008935
C31   C     C_R   0.422823 0.467975 0.028079 -0.060098
C32   C     C_R   0.579678 0.504632 0.971969 -0.014411
C33   C     C_R   0.012226 0.998085 0.406079 -0.045721
C34   C     C_R   0.987114 0.020598 0.592592 -0.022039
C35   C     C_R   0.487015 0.515099 0.091694 -0.008708
C36   C     C_R   0.512833 0.513060 0.906728 -0.003657
C37   C     C_R   0.066494 0.997544 0.564977 -0.163237
C38   C     C_R   0.932892 0.007285 0.434710 -0.162845
C39   C     C_R   0.434094 0.481198 0.934694 -0.168774
C40   C     C_R   0.566878 0.514643 0.064725 -0.162263
C41   C     C_1   0.417226 0.985695 0.582934 -0.244296
C42   C     C_1   0.582942 0.014028 0.417232 -0.236452
C43   C     C_1   0.083813 0.485895 0.918321 -0.225842
C44   C     C_1   0.917122 0.513665 0.082800 -0.233193
N1    N     N_2   0.225059 0.052249 0.493008 -0.537792
H9    H     H_    0.276388 0.981063 0.480853 0.239939
C45   C     C_3   0.235691 0.249805 0.484523 -0.489394
H10   H     H_    0.289430 0.293559 0.525913 0.197398
H11   H     H_    0.183009 0.324949 0.506976 0.204673
H12   H     H_    0.244098 0.288478 0.414182 0.171223
N2    N     N_2   0.777290 0.915989 0.506916 -0.538080
H13   H     H_    0.722921 0.972158 0.520045 0.237948
C46   C     C_3   0.776145 0.716562 0.512878 -0.480915
H14   H     H_    0.769684 0.671181 0.582736 0.167784
H15   H     H_    0.831968 0.656990 0.489544 0.204030
H16   H     H_    0.724704 0.663150 0.470520 0.198854
N3    N     N_2   0.297033 0.288066 0.013079 -0.510133
H17   H     H_    0.328758 0.178485 0.989908 0.267581
C47   C     C_3   0.223995 0.227380 0.049583 -0.556821
H18   H     H_    0.191202 0.134631 0.001581 0.202826
H19   H     H_    0.184684 0.347086 0.060970 0.200411
H20   H     H_    0.237868 0.149387 0.112827 0.183895
N4    N     N_2   0.723881 0.419264 0.994356 -0.537063
H21   H     H_    0.777208 0.479366 0.981160 0.236733
C48   C     C_3   0.728856 0.220155 0.989387 -0.475045
H22   H     H_    0.736338 0.176935 0.919793 0.165041
H23   H     H_    0.674122 0.156284 0.012853 0.203845
H24   H     H_    0.781216 0.169045 0.032043 0.199981
N5    N     N_2   0.968524 0.050207 0.244827 -0.521826
H25   H     H_    0.955669 0.189184 0.247022 0.255649
C49   C     C_3   0.972382 0.982933 0.154965 -0.505783
H26   H     H_    0.913643 0.005098 0.117412 0.204470
H27   H     H_    0.986476 0.833217 0.156010 0.198434
H28   H     H_    0.018031 0.059951 0.120119 0.172388
N6    N     N_2   0.031645 0.083621 0.752307 -0.521665
H29   H     H_    0.029165 0.213504 0.779234 0.251425
C50   C     C_3   0.036424 0.941405 0.820630 -0.493969
H30   H     H_    0.092147 0.958437 0.864099 0.208260
H31   H     H_    0.036867 0.802924 0.789804 0.196809
H32   H     H_    0.984914 0.951585 0.862623 0.166060
N7    N     N_2   0.526154 0.626252 0.245452 -0.527620
H33   H     H_    0.519589 0.765299 0.256968 0.251391
C51   C     C_3   0.536278 0.518402 0.327071 -0.488300
H34   H     H_    0.593453 0.555139 0.364018 0.208224
H35   H     H_    0.537591 0.368837 0.312051 0.197643
H36   H     H_    0.486965 0.547196 0.370332 0.165584
N8    N     N_2   0.467559 0.568684 0.745967 -0.517613
H37   H     H_    0.468668 0.696331 0.715429 0.252554
C52   C     C_3   0.465322 0.421878 0.681489 -0.489719
H38   H     H_    0.410610 0.436783 0.635857 0.205003
H39   H     H_    0.464812 0.285765 0.715891 0.197196
H40   H     H_    0.517957 0.428439 0.641024 0.165837

loop_
_geom_bond_atom_site_label_1
_geom_bond_atom_site_label_2
_ccdc_geom_bond_type
C26   C30   A    
O1    C5    A    
N5    H25   S    
C23   C27   A    
O3    C7    A    
N4    H21   S    
C48   H22   S    
N1    H9    S    
O7    C3    A    
C18   C22   A    
C32   C36   A    
C14   C34   A    
C50   H31   S    
H6    C21   S    
C27   N3    S    
O4    C8    A    
C34   C37   A    
O3    V1    S    
C29   C37   A    
C51   H34   S    
C30   C38   A    
C35   C40   A    
O8    V4    S    
O11   V3    S    
C52   H40   S    
C1    O15   A    
C2    O16   A    
C51   H35   S    
O5    V1    S    
O2    C6    A    
N6    H29   S    
O19   V1    S    
C1    C44   S    
C11   C43   T    
N3    C47   S    
C14   C18   A    
O11   C7    A    
N5    C49   S    
C4    C41   S    
N6    C50   S    
C7    C38   S    
O13   V1    S    
C15   C35   A    
C48   H23   S    
H3    C19   S    
C8    C37   S    
C16   N8    S    
O4    V2    S    
N1    C45   S    
C31   C35   A    
C30   C34   A    
C46   H15   S    
C25   N1    S    
C50   H32   S    
C47   H18   S    
C45   H11   S    
C21   C25   A    
C15   C19   A    
C5    C40   S    
C46   H14   S    
O6    V2    S    
O20   V2    S    
C33   C38   A    
O5    C1    A    
C9    C10   S    
C47   H19   S    
C2    C43   S    
N2    H13   S    
C13   C17   A    
O8    C4    A    
C51   H36   S    
C14   N6    S    
O9    C5    A    
C49   H27   S    
C16   C36   A    
O14   V2    S    
C52   H38   S    
N8    C52   S    
C13   N5    S    
N2    C46   S    
C31   C39   A    
C13   C33   A    
C6    C39   S    
C11   C12   S    
C48   H24   S    
O1    V3    S    
N7    H33   S    
C22   C26   A    
C46   H16   S    
O2    V4    S    
C15   N7    S    
C9    C41   T    
C3    O13   A    
O7    V3    S    
C3    C42   S    
O10   V2    S    
C45   H12   S    
N8    H37   S    
N4    C48   S    
C25   C29   A    
O17   V3    S    
C27   C31   A    
O18   V4    S    
C28   C32   A    
O10   C6    A    
H2    C18   S    
O15   V3    S    
C50   H30   S    
O12   V4    S    
C47   H20   S    
H4    C20   S    
H8    C23   S    
C36   C39   A    
C17   C21   A    
C10   C42   T    
C49   H28   S    
C19   C23   A    
C32   C40   A    
H1    C17   S    
H5    C22   S    
C52   H39   S    
O6    C2    A    
C45   H10   S    
O16   V4    S    
C28   N4    S    
C29   C33   A    
H7    C24   S    
C16   C20   A    
C24   C28   A    
O12   C8    A    
O9    V1    S    
C12   C44   T    
C4    O14   A    
C49   H26   S    
N3    H17   S    
C26   N2    S    
C20   C24   A    
N7    C51   S    
