data_mof_unit_28292.cif
_audit_creation_date              2012-12-10T17:33:03-0500
_audit_creation_method            fapswitch 2.2
_symmetry_space_group_name_H-M    P1
_symmetry_Int_Tables_number       1
_space_group_crystal_system       triclinic
_cell_length_a                    15.522548
_cell_length_b                    15.48264
_cell_length_c                    17.929041
_cell_angle_alpha                 91.042225
_cell_angle_beta                  109.853071
_cell_angle_gamma                 68.872942
_cell_volume                      3753.61329476

loop_
_atom_site_label
_atom_site_type_symbol
_atom_type_description
_atom_site_fract_x
_atom_site_fract_y
_atom_site_fract_z
_atom_type_partial_charge
C1    C     C_R   0.464522 0.740203 0.532783 0.792133
C2    C     C_R   0.361031 0.679064 0.168347 -0.200161
C3    C     C_R   0.474575 0.525590 0.162839 -0.261811
C4    C     C_R   0.469648 0.553163 0.086554 0.084268
C5    C     C_R   0.407107 0.645833 0.051477 0.179476
C6    C     C_R   0.524434 0.491549 0.044171 0.072695
C7    C     C_R   0.511488 0.522457 0.965252 0.107571
C8    C     C_R   0.450731 0.616450 0.933960 -0.226413
C9    C     C_R   0.399851 0.676596 0.976413 -0.255810
C10   C     C_R   0.592486 0.400476 0.078400 -0.251727
C11   C     C_R   0.641607 0.339604 0.035517 -0.189549
C12   C     C_R   0.535490 0.259391 0.469650 0.852275
C13   C     C_R   0.624820 0.366019 0.956355 0.063694
C14   C     C_R   0.559848 0.458334 0.920368 0.034087
C15   C     C_R   0.672097 0.300766 0.912746 0.483369
C16   C     C_R   0.649709 0.326295 0.831783 -0.316163
C17   C     C_R   0.542772 0.481869 0.839662 -0.277443
C18   C     C_R   0.470096 0.940890 0.647952 -0.172614
C19   C     C_R   0.454297 0.835097 0.548413 0.006914
C20   C     C_R   0.549120 0.139392 0.378288 -0.200471
C21   C     C_R   0.536033 0.058999 0.351528 -0.152409
C22   C     C_R   0.516703 0.002764 0.397972 -0.171948
C23   C     C_R   0.757859 0.447614 0.532883 0.798412
C24   C     C_R   0.516976 0.022404 0.475577 0.057250
C25   C     C_R   0.542200 0.099099 0.506765 0.066529
C26   C     C_R   0.493029 0.968381 0.523059 0.079986
C27   C     C_R   0.494348 0.992214 0.600226 0.167638
C28   C     C_R   0.528007 0.061641 0.632259 -0.330322
C29   C     C_R   0.559539 0.109819 0.589079 0.000638
C30   C     C_R   0.470778 0.889468 0.497762 -0.251427
C31   C     C_R   0.451701 0.861899 0.622632 -0.199135
C32   C     C_R   0.547476 0.162801 0.453862 -0.034884
C33   C     C_R   0.023514 0.390452 0.650326 -0.174948
C34   C     C_R   0.242076 0.552739 0.469494 0.768871
C35   C     C_R   0.861454 0.430027 0.549610 0.013224
C36   C     C_R   0.068460 0.619500 0.377050 -0.185066
C37   C     C_R   0.971441 0.625092 0.351655 -0.155973
C38   C     C_R   0.941168 0.580617 0.398841 -0.157664
C39   C     C_R   0.006964 0.532430 0.475104 0.082699
C40   C     C_R   0.103889 0.533587 0.503446 0.009527
C41   C     C_R   0.979981 0.483116 0.524096 0.021269
C42   C     C_R   0.048132 0.441322 0.602279 0.035449
C43   C     C_R   0.138449 0.453764 0.632570 0.459794
C44   C     C_R   0.165627 0.498339 0.583203 -0.287060
C45   C     C_R   0.560322 0.440771 0.711648 0.818745
C46   C     C_R   0.886834 0.474972 0.498628 -0.225760
C47   C     C_R   0.930267 0.386386 0.624663 -0.197578
C48   C     C_R   0.136374 0.571646 0.451635 -0.042668
C49   C     C_R   0.441262 0.559369 0.287814 0.795585
C50   C     C_R   0.423157 0.588245 0.204470 -0.023474
C51   C     C_R   0.586570 0.416369 0.796286 -0.040358
C52   C     C_R   0.352761 0.707531 0.092190 -0.210430
H1    H     H_    0.353581 0.747837 0.949763 0.147243
H2    H     H_    0.440763 0.818727 0.662723 0.131162
H3    H     H_    0.537053 0.073275 0.693891 0.145222
H4    H     H_    0.471199 0.958610 0.706953 0.140182
H5    H     H_    0.473470 0.863723 0.442077 0.125139
H6    H     H_    0.555324 0.185970 0.337764 0.159208
H7    H     H_    0.501592 0.944746 0.370846 0.128708
H8    H     H_    0.535689 0.042673 0.292466 0.144403
H9    H     H_    0.910109 0.352625 0.664836 0.141366
H10   H     H_    0.492040 0.548947 0.807104 0.128394
H11   H     H_    0.074673 0.356990 0.709396 0.169292
H12   H     H_    0.830141 0.507213 0.441598 0.122962
H13   H     H_    0.091273 0.649962 0.336846 0.159739
H14   H     H_    0.865432 0.586440 0.373984 0.126244
H15   H     H_    0.919931 0.661717 0.293642 0.144036
H16   H     H_    0.235048 0.507414 0.609795 0.183738
H17   H     H_    0.680733 0.275834 0.796136 0.142768
H18   H     H_    0.692418 0.270513 0.064928 0.190426
H19   H     H_    0.304911 0.778412 0.065522 0.138240
H20   H     H_    0.320610 0.728666 0.199589 0.163633
H21   H     H_    0.517873 0.455597 0.191852 0.158153
H22   H     H_    0.441307 0.646753 0.876816 0.146057
H23   H     H_    0.611119 0.373492 0.139053 0.150383
O1    O     O_3   0.500000 0.500000 0.500000 -0.482605
O2    O     O_R   0.707110 0.418540 0.472990 -0.630539
O3    O     O_R   0.267620 0.606720 0.435250 -0.646818
O4    O     O_R   0.540230 0.674660 0.578090 -0.635759
O5    O     O_R   0.485030 0.300080 0.513670 -0.644656
O6    O     O_R   0.403610 0.721990 0.472930 -0.642249
O7    O     O_R   0.571130 0.303270 0.435320 -0.639933
O8    O     O_R   0.717650 0.497270 0.578120 -0.638314
O9    O     O_R   0.307610 0.477470 0.513630 -0.635934
O10   O     O_R   0.596500 0.492780 0.688380 -0.644604
O11   O     O_R   0.388780 0.611210 0.325000 -0.648977
O12   O     O_R   0.499860 0.410860 0.661600 -0.637773
O13   O     O_R   0.514860 0.485140 0.325020 -0.649636
Zn1   Zn    Zn3+2 0.572030 0.427990 0.434470 0.984745
Zn2   Zn    Zn3+2 0.587090 0.540470 0.584680 0.979407
Zn3   Zn    Zn3+2 0.449010 0.423430 0.546420 0.983344
Zn4   Zn    Zn3+2 0.391880 0.608100 0.434430 0.960588
O14   O     O_3   0.730407 0.209534 0.947712 -0.659353
C53   C     C_3   0.824278 0.179029 0.939729 0.062965
H24   H     H_    0.881448 0.156692 0.000662 0.160986
H25   H     H_    0.838830 0.233906 0.912117 0.126333
C54   C     C_3   0.836967 0.094907 0.892415 -0.320585
H26   H     H_    0.829924 0.038088 0.923987 0.229469
H27   H     H_    0.778054 0.114482 0.832265 0.220371
C55   C     C_3   0.937580 0.058980 0.882931 -0.945537
H28   H     H_    0.945271 0.114036 0.849778 0.268074
H29   H     H_    0.944595 0.997742 0.848887 0.271249
H30   H     H_    0.997890 0.037340 0.942386 0.257510
C56   C     C_2   0.621667 0.159915 0.636128 0.422054
H31   H     H_    0.611532 0.187145 0.690051 0.053842
O15   O     O_2   0.688133 0.166654 0.617856 -0.602428
O16   O     O_3   0.204411 0.417735 0.709543 -0.640116
C57   C     C_3   0.178074 0.480170 0.764038 0.068185
H32   H     H_    0.204947 0.438237 0.822729 0.172945
H33   H     H_    0.096464 0.516758 0.747407 0.124306
C58   C     C_3   0.227699 0.551370 0.774062 -0.364219
H34   H     H_    0.308813 0.514397 0.790061 0.241523
H35   H     H_    0.198131 0.597222 0.717043 0.206023
C59   C     C_3   0.208142 0.612357 0.838881 -0.929936
H36   H     H_    0.127409 0.646695 0.826000 0.261609
H37   H     H_    0.238534 0.667445 0.840545 0.266439
H38   H     H_    0.244266 0.569715 0.898182 0.272470

loop_
_geom_bond_atom_site_label_1
_geom_bond_atom_site_label_2
_ccdc_geom_bond_type
O14   C53   S    
O12   Zn3   S    
C41   C42   A    
C58   H34   S    
C14   C17   A    
C16   C51   A    
C35   C47   A    
C17   C51   A    
C56   O15   D    
C54   H26   S    
C11   H18   S    
C7    C8    A    
C39   C41   A    
O2    Zn1   S    
C26   C27   A    
C19   C30   A    
O7    Zn1   S    
C23   O8    A    
C33   C42   A    
C36   C37   A    
C45   O12   A    
C24   C26   A    
C38   C39   A    
C45   C51   S    
C1    O6    A    
C15   C16   A    
C30   H5    S    
C12   O5    A    
C57   H32   S    
O4    Zn2   S    
C2    C50   A    
O6    Zn4   S    
C28   H3    S    
C7    C14   A    
C38   H14   S    
C8    C9    A    
C41   C46   A    
C5    C52   A    
O9    Zn3   S    
C18   H4    S    
O1    Zn1   S    
O13   Zn1   S    
C25   C32   A    
C19   C31   A    
C21   C22   A    
C12   C32   S    
C49   O13   A    
C34   O9    A    
C2    H20   S    
C55   H29   S    
C56   H31   S    
C54   H27   S    
C3    C50   A    
C59   H36   S    
C25   C29   A    
C33   H11   S    
C1    C19   S    
C18   C27   A    
C47   H9    S    
C24   C25   A    
C21   H8    S    
C4    C6    A    
C39   C40   A    
C36   H13   S    
C53   C54   S    
O3    Zn4   S    
C55   H30   S    
C29   C56   S    
C46   H12   S    
C45   O10   A    
C43   C44   A    
C5    C9    A    
C37   C38   A    
C17   H10   S    
C10   H23   S    
O16   C57   S    
C8    H22   S    
C12   O7    A    
C58   H35   S    
C43   O16   S    
C23   O2    A    
C53   H25   S    
C2    C52   A    
O1    Zn4   S    
C26   C30   A    
C23   C35   S    
C13   C15   A    
C33   C47   A    
C22   C24   A    
C44   H16   S    
C34   C48   S    
C15   O14   S    
C20   H6    S    
C3    C4    A    
C22   H7    S    
C54   C55   S    
C20   C32   A    
C40   C48   A    
O8    Zn2   S    
C28   C29   A    
C49   O11   A    
C16   H17   S    
C4    C5    A    
C6    C10   A    
C59   H37   S    
O10   Zn2   S    
C6    C7    A    
C57   C58   S    
O5    Zn3   S    
C52   H19   S    
O11   Zn4   S    
C34   O3    A    
C11   C13   A    
C1    O4    A    
C37   H15   S    
C55   H28   S    
C57   H33   S    
C36   C48   A    
C58   C59   S    
C31   H2    S    
C53   H24   S    
C3    H21   S    
C59   H38   S    
C10   C11   A    
O1    Zn3   S    
C40   C44   A    
C9    H1    S    
C20   C21   A    
C49   C50   S    
C42   C43   A    
C27   C28   A    
C18   C31   A    
C13   C14   A    
C35   C46   A    
O1    Zn2   S    
