data_mof_unit_14796.cif
_audit_creation_date              2013-03-05T16:11:33-0500
_audit_creation_method            fapswitch 2.2
_symmetry_space_group_name_H-M    P1
_symmetry_Int_Tables_number       1
_space_group_crystal_system       triclinic
_cell_length_a                    10.693995
_cell_length_b                    10.014826
_cell_length_c                    15.742385
_cell_angle_alpha                 88.670421
_cell_angle_beta                  95.371042
_cell_angle_gamma                 89.98126
_cell_volume                      1678.1260944

loop_
_atom_site_label
_atom_site_type_symbol
_atom_site_description
_atom_site_fract_x
_atom_site_fract_y
_atom_site_fract_z
_atom_type_partial_charge
O1    O     O_R   0.316750 0.614620 0.499990 -0.573314
O2    O     O_R   0.316750 0.385380 0.499990 -0.560097
C1    C     C_R   0.260691 0.500039 0.502253 0.932316
O3    O     O_R   0.499990 0.614720 0.377140 -0.541473
O4    O     O_R   0.499990 0.385280 0.377140 -0.564346
C2    C     C_R   0.501006 0.501534 0.338553 0.977091
Zn1   Zn    Zn3+2 0.499980 0.653120 0.500000 1.020555
Zn2   Zn    Zn3+2 0.499980 0.346880 0.500000 1.015930
O5    O     O_R   0.683220 0.614710 0.500000 -0.634427
O6    O     O_R   0.683220 0.385290 0.500000 -0.631442
O7    O     O_R   0.499980 0.614620 0.622860 -0.618629
O8    O     O_R   0.499980 0.385380 0.622860 -0.622820
C3    C     C_R   0.739635 0.499952 0.500877 0.827022
C4    C     C_R   0.501576 0.498466 0.661449 0.866376
C5    C     C_3   0.444643 0.644534 0.038085 0.534216
C6    C     C_3   0.412003 0.370898 0.044682 0.523047
C7    C     C_3   0.404813 0.386665 0.945004 -0.482352
C8    C     C_3   0.447410 0.633331 0.939633 -0.443914
H1    H     H_    0.352576 0.649688 0.905431 0.222164
H2    H     H_    0.309214 0.415671 0.917421 0.239736
H3    H     H_    0.424303 0.290290 0.914735 0.158814
H4    H     H_    0.507305 0.712076 0.913227 0.166608
C9    C     C_1   0.502264 0.494562 0.750401 -0.162485
C10   C     C_3   0.487952 0.500577 0.081526 0.078427
C11   C     C_3   0.496944 0.495375 0.916812 0.167808
C12   C     C_3   0.630689 0.473919 0.962210 -0.385740
C13   C     C_3   0.627380 0.479246 0.059909 -0.546326
C14   C     C_1   0.501320 0.492717 0.825659 -0.046198
C15   C     C_1   0.489967 0.504859 0.173434 0.019640
C16   C     C_1   0.495071 0.505067 0.249154 -0.099226
H5    H     H_    0.693645 0.554579 0.087889 0.191630
H6    H     H_    0.672659 0.388901 0.090140 0.217811
H7    H     H_    0.695281 0.552556 0.941080 0.195450
H8    H     H_    0.668742 0.375927 0.944704 0.194748
C17   C     C_R   0.067709 0.383288 0.526854 -0.134239
C18   C     C_R   0.061502 0.618520 0.483104 -0.158577
H9    H     H_    0.119274 0.292626 0.545684 0.188057
H10   H     H_    0.107611 0.710380 0.466567 0.214964
C19   C     C_R   0.939341 0.382844 0.525723 -0.164774
C20   C     C_R   0.933392 0.618172 0.481917 -0.182556
H11   H     H_    0.892815 0.291574 0.543337 0.162376
H12   H     H_    0.882314 0.709571 0.464033 0.176824
C21   C     C_R   0.872565 0.500109 0.502603 -0.019378
C22   C     C_R   0.128212 0.500595 0.504256 -0.064057
C23   C     C_R   0.581875 0.068992 0.553982 -0.163671
C24   C     C_R   0.581072 0.927030 0.554537 -0.159390
H13   H     H_    0.648407 0.120023 0.597919 0.159862
H14   H     H_    0.647064 0.872762 0.598863 0.164290
N1    N     N_R   0.499970 0.857200 0.499980 -0.152989
N2    N     N_R   0.499970 0.142800 0.499980 -0.152724
C25   C     C_R   0.415775 0.928746 0.442699 0.327302
C26   C     C_R   0.414372 0.075331 0.443510 0.332281
S1    S     S_3+6 0.314401 0.846037 0.358708 0.111680
O9    O     O_2   0.183774 0.901973 0.355966 -0.244988
O10   O     O_2   0.369382 0.880069 0.276461 -0.238198
O11   O     O_3   0.286341 0.682171 0.354419 -0.523956
H15   H     H_    0.214612 0.671082 0.310561 0.392887
S2    S     S_3+6 0.287932 0.163343 0.376414 0.107573
O12   O     O_2   0.275375 0.107949 0.288533 -0.164285
O13   O     O_2   0.169304 0.135037 0.417810 -0.307689
O14   O     O_3   0.284608 0.327156 0.353687 -0.513524
H16   H     H_    0.199167 0.346009 0.325965 0.390753
S3    S     S_3+6 0.286613 0.700075 0.058817 0.059656
O15   O     O_2   0.272879 0.694482 0.152800 -0.221468
O16   O     O_2   0.260477 0.840567 0.026520 -0.313850
O17   O     O_3   0.174391 0.608993 0.006669 -0.503918
H17   H     H_    0.094756 0.639958 0.027206 0.397570
S4    S     S_3+6 0.253214 0.341853 0.079548 0.060533
O18   O     O_2   0.225972 0.432635 0.150009 -0.212126
O19   O     O_2   0.151876 0.358650 0.007131 -0.293996
O20   O     O_3   0.238014 0.184486 0.117471 -0.473428
H18   H     H_    0.205798 0.131448 0.067776 0.384107
C27   C     C_3   0.483726 0.235240 0.068892 -0.456435
C28   C     C_3   0.517474 0.205829 0.165028 -0.688809
H19   H     H_    0.440463 0.233589 0.203525 0.330558
H20   H     H_    0.537479 0.098147 0.176840 0.250712
H21   H     H_    0.603357 0.259459 0.189689 0.213199
H22   H     H_    0.424126 0.153066 0.042452 0.226911
H23   H     H_    0.569434 0.223509 0.035226 0.187665
C29   C     C_3   0.542902 0.755247 0.070609 -0.424810
C30   C     C_3   0.511345 0.900629 0.047628 -0.769793
H24   H     H_    0.472066 0.913663 0.980172 0.260742
H25   H     H_    0.445433 0.938045 0.091815 0.322734
H26   H     H_    0.598116 0.961676 0.056702 0.225888
H27   H     H_    0.562868 0.747913 0.141079 0.224245
H28   H     H_    0.632812 0.740739 0.042305 0.193654

loop_
_geom_bond_atom_site_label_1
_geom_bond_atom_site_label_2
_geom_bond_distance
_ccdc_geom_bond_type
C5    C8    1.559544 S    
S3    O16   1.502062 D    
C27   C28   1.544155 S    
C10   C13   1.575700 S    
C30   H24   1.109576 S    
C19   H11   1.083651 S    
S1    O9    1.501379 D    
C11   C14   1.440956 S    
Zn1   O7    1.963372 S    
C24   N1    1.366650 A    
C12   C13   1.543871 S    
C15   C16   1.188207 T    
C28   H20   1.107438 S    
C17   H9    1.083016 S    
O4    C2    1.301175 A    
O7    C4    1.299143 A    
S2    O13   1.503611 D    
C7    H2    1.108583 S    
O11   H15   0.990902 S    
C8    H1    1.113016 S    
C23   H13   1.081825 S    
O5    C3    1.297017 A    
C10   C15   1.446622 S    
C29   H28   1.107808 S    
C12   H8    1.112632 S    
C20   C21   1.396241 A    
C6    C7    1.568137 S    
N1    C25   1.398143 A    
C28   H21   1.107232 S    
N2    C26   1.400246 A    
C27   H22   1.106035 S    
C6    S4    1.853853 S    
S2    O14   1.670637 S    
C20   H12   1.083703 S    
O17   H17   0.990945 S    
S3    O17   1.672498 S    
C6    C10   1.621785 S    
O1    Zn1   1.997144 S    
C8    C11   1.541655 S    
O3    Zn1   1.980714 S    
C30   H25   1.106715 S    
S1    O10   1.503485 D    
C24   H14   1.081797 S    
C1    C22   1.420046 S    
C28   H19   1.106303 S    
C13   H5    1.105766 S    
C6    C27   1.581106 S    
C18   C20   1.368393 A    
Zn1   N1    2.043818 S    
O3    C2    1.298921 A    
S4    O18   1.499655 D    
C19   C21   1.397342 A    
S2    O12   1.496883 D    
C23   C24   1.421580 A    
C7    H3    1.114389 S    
C25   C26   1.468464 A    
C25   S1    1.841925 S    
C4    C9    1.399276 S    
C17   C19   1.371224 A    
C29   H27   1.110638 S    
C12   H7    1.113195 S    
C5    C29   1.588105 S    
Zn2   O8    1.980920 S    
C27   H23   1.108390 S    
C9    C14   1.185455 T    
C17   C22   1.396262 A    
C26   S2    1.846486 S    
S4    O19   1.504013 D    
C5    C10   1.629485 S    
C2    C16   1.402452 S    
O8    C4    1.296905 A    
C18   C22   1.396890 A    
Zn2   N2    2.043833 S    
C3    C21   1.419276 S    
C30   H26   1.111237 S    
S1    O11   1.670165 S    
Zn1   O5    1.996844 S    
C13   H6    1.102810 S    
C8    H4    1.113540 S    
O2    Zn2   1.996895 S    
C29   C30   1.522167 S    
O6    C3    1.297087 A    
O4    Zn2   1.963210 S    
C7    C11   1.553420 S    
C18   H10   1.081871 S    
O2    C1    1.297949 A    
C11   C12   1.550451 S    
O20   H18   0.990862 S    
C23   N2    1.366485 A    
S4    O20   1.685614 S    
O14   H16   0.991145 S    
S3    O15   1.500172 D    
Zn2   O6    1.997091 S    
C5    S3    1.839285 S    
O1    C1    1.296147 A    
