data_mof_unit_43897.cif
_audit_creation_date              2012-12-10T20:21:39-0500
_audit_creation_method            fapswitch 2.2
_symmetry_space_group_name_H-M    P1
_symmetry_Int_Tables_number       1
_space_group_crystal_system       triclinic
_cell_length_a                    19.391528
_cell_length_b                    18.469315
_cell_length_c                    8.897512
_cell_angle_alpha                 90.000085
_cell_angle_beta                  90.086714
_cell_angle_gamma                 90.000164
_cell_volume                      3186.62460443

loop_
_atom_site_label
_atom_site_type_symbol
_atom_type_description
_atom_site_fract_x
_atom_site_fract_y
_atom_site_fract_z
_atom_type_partial_charge
C1    C     C_R   0.365687 0.500054 0.500324 1.030074
C2    C     C_R   0.634313 0.500055 0.499676 1.030023
C3    C     C_R   0.524999 0.725944 0.621281 0.043606
C4    C     C_R   0.478483 0.273988 0.375618 0.043023
C5    C     C_R   0.475001 0.725944 0.378719 0.043569
C6    C     C_R   0.521516 0.273988 0.624382 0.043027
C7    C     C_R   0.525300 0.802067 0.624680 -0.087749
C8    C     C_R   0.477661 0.197869 0.372719 -0.091013
C9    C     C_R   0.474700 0.802066 0.375319 -0.087746
C10   C     C_R   0.522338 0.197869 0.627281 -0.091011
C11   C     C_R   0.500000 0.841653 0.500000 0.004877
C12   C     C_R   0.500000 0.158343 0.500000 -0.006386
C13   C     C_R   0.438031 0.962040 0.485047 -0.142433
C14   C     C_R   0.561956 0.038095 0.515138 -0.143631
C15   C     C_R   0.561968 0.962041 0.514952 -0.142431
C16   C     C_R   0.438044 0.038095 0.484861 -0.143632
C17   C     C_R   0.500000 0.077017 0.499999 0.109217
C18   C     C_R   0.500000 0.923056 0.500000 0.109941
C19   C     C_R   0.500095 0.500008 0.218485 1.035126
C20   C     C_R   0.499905 0.500008 0.781515 1.035191
C21   C     C_1   0.500024 0.500017 0.065346 -0.169366
C22   C     C_1   0.499974 0.500018 0.934654 -0.169274
C23   C     C_R   0.746855 0.457717 0.604244 0.421443
C24   C     C_R   0.254325 0.545000 0.604722 0.414702
C25   C     C_R   0.253145 0.457718 0.395758 0.421433
C26   C     C_R   0.745677 0.545004 0.395289 0.414717
C27   C     C_R   0.818476 0.459779 0.602981 -0.217010
C28   C     C_R   0.182652 0.546481 0.600555 -0.217520
C29   C     C_R   0.181523 0.459781 0.397021 -0.217015
C30   C     C_R   0.817349 0.546485 0.399457 -0.217512
C31   C     C_R   0.853458 0.503917 0.501842 -0.052763
C32   C     C_R   0.146542 0.503917 0.498166 -0.052760
C33   C     C_R   0.709588 0.500581 0.499309 -0.325598
C34   C     C_R   0.290412 0.500580 0.500694 -0.325607
C35   C     C_R   0.964253 0.570085 0.500461 -0.158718
C36   C     C_R   0.035693 0.438449 0.499552 -0.157623
C37   C     C_R   0.035748 0.570085 0.499558 -0.158722
C38   C     C_R   0.964307 0.438449 0.500453 -0.157624
C39   C     C_R   0.071568 0.504240 0.498953 0.156448
C40   C     C_R   0.928433 0.504240 0.501057 0.156449
H1    H     H_    0.847635 0.427606 0.682540 0.197954
H2    H     H_    0.154327 0.579395 0.680039 0.197848
H3    H     H_    0.152363 0.427609 0.317461 0.197956
H4    H     H_    0.845676 0.579400 0.319979 0.197844
H5    H     H_    0.936901 0.621227 0.501871 0.157229
H6    H     H_    0.062948 0.387242 0.500470 0.158834
H7    H     H_    0.063100 0.621227 0.498154 0.157227
H8    H     H_    0.937052 0.387242 0.499528 0.158833
H9    H     H_    0.544520 0.695614 0.716356 0.138957
H10   H     H_    0.461850 0.304208 0.277876 0.165363
H11   H     H_    0.455480 0.695613 0.283644 0.138961
H12   H     H_    0.538149 0.304209 0.722125 0.165353
H13   H     H_    0.389495 0.933486 0.474360 0.155875
H14   H     H_    0.610448 0.066708 0.526155 0.157364
H15   H     H_    0.610505 0.933487 0.525639 0.155877
H16   H     H_    0.389551 0.066707 0.473844 0.157364
N1    N     N_R   0.500000 0.689440 0.500000 -0.097711
N2    N     N_R   0.500000 0.310560 0.500000 -0.114567
O1    O     O_R   0.398180 0.560840 0.499960 -0.581511
O2    O     O_R   0.601820 0.439160 0.500040 -0.571525
O3    O     O_R   0.601820 0.560840 0.500040 -0.581514
O4    O     O_R   0.398180 0.439160 0.499960 -0.571516
O5    O     O_R   0.500000 0.560800 0.285330 -0.622155
O6    O     O_R   0.500000 0.439200 0.714670 -0.630548
O7    O     O_R   0.500000 0.560800 0.714670 -0.622101
O8    O     O_R   0.500000 0.439200 0.285330 -0.630507
Zn1   Zn    Zn3+2 0.500000 0.581210 0.500000 1.052696
Zn2   Zn    Zn3+2 0.500000 0.418790 0.500000 1.044982
S1    S     S_3+6 0.706962 0.402662 0.742418 0.036729
O9    O     O_2   0.674232 0.338294 0.667710 -0.299549
O10   O     O_2   0.759233 0.376440 0.854967 -0.276637
O11   O     O_3   0.646541 0.450786 0.832915 -0.586247
H17   H     H_    0.630354 0.418535 0.914538 0.385897
S2    S     S_3+6 0.295745 0.595368 0.748943 0.043542
O12   O     O_2   0.335032 0.657568 0.681761 -0.277219
O13   O     O_2   0.243542 0.624733 0.857922 -0.285772
O14   O     O_3   0.350311 0.540884 0.842098 -0.575228
H18   H     H_    0.363769 0.568686 0.932718 0.390385
S3    S     S_3+6 0.293036 0.402662 0.257585 0.036701
O15   O     O_2   0.325761 0.338291 0.332292 -0.299513
O16   O     O_2   0.240765 0.376444 0.145031 -0.276660
O17   O     O_3   0.353462 0.450782 0.167095 -0.586371
H19   H     H_    0.369629 0.418544 0.085439 0.385920
S4    S     S_3+6 0.704259 0.595383 0.251081 0.043559
O18   O     O_2   0.664973 0.657579 0.318283 -0.277307
O19   O     O_2   0.756463 0.624756 0.142113 -0.285690
O20   O     O_3   0.649694 0.540908 0.157903 -0.575110
H20   H     H_    0.636141 0.568775 0.067424 0.390305
C41   C     C_1   0.549868 0.837972 0.758596 0.189595
N3    N     N_1   0.569520 0.866744 0.865979 -0.151732
C42   C     C_1   0.455222 0.161831 0.237221 0.205109
N4    N     N_1   0.437173 0.132931 0.128668 -0.155130
C43   C     C_1   0.450132 0.837972 0.241403 0.189596
N5    N     N_1   0.430480 0.866743 0.134020 -0.151730
C44   C     C_1   0.544777 0.161831 0.762779 0.205107
N6    N     N_1   0.562826 0.132932 0.871331 -0.155130

loop_
_geom_bond_atom_site_label_1
_geom_bond_atom_site_label_2
_ccdc_geom_bond_type
C15   C18   A    
O8    Zn2   S    
O20   H20   S    
C11   C18   S    
C43   N5    T    
C6    N2    A    
C44   N6    T    
S4    O20   S    
C4    C8    A    
C1    O4    A    
C3    H9    S    
O14   H18   S    
C7    C11   A    
S2    O13   D    
C13   C18   A    
O6    Zn2   S    
C19   C21   S    
S4    O19   D    
C29   C32   A    
C3    C7    A    
C1    O1    A    
C30   C31   A    
C2    O2    A    
C7    C41   S    
C31   C40   S    
C19   O8    A    
C32   C39   S    
S1    O10   D    
C23   S1    S    
O1    Zn1   S    
C19   O5    A    
C27   H1    S    
O7    Zn1   S    
S2    O14   S    
C12   C17   S    
C36   H6    S    
C23   C27   A    
C37   H7    S    
C38   H8    S    
C2    O3    A    
C25   C34   A    
C21   C22   T    
C29   H3    S    
C14   C17   A    
C30   H4    S    
N1    Zn1   S    
C1    C34   S    
C13   H13   S    
C25   C29   A    
O5    Zn1   S    
S2    O12   D    
C27   C31   A    
C20   O7    A    
C28   C32   A    
S4    O18   D    
C42   N4    T    
S3    O16   D    
C16   C17   A    
C23   C33   A    
C24   C34   A    
C4    H10   S    
C15   H15   S    
C20   O6    A    
S1    O11   S    
C16   H16   S    
C5    C9    A    
O3    Zn1   S    
C26   C33   A    
C8    C12   A    
C8    C42   S    
C9    C11   A    
C10   C12   A    
C3    N1    A    
C2    C33   S    
N2    Zn2   S    
C14   H14   S    
C20   C22   S    
C26   C30   A    
C35   H5    S    
C9    C43   S    
C26   S4    S    
C35   C37   A    
C25   S3    S    
C36   C39   A    
C24   C28   A    
O11   H17   S    
C6    C10   A    
S3    O17   S    
O4    Zn2   S    
C5    N1    A    
C36   C38   A    
C35   C40   A    
C37   C39   A    
C38   C40   A    
C24   S2    S    
C10   C44   S    
C28   H2    S    
S1    O9    D    
S3    O15   D    
O2    Zn2   S    
O17   H19   S    
C13   C16   A    
C4    N2    A    
C14   C15   A    
C5    H11   S    
C6    H12   S    
C41   N3    T    
