data_mof_unit_7537.cif
_audit_creation_date              2012-12-10T19:13:31-0500
_audit_creation_method            fapswitch 2.2
_symmetry_space_group_name_H-M    P1
_symmetry_Int_Tables_number       1
_space_group_crystal_system       triclinic
_cell_length_a                    9.686823
_cell_length_b                    10.653432
_cell_length_c                    16.767022
_cell_angle_alpha                 89.732688
_cell_angle_beta                  84.262241
_cell_angle_gamma                 89.994667
_cell_volume                      1721.63368709

loop_
_atom_site_label
_atom_site_type_symbol
_atom_type_description
_atom_site_fract_x
_atom_site_fract_y
_atom_site_fract_z
_atom_type_partial_charge
C1    C     C_R   0.500677 0.742154 0.496643 0.854083
C2    C     C_R   0.537967 0.466127 0.263503 -0.106888
C3    C     C_3   0.404962 0.927540 0.435041 -0.443359
C4    C     C_R   0.479621 0.500554 0.653431 0.927876
C5    C     C_3   0.399192 0.071817 0.438538 0.058046
C6    C     C_3   0.444775 0.922063 0.581653 -0.466039
C7    C     C_3   0.649945 0.928746 0.474257 -0.381937
C8    C     C_3   0.500656 0.877992 0.496753 0.112232
C9    C     C_3   0.499727 0.120511 0.500035 -0.045157
C10   C     C_3   0.455948 0.067759 0.588365 -0.111231
C11   C     C_3   0.648742 0.071498 0.471687 -0.423852
C12   C     C_R   0.342861 0.432434 0.778506 -0.132166
C13   C     C_3   0.907934 0.592447 0.559891 -0.223578
C14   C     C_3   0.070834 0.594672 0.559204 -0.243137
C15   C     C_3   0.916191 0.375794 0.523314 -0.229601
C16   C     C_R   0.500087 0.257403 0.499576 0.924863
C17   C     C_3   0.931351 0.534653 0.421718 -0.239320
C18   C     C_3   0.078675 0.377815 0.523416 -0.206134
C19   C     C_3   0.093905 0.535706 0.421206 -0.240632
C20   C     C_R   0.520611 0.498650 0.347055 0.869610
C21   C     C_R   0.465015 0.484042 0.739758 -0.010046
C22   C     C_R   0.578778 0.506629 0.782615 -0.183314
C23   C     C_R   0.503419 0.501987 0.126061 -0.215384
C24   C     C_R   0.573716 0.470450 0.862113 -0.162489
C25   C     C_R   0.457776 0.405284 0.898472 0.172538
C26   C     C_R   0.340004 0.391497 0.857464 -0.121386
C27   C     C_2   0.645088 0.169855 0.151643 0.910405
C28   C     C_3   0.316045 0.138366 0.310852 -0.781242
C29   C     C_2   0.315028 0.116840 0.626264 0.859074
C30   C     C_3   0.290737 0.682358 0.212368 -0.770064
C31   C     C_2   0.567035 0.103976 0.644030 0.926945
C32   C     C_3   0.818718 0.350841 0.998897 -0.787189
C33   C     C_R   0.490096 0.543935 0.204776 0.208019
C34   C     C_R   0.596554 0.348708 0.243975 -0.273803
C35   C     C_R   0.600057 0.301942 0.166315 -0.026095
C36   C     C_R   0.554524 0.380871 0.106390 0.013203
C37   C     C_2   0.450318 0.368301 0.982842 -0.313264
C38   C     C_2   0.563119 0.344918 0.021433 0.272139
H1    H     H_    0.672153 0.550654 0.754416 0.141171
H2    H     H_    0.498703 0.871324 0.627529 0.201840
H3    H     H_    0.860566 0.569455 0.621363 0.150863
H4    H     H_    0.870480 0.687896 0.545807 0.154859
H5    H     H_    0.109984 0.690902 0.544118 0.157981
H6    H     H_    0.099857 0.573453 0.620362 0.146732
H7    H     H_    0.867174 0.346241 0.583307 0.175592
H8    H     H_    0.107295 0.350138 0.583674 0.170888
H9    H     H_    0.901391 0.467164 0.376034 0.157451
H10   H     H_    0.632271 0.290662 0.291053 0.185950
H11   H     H_    0.894840 0.628549 0.403464 0.147285
H12   H     H_    0.297736 0.889999 0.448085 0.177543
H13   H     H_    0.135131 0.629772 0.402090 0.148972
H14   H     H_    0.139066 0.467640 0.375729 0.157475
H15   H     H_    0.887122 0.303914 0.480089 0.149065
H16   H     H_    0.124570 0.305959 0.480772 0.164535
H17   H     H_    0.246732 0.348071 0.886259 0.128204
H18   H     H_    0.473764 0.564563 0.079542 0.160027
H19   H     H_    0.252127 0.418374 0.746785 0.142939
H20   H     H_    0.351430 0.386187 0.017773 0.143347
H21   H     H_    0.660568 0.493999 0.894735 0.147374
H22   H     H_    0.756324 0.022774 0.186532 0.343291
H23   H     H_    0.443882 0.894126 0.374084 0.164648
H24   H     H_    0.519361 0.090948 0.326775 0.254806
H25   H     H_    0.351456 0.183026 0.252466 0.251952
H26   H     H_    0.234147 0.198775 0.341855 0.238205
H27   H     H_    0.272448 0.044412 0.299480 0.240428
H28   H     H_    0.205149 0.198608 0.720627 0.328701
H29   H     H_    0.462681 0.704558 0.275718 0.201748
H30   H     H_    0.259019 0.780365 0.227223 0.235851
H31   H     H_    0.226472 0.617388 0.252621 0.227891
H32   H     H_    0.271728 0.664377 0.149211 0.246561
H33   H     H_    0.722284 0.051115 0.708950 0.346846
H34   H     H_    0.291688 0.099285 0.460027 0.204093
H35   H     H_    0.685835 0.265847 0.922811 0.249337
H36   H     H_    0.906082 0.306470 0.961289 0.237042
H37   H     H_    0.835928 0.335294 0.062568 0.253376
H38   H     H_    0.819380 0.453179 0.986180 0.225287
H39   H     H_    0.335100 0.889929 0.593466 0.184123
H40   H     H_    0.719955 0.897242 0.519221 0.210648
H41   H     H_    0.692650 0.892213 0.414704 0.166575
H42   H     H_    0.684147 0.105134 0.410207 0.185869
H43   H     H_    0.727260 0.106979 0.510144 0.194587
N1    N     N_3   0.861190 0.500250 0.501720 -0.042183
N2    N     N_3   0.138550 0.503270 0.501080 -0.045124
N3    N     N_2   0.431705 0.126329 0.358796 -0.316684
N4    N     N_2   0.436027 0.666202 0.223034 -0.300410
N5    N     N_2   0.688827 0.295084 0.981152 -0.266282
O1    O     O_R   0.383960 0.685090 0.500020 -0.635041
O2    O     O_R   0.734944 0.113339 0.201409 -0.844447
O3    O     O_2   0.209032 0.097401 0.594326 -0.686576
O4    O     O_R   0.304480 0.176809 0.700650 -0.782956
O5    O     O_2   0.582908 0.214235 0.661071 -0.618643
O6    O     O_R   0.653254 0.013552 0.674148 -0.826677
O7    O     O_R   0.616040 0.685320 0.499960 -0.638384
O8    O     O_R   0.370240 0.499890 0.615830 -0.632543
O9    O     O_R   0.602330 0.500120 0.615770 -0.602709
O10   O     O_R   0.383960 0.314680 0.500040 -0.622284
O11   O     O_R   0.616040 0.314910 0.499980 -0.615438
O12   O     O_R   0.397670 0.499880 0.384230 -0.612806
O13   O     O_R   0.629760 0.500110 0.384170 -0.629514
O14   O     O_2   0.601006 0.109015 0.097960 -0.603451
Zn1   Zn    Zn3+2 0.345040 0.499850 0.500040 0.922042
Zn2   Zn    Zn3+2 0.654960 0.500150 0.499960 0.926423

loop_
_geom_bond_atom_site_label_1
_geom_bond_atom_site_label_2
_ccdc_geom_bond_type
C1    O1    A    
C15   C18   S    
C28   N3    S    
C1    C8    S    
C35   C36   A    
C26   H17   S    
C32   H37   S    
C13   H3    S    
H22   O2    S    
C7    C8    S    
H28   O4    S    
C11   H43   S    
C7    C11   S    
C38   N5    S    
C15   H15   S    
C14   H6    S    
C9    C16   S    
C34   C35   A    
C5    H34   S    
C32   H36   S    
C16   O11   A    
C17   N1    S    
C33   N4    S    
C29   O4    S    
C25   C37   S    
O1    Zn1   S    
C19   H14   S    
H33   O6    S    
O8    Zn1   S    
C23   C33   A    
O11   Zn2   S    
C9    C10   S    
C37   H20   S    
O9    Zn2   S    
C2    C34   A    
C13   C14   S    
C14   N2    S    
C19   N2    S    
C18   H8    S    
C29   O3    D    
C13   H4    S    
C30   H32   S    
C3    H12   S    
C10   C31   S    
C15   N1    S    
C3    H23   S    
C27   O14   D    
H29   N4    S    
C16   O10   A    
C2    C20   S    
C23   H18   S    
C24   C25   A    
C3    C8    S    
C11   H42   S    
C17   H11   S    
C5    N3    S    
C6    H39   S    
C6    C8    S    
C27   C35   S    
C25   C26   A    
C12   C21   A    
C12   C26   A    
C5    C9    S    
C37   C38   D    
C4    O9    A    
C32   N5    S    
C18   N2    S    
N1    Zn2   S    
C30   N4    S    
C9    C11   S    
C7    H40   S    
C4    O8    A    
C12   H19   S    
C28   H26   S    
C2    C33   A    
C23   C36   A    
C31   O5    D    
C6    H2    S    
C34   H10   S    
C15   H7    S    
C30   H31   S    
C7    H41   S    
H24   N3    S    
N2    Zn1   S    
C17   H9    S    
C3    C5    S    
O7    Zn2   S    
C32   H38   S    
O12   Zn1   S    
C21   C22   A    
C36   C38   S    
C28   H27   S    
C4    C21   S    
C10   C29   S    
C20   O13   A    
C24   H21   S    
C22   H1    S    
C13   N1    S    
C17   C19   S    
C22   C24   A    
C27   O2    S    
H35   N5    S    
C6    C10   S    
C18   H16   S    
C28   H25   S    
C19   H13   S    
O13   Zn2   S    
C20   O12   A    
C1    O7    A    
C31   O6    S    
O10   Zn1   S    
C30   H30   S    
C14   H5    S    
