data_mof_unit_54379.cif
_audit_creation_date              2012-10-26T21:06:33-0400
_audit_creation_method            fapswitch 2.2
_symmetry_space_group_name_H-M    P1
_symmetry_Int_Tables_number       1
_space_group_crystal_system       triclinic
_cell_length_a                    15.851461
_cell_length_b                    10.713163
_cell_length_c                    9.637512
_cell_angle_alpha                 89.951832
_cell_angle_beta                  90.076229
_cell_angle_gamma                 91.81778
_cell_volume                      1635.80981945

loop_
_atom_site_label
_atom_site_type_symbol
_atom_type_description
_atom_site_fract_x
_atom_site_fract_y
_atom_site_fract_z
_atom_type_partial_charge
C1    C     C_R   0.500158 0.262839 0.499951 0.538515
C2    C     C_R   0.552036 0.580897 0.074082 0.135343
C3    C     C_R   0.340154 0.499777 0.499865 0.541197
C4    C     C_R   0.659850 0.500162 0.500125 0.544712
C5    C     C_3   0.971108 0.478462 0.630362 -0.136676
C6    C     C_3   0.028918 0.521009 0.369262 -0.139911
C7    C     C_3   0.024764 0.388511 0.543869 0.032284
C8    C     C_3   0.975261 0.610964 0.455750 0.034235
C9    C     C_1   0.250598 0.499528 0.499503 0.073489
C10   C     C_1   0.749411 0.500223 0.500418 0.083601
C11   C     C_3   0.030516 0.588649 0.584370 0.031935
C12   C     C_R   0.499857 0.737160 0.500053 0.537895
C13   C     C_3   0.969502 0.410823 0.415250 0.029120
C14   C     C_3   0.083444 0.498478 0.499549 -0.031344
C15   C     C_3   0.916574 0.500999 0.500076 -0.030309
C16   C     C_1   0.175105 0.499089 0.499226 0.064786
C17   C     C_1   0.824906 0.500498 0.500541 0.071132
C18   C     C_R   0.577197 0.067099 0.479347 -0.016975
C19   C     C_R   0.422831 0.932892 0.520781 -0.009350
C20   C     C_2   0.051325 0.263038 0.593854 0.629539
C21   C     C_2   0.948736 0.736438 0.405707 0.632457
C22   C     C_2   0.933728 0.310908 0.321491 0.618173
C23   C     C_R   0.575082 0.937162 0.480176 -0.098346
C24   C     C_2   0.066298 0.688558 0.678132 0.621673
C25   C     C_3   0.659828 0.138114 0.458129 -0.360017
C26   C     C_3   0.340225 0.861865 0.542232 -0.354154
C27   C     C_2   0.388890 0.332013 0.146647 0.635856
C28   C     C_2   0.608707 0.671365 0.853341 0.636587
C29   C     C_2   0.391011 0.328874 0.853734 0.634117
C30   C     C_2   0.608801 0.671387 0.146268 0.634304
C31   C     C_R   0.424933 0.062832 0.519842 -0.073734
C32   C     C_R   0.498743 0.871055 0.500264 0.070224
C33   C     C_R   0.501274 0.128939 0.499755 0.076247
C34   C     C_R   0.447667 0.419469 0.074105 0.136131
C35   C     C_R   0.551933 0.581086 0.925896 0.135189
C36   C     C_R   0.447830 0.419292 0.925917 0.135420
Cu1   Cu    Cu3+1 0.500000 0.500020 0.640660 1.050562
Cu2   Cu    Cu3+1 0.500000 0.499980 0.359340 1.051813
H1    H     H_    0.946838 0.461128 0.736902 0.187074
H2    H     H_    0.713105 0.074240 0.445202 0.155834
H3    H     H_    0.656224 0.197089 0.363646 0.163548
H4    H     H_    0.326434 0.801119 0.451159 0.158548
H5    H     H_    0.343918 0.802959 0.636756 0.163634
H6    H     H_    0.286951 0.925732 0.555231 0.154816
H7    H     H_    0.271259 0.298580 0.219944 0.346616
H8    H     H_    0.627999 0.847915 0.785025 0.342106
H9    H     H_    0.369892 0.150413 0.793977 0.335274
H10   H     H_    0.629874 0.849893 0.205904 0.335120
H11   H     H_    0.053201 0.538327 0.262727 0.186798
H12   H     H_    0.632785 0.886946 0.465905 0.120163
H13   H     H_    0.367230 0.113045 0.534143 0.120529
H14   H     H_    0.146618 0.148335 0.635326 0.350936
H15   H     H_    0.853477 0.851128 0.363984 0.350839
H16   H     H_    0.858491 0.156607 0.302446 0.345194
H17   H     H_    0.141520 0.842877 0.697168 0.345433
H18   H     H_    0.673551 0.198790 0.549284 0.154179
N1    N     N_R   0.500020 0.500030 0.852070 -0.307337
N2    N     N_R   0.499980 0.499970 0.147930 -0.307126
O1    O     O_R   0.500000 0.319660 0.618740 -0.484895
O2    O     O_R   0.136883 0.235929 0.600131 -0.677449
O3    O     O_2   0.002386 0.814539 0.370562 -0.436975
O4    O     O_R   0.863184 0.763537 0.399215 -0.670676
O5    O     O_2   0.952564 0.310694 0.198586 -0.466539
O6    O     O_R   0.878691 0.218780 0.375444 -0.669689
O7    O     O_2   0.047496 0.688738 0.801050 -0.462464
O8    O     O_R   0.121312 0.780712 0.624167 -0.668854
O9    O     O_2   0.409925 0.225316 0.170532 -0.477291
O10   O     O_R   0.306424 0.367409 0.173590 -0.660309
O11   O     O_2   0.680613 0.642695 0.824582 -0.481494
O12   O     O_R   0.500000 0.680340 0.381260 -0.479303
O13   O     O_R   0.582910 0.793410 0.831689 -0.651799
O14   O     O_2   0.319355 0.357852 0.823357 -0.469697
O15   O     O_R   0.416106 0.206078 0.835877 -0.658165
O16   O     O_2   0.680454 0.642457 0.176728 -0.473020
O17   O     O_R   0.583668 0.794172 0.164071 -0.651910
O18   O     O_R   0.499990 0.319630 0.381170 -0.483742
O19   O     O_R   0.500010 0.680370 0.618830 -0.486085
O20   O     O_R   0.379080 0.500000 0.618760 -0.477454
O21   O     O_R   0.620920 0.500000 0.381240 -0.481012
O22   O     O_R   0.379080 0.499970 0.381190 -0.481806
O23   O     O_R   0.620920 0.500030 0.618810 -0.480703
O24   O     O_2   0.997703 0.184940 0.629114 -0.436565

loop_
_geom_bond_atom_site_label_1
_geom_bond_atom_site_label_2
_ccdc_geom_bond_type
C2    C35   A    
Cu2   O12   S    
C20   O24   D    
C28   O11   D    
C25   H18   S    
C19   C31   A    
C1    C33   S    
Cu2   O18   S    
C29   C36   S    
Cu2   O22   S    
C9    C16   T    
C5    C11   S    
C1    O1    A    
C25   H2    S    
C30   O16   D    
C11   C14   S    
C29   O15   S    
Cu2   O21   S    
C3    O22   A    
C10   C17   T    
C11   C24   S    
C19   C26   S    
C27   O10   S    
H14   O2    S    
C22   O5    D    
Cu2   N2    S    
C7    C14   S    
C4    O23   A    
C28   C35   S    
C31   C33   A    
C20   O2    S    
C21   O3    D    
C24   O8    S    
C29   O14   D    
C12   C32   S    
H10   O17   S    
Cu1   O23   S    
C18   C25   S    
C19   C32   A    
C26   H5    S    
C27   C34   S    
C26   H6    S    
C18   C23   A    
H9    O15   S    
C4    O21   A    
C36   N1    A    
C25   H3    S    
C5    C7    S    
C23   H12   S    
C6    C8    S    
Cu1   O19   S    
Cu1   Cu2   S    
C3    C9    S    
C6    C14   S    
H15   O4    S    
C12   O19   A    
H7    O10   S    
C8    C21   S    
H8    O13   S    
C21   O4    S    
Cu1   O1    S    
C24   O7    D    
C8    C15   S    
C13   C15   S    
C14   C16   S    
C28   O13   S    
C4    C10   S    
H17   O8    S    
C26   H4    S    
C15   C17   S    
C12   O12   A    
C1    O18   A    
C31   H13   S    
C2    N2    A    
Cu1   O20   S    
C2    C30   S    
C35   N1    A    
C23   C32   A    
C5    H1    S    
C6    C13   S    
C30   O17   S    
H16   O6    S    
C8    C11   S    
C13   C22   S    
C34   C36   A    
C6    H11   S    
C18   C33   A    
C5    C15   S    
C27   O9    D    
C22   O6    S    
C7    C13   S    
C7    C20   S    
C34   N2    A    
C3    O20   A    
Cu1   N1    S    
