data_mof_unit_37455.cif
_audit_creation_date              2012-12-11T20:30:35-0500
_audit_creation_method            fapswitch 2.2
_symmetry_space_group_name_H-M    P1
_symmetry_Int_Tables_number       1
_space_group_crystal_system       triclinic
_cell_length_a                    8.196548
_cell_length_b                    17.327819
_cell_length_c                    18.77216
_cell_angle_alpha                 102.518606
_cell_angle_beta                  90.836129
_cell_angle_gamma                 98.944237
_cell_volume                      2567.91582852

loop_
_atom_site_label
_atom_site_type_symbol
_atom_type_description
_atom_site_fract_x
_atom_site_fract_y
_atom_site_fract_z
_atom_type_partial_charge
Ba1   Ba    Ba6+2 0.853800 0.535410 0.467450 1.663414
Ba2   Ba    Ba6+2 0.336030 0.464660 0.532560 1.658152
C1    C     C_3   0.551013 0.758602 0.227323 -0.501574
C2    C     C_R   0.895586 0.422461 0.095325 0.037727
C3    C     C_R   0.731739 0.389753 0.074411 -0.064262
C4    C     C_3   0.126558 0.691497 0.275883 0.377845
C5    C     C_R   0.666042 0.394093 0.007383 -0.074316
C6    C     C_R   0.764780 0.427779 0.956735 0.022007
C7    C     C_R   0.930437 0.461908 0.977961 0.008423
C8    C     C_R   0.699447 0.428321 0.886544 -0.076013
C9    C     C_R   0.802769 0.460290 0.834725 -0.084568
C10   C     C_R   0.968988 0.497893 0.858392 0.005929
C11   C     C_R   0.030565 0.498740 0.930211 -0.004536
C12   C     C_3   0.652613 0.739672 0.288272 0.290753
C13   C     C_R   0.751587 0.454899 0.759970 -0.052213
C14   C     C_R   0.864289 0.485661 0.712741 -0.272984
C15   C     C_R   0.022704 0.527974 0.736402 0.044181
C16   C     C_3   0.111127 0.714010 0.202288 -0.374121
C17   C     C_R   0.075152 0.535017 0.810855 -0.038995
C18   C     C_R   0.157663 0.496844 0.072085 -0.002362
C19   C     C_R   0.217547 0.498928 0.144161 -0.004222
C20   C     C_R   0.113470 0.462817 0.191897 -0.060737
C21   C     C_R   0.957995 0.419906 0.164073 -0.007099
C22   C     C_R   0.232520 0.577051 0.839148 -0.042598
C23   C     C_3   0.458869 0.338830 0.305748 0.276437
C24   C     C_R   0.294435 0.574902 0.908653 0.017916
C25   C     C_R   0.194331 0.535354 0.954331 0.006925
C26   C     C_R   0.258185 0.533495 0.024723 0.017565
C27   C     C_R   0.457868 0.610115 0.932449 -0.093547
C28   C     C_3   0.224367 0.721850 0.644890 0.276665
C29   C     C_R   0.521989 0.606055 0.000784 -0.100553
C30   C     C_R   0.422689 0.568634 0.047794 0.029286
C31   C     C_R   0.380876 0.536747 0.168176 -0.041270
C32   C     C_R   0.484377 0.567701 0.117973 -0.123530
C33   C     C_R   0.433041 0.543757 0.242129 -0.006242
C34   C     C_3   0.410922 0.310976 0.224564 -0.383372
C35   C     C_R   0.323278 0.514050 0.290142 -0.295061
C36   C     C_R   0.166111 0.471870 0.266145 0.050476
C37   C     C_2   0.438986 0.718715 0.483239 -0.247678
C38   C     C_3   0.371727 0.763104 0.431610 -0.045087
C39   C     C_2   0.431811 0.851655 0.450635 -0.097561
C40   C     C_3   0.245793 0.812016 0.680583 -0.175969
C41   C     C_2   0.559441 0.882724 0.500157 0.054569
C42   C     C_2   0.637720 0.828131 0.536541 -0.075574
C43   C     C_1   0.575250 0.751089 0.524487 0.065319
C44   C     C_R   0.788940 0.141527 0.540949 -0.123989
C45   C     C_3   0.044719 0.306799 0.721501 0.398232
C46   C     C_R   0.858818 0.220360 0.542237 0.004497
C47   C     C_R   0.616961 0.237713 0.475308 0.032081
C48   C     C_R   0.546760 0.158396 0.473103 -0.108104
C49   C     C_R   0.631545 0.109712 0.506394 0.023084
C50   C     C_2   0.635785 0.968012 0.513353 -0.045465
C51   C     C_2   0.552680 0.025947 0.502337 -0.102195
C52   C     C_3   0.892666 0.273187 0.326216 0.323825
C53   C     C_R   0.770645 0.269007 0.511593 -0.255696
C54   C     C_3   0.958452 0.214472 0.364713 -0.408628
C55   C     C_3   0.731181 0.649662 0.692322 0.313233
C56   C     C_3   0.031983 0.282610 0.794642 -0.348198
C57   C     C_3   0.751625 0.676952 0.775053 -0.383421
C58   C     C_2   0.777912 0.812536 0.319347 0.592759
C59   C     C_2   0.416694 0.840901 0.715963 0.579105
C60   C     C_3   0.211427 0.862432 0.626522 -0.517099
C61   C     C_2   0.786118 0.225403 0.260534 0.502175
C62   C     C_2   0.521257 0.397018 0.871835 0.491072
C63   C     C_3   0.575073 0.263199 0.703139 0.361909
C64   C     C_3   0.492832 0.176169 0.691006 -0.294436
C65   C     C_R   0.994797 0.460506 0.048363 0.007582
H1    H     H_    0.153648 0.821203 0.723443 0.150700
H2    H     H_    0.772579 0.626636 0.799892 0.049874
H3    H     H_    0.638180 0.699055 0.796890 0.138123
H4    H     H_    0.570248 0.726432 0.331770 0.002382
H5    H     H_    0.488535 0.810680 0.249265 0.093200
H6    H     H_    0.354376 0.363885 0.333815 0.053070
H7    H     H_    0.568959 0.386430 0.313126 0.059335
H8    H     H_    0.294924 0.266731 0.216058 0.160278
H9    H     H_    0.391494 0.362674 0.201341 0.057178
H10   H     H_    0.510498 0.282682 0.195248 0.143574
H11   H     H_    0.455397 0.706884 0.203575 0.126305
H12   H     H_    0.819072 0.310232 0.364294 -0.042894
H13   H     H_    0.151617 0.667643 0.158672 0.075469
H14   H     H_    0.134446 0.363113 0.728256 0.094708
H15   H     H_    0.921599 0.317771 0.704693 -0.133765
H16   H     H_    0.153934 0.271584 0.812916 0.182459
H17   H     H_    0.992100 0.330862 0.836355 0.076209
H18   H     H_    0.940147 0.227101 0.789431 0.112875
H19   H     H_    0.671117 0.275090 0.748198 0.013796
H20   H     H_    0.632554 0.272066 0.651630 -0.036685
H21   H     H_    0.587098 0.136318 0.677661 0.048082
H22   H     H_    0.398571 0.161946 0.644957 0.139311
H23   H     H_    0.855556 0.171888 0.379345 0.036198
H24   H     H_    0.045353 0.633323 0.273592 0.090849
H25   H     H_    0.432129 0.165103 0.741175 0.149104
H26   H     H_    0.652257 0.362457 0.110855 0.079397
H27   H     H_    0.536223 0.370145 0.996573 0.116154
H28   H     H_    0.824574 0.479966 0.656385 0.062867
H29   H     H_    0.879328 0.386653 0.196237 0.129174
H30   H     H_    0.311681 0.610206 0.806913 0.111533
H31   H     H_    0.537326 0.639893 0.897695 0.072264
H32   H     H_    0.648854 0.633264 0.017277 0.076997
H33   H     H_    0.611357 0.594497 0.133899 0.109765
H34   H     H_    0.030998 0.248152 0.415056 0.144707
H35   H     H_    0.256818 0.684146 0.285255 -0.102961
H36   H     H_    0.364213 0.519879 0.346378 0.070289
H37   H     H_    0.421599 0.011077 0.486794 0.079409
H38   H     H_    0.744280 0.852584 0.574284 0.057014
H39   H     H_    0.857876 0.106754 0.567778 0.066621
H40   H     H_    0.765742 0.981495 0.530307 0.092658
H41   H     H_    0.380671 0.887930 0.418422 0.066239
H42   H     H_    0.427559 0.134450 0.444698 0.078626
H43   H     H_    0.384111 0.656738 0.479512 0.075317
H44   H     H_    0.825330 0.330295 0.512758 0.072196
H45   H     H_    0.040719 0.179557 0.328919 0.134049
H46   H     H_    0.981400 0.718658 0.188934 0.144050
H47   H     H_    0.189643 0.772591 0.203496 0.116125
H48   H     H_    0.337920 0.706291 0.618111 -0.047565
H49   H     H_    0.120055 0.705255 0.603769 0.080768
H50   H     H_    0.859960 0.839604 0.283427 -0.010571
H51   H     H_    0.523743 0.841278 0.682725 -0.027063
H52   H     H_    0.286667 0.849701 0.578425 0.118133
H53   H     H_    0.078294 0.848855 0.608895 0.178405
H54   H     H_    0.240944 0.927307 0.652584 0.142056
H55   H     H_    0.681576 0.181340 0.267463 -0.007204
H56   H     H_    0.848859 0.633299 0.670864 -0.004068
H57   H     H_    0.434767 0.437634 0.870001 0.019249
H58   H     H_    0.631649 0.596769 0.678311 0.067344
H59   H     H_    0.631242 0.772368 0.182977 0.126222
H60   H     H_    0.858864 0.726061 0.790440 0.134468
O1    O     O_2   0.871520 0.445720 0.321500 -0.489462
O2    O     O_2   0.200358 0.222403 0.537220 -0.477336
O3    O     O_3   0.099555 0.245525 0.670318 -0.581576
O4    O     O_3   0.121030 0.451930 0.411150 -0.476648
O5    O     O_3   0.581210 0.598010 0.542960 -0.487545
O6    O     O_2   0.335820 0.303580 0.452320 -0.443163
O7    O     O_3   0.494940 0.273473 0.332608 -0.663802
O8    O     O_2   0.409588 0.461354 0.749327 -0.512313
O9    O     O_3   0.455905 0.312899 0.723027 -0.541230
O10   O     O_3   0.662190 0.593100 0.375060 -0.462713
O11   O     O_2   0.759338 0.527109 0.245721 -0.496827
O12   O     O_3   0.690441 0.712935 0.664133 -0.638702
O13   O     O_3   0.028922 0.318685 0.302782 -0.623888
O14   O     O_3   0.737919 0.676249 0.259358 -0.613604
O15   O     O_2   0.853880 0.696450 0.547730 -0.473632
O16   O     O_3   0.085100 0.636210 0.413950 -0.486218
O17   O     O_2   0.042511 0.784304 0.473322 -0.449674
O18   O     O_2   0.790855 0.841410 0.384797 -0.590713
O19   O     O_2   0.436234 0.864315 0.782162 -0.559117
O20   O     O_2   0.817433 0.233788 0.198996 -0.585644
O21   O     O_2   0.469262 0.325920 0.866613 -0.583999
O22   O     O_3   0.078363 0.751381 0.331136 -0.577470
O23   O     O_2   0.318180 0.554310 0.678550 -0.462108
O24   O     O_3   0.068680 0.548140 0.588860 -0.497805
O25   O     O_3   0.527520 0.406960 0.624950 -0.454867
O26   O     O_3   0.192480 0.681150 0.700874 -0.643872
O27   O     O_3   0.608500 0.402060 0.457050 -0.479022
O28   O     O_3   0.104610 0.363860 0.586060 -0.479510
P1    P     P_3+3 0.038810 0.422920 0.331160 0.990158
P2    P     P_3+3 0.678260 0.686080 0.568600 0.985192
P3    P     P_3+3 0.143592 0.736768 0.415533 0.988723
P4    P     P_3+3 0.150900 0.577150 0.668860 0.978593
P5    P     P_3+3 0.067036 0.261537 0.582764 0.984385
P6    P     P_3+3 0.645164 0.586045 0.280402 0.946575
P7    P     P_3+3 0.516968 0.301389 0.427875 0.942115
P8    P     P_3+3 0.540170 0.410289 0.717170 0.954453

loop_
_geom_bond_atom_site_label_1
_geom_bond_atom_site_label_2
_ccdc_geom_bond_type
Ba2   O23   S    
C46   C53   A    
O10   P6    S    
O14   P6    S    
Ba2   O28   S    
C39   H41   S    
C12   H4    S    
C18   C65   A    
Ba1   O1    S    
C36   P1    S    
C41   C42   S    
Ba1   O5    S    
O6    P7    D    
C16   H47   S    
C1    H59   S    
C63   H19   S    
C28   H49   S    
C42   H38   S    
C42   C43   D    
C46   P5    S    
C24   C25   A    
C33   P6    S    
C27   H31   S    
C57   H3    S    
C38   P3    S    
O4    P1    S    
C33   C35   A    
C22   C24   A    
C54   H34   S    
C23   H7    S    
C34   H10   S    
C55   H58   S    
C41   C50   S    
C55   C57   S    
C19   C31   A    
C52   C61   S    
C51   H37   S    
C57   H60   S    
C13   C14   A    
C20   C36   A    
C21   H29   S    
C55   O12   S    
O3    P5    S    
Ba1   Ba2   S    
C45   H15   S    
C7    C11   A    
Ba1   O15   S    
C34   H9    S    
C31   C33   A    
C4    O22   S    
C9    C13   A    
C28   O26   S    
C52   O13   S    
C50   H40   S    
Ba2   P4    S    
C32   H33   S    
Ba1   O24   S    
C29   H32   S    
O22   P3    S    
C40   C60   S    
C60   H53   S    
C37   C43   D    
C54   H23   S    
O28   P5    S    
C12   O14   S    
Ba2   O27   S    
C19   C20   A    
C62   O21   D    
C40   H1    S    
C39   C41   D    
C28   C40   S    
C16   H46   S    
C61   O20   D    
C63   H20   S    
C64   H22   S    
C52   C54   S    
C28   H48   S    
C37   H43   S    
Ba2   O25   S    
C4    C16   S    
C44   C46   A    
Ba2   O6    S    
Ba2   O4    S    
O23   P4    D    
C45   O3    S    
C22   H30   S    
C63   O9    S    
C5    C6    A    
C43   P2    S    
C37   C38   S    
C3    C5    A    
C2    C21   A    
C6    C7    A    
C45   H14   S    
C64   H25   S    
C18   C26   A    
C62   H57   S    
C44   C49   A    
C48   H42   S    
O7    P7    S    
C49   C51   S    
O24   P4    S    
O26   P4    S    
Ba1   P1    S    
C59   O19   D    
C7    C65   A    
C35   C36   A    
Ba1   O16   S    
C34   H8    S    
C56   H17   S    
C55   H56   S    
Ba2   O5    S    
C29   C30   A    
C26   C30   A    
C60   H54   S    
C48   C49   A    
C60   H52   S    
C58   H50   S    
C10   C11   A    
C23   O7    S    
C40   C59   S    
C47   P7    S    
C1    C12   S    
O13   P1    S    
C16   H13   S    
C38   C39   S    
C57   H2    S    
C63   C64   S    
C58   O18   D    
O15   P2    D    
O17   P3    D    
C56   H18   S    
C61   H55   S    
Ba1   O10   S    
C50   C51   D    
O16   P3    S    
C35   H36   S    
C52   H12   S    
C13   P8    S    
Ba2   O24   S    
C5    H27   S    
C14   H28   S    
C53   H44   S    
C59   H51   S    
O8    P8    D    
O27   P7    S    
C8    C62   S    
C2    C3    A    
Ba1   O4    S    
C2    C65   A    
C3    H26   S    
C9    C10   A    
C12   C58   S    
O5    P2    S    
Ba1   P2    S    
C17   C22   A    
C27   C29   A    
C47   C53   A    
C56   H16   S    
C45   C56   S    
C64   H21   S    
C14   C15   A    
C44   H39   S    
C10   C17   A    
C15   C17   A    
C31   C32   A    
C1    H5    S    
O11   P6    D    
C23   H6    S    
C4    H35   S    
Ba1   O27   S    
C15   P4    S    
O25   P8    S    
C8    C9    A    
O1    P1    D    
C23   C34   S    
C18   C19   A    
O12   P2    S    
C24   C27   A    
C6    C8    A    
C47   C48   A    
C25   C26   A    
C20   C21   A    
C11   C25   A    
C1    H11   S    
C54   H45   S    
O2    P5    D    
C4    H24   S    
C30   C32   A    
O9    P8    S    
