data_mof_unit_34683.cif
_audit_creation_date              2012-12-10T18:09:53-0500
_audit_creation_method            fapswitch 2.2
_symmetry_space_group_name_H-M    P1
_symmetry_Int_Tables_number       1
_space_group_crystal_system       triclinic
_cell_length_a                    10.643138
_cell_length_b                    12.658565
_cell_length_c                    13.14264
_cell_angle_alpha                 81.948321
_cell_angle_beta                  91.401538
_cell_angle_gamma                 102.990642
_cell_volume                      1708.29593733

loop_
_atom_site_label
_atom_site_type_symbol
_atom_type_description
_atom_site_fract_x
_atom_site_fract_y
_atom_site_fract_z
_atom_type_partial_charge
C1    C     C_R   0.480761 0.438611 0.690996 0.834143
C2    C     C_R   0.478173 0.446726 0.973047 0.088310
C3    C     C_R   0.441286 0.465818 0.869923 0.045280
C4    C     C_R   0.741776 0.500758 0.501649 0.842677
C5    C     C_R   0.480066 0.529699 0.035296 0.037947
C6    C     C_R   0.434189 0.625245 0.996965 0.125177
C7    C     C_R   0.373819 0.631313 0.900258 0.140754
C8    C     C_R   0.378794 0.551794 0.837912 -0.247133
C9    C     C_R   0.527072 0.520284 0.135146 -0.225724
C10   C     C_R   0.493995 0.697307 0.157696 -0.222005
C11   C     C_R   0.468801 0.398622 0.800533 -0.096300
C12   C     C_3   0.120967 0.500686 0.501123 0.085294
C13   C     C_R   0.329109 0.090588 0.338818 0.364382
C14   C     C_R   0.655194 0.800422 0.628774 0.020764
C15   C     C_R   0.689705 0.905527 0.655215 -0.273404
C16   C     C_R   0.517813 0.561161 0.308796 0.875811
C17   C     C_R   0.632460 0.986932 0.605127 -0.177080
C18   C     C_R   0.540353 0.963519 0.527314 0.079404
C19   C     C_R   0.509516 0.855090 0.502823 0.160508
C20   C     C_R   0.477677 0.042681 0.473431 -0.140878
C21   C     C_R   0.386411 0.011676 0.395895 -0.122684
C22   C     C_R   0.353529 0.902787 0.376214 0.506907
C23   C     C_3   0.063558 0.486643 0.392805 0.423171
C24   C     C_R   0.418484 0.827390 0.427125 -0.358711
C25   C     C_R   0.500644 0.151758 0.494108 -0.168430
C26   C     C_R   0.343860 0.193011 0.372107 0.526926
C27   C     C_R   0.257904 0.499307 0.500618 0.868810
C28   C     C_3   0.904536 0.405250 0.579695 -0.412525
C29   C     C_3   0.049097 0.406377 0.581343 -0.526783
C30   C     C_3   0.920615 0.492209 0.392967 -0.457275
C31   C     C_3   0.958523 0.610907 0.534340 -0.395598
C32   C     C_3   0.878651 0.502498 0.502427 0.119768
C33   C     C_3   0.140725 0.527303 0.224383 -0.366975
C34   C     C_3   0.101382 0.610914 0.531699 -0.351142
C35   C     C_3   0.299658 0.718125 0.862058 -0.442245
C36   C     C_3   0.384509 0.814500 0.795057 -0.829059
C37   C     C_3   0.142048 0.225714 0.348952 -0.306606
C38   C     C_3   0.273710 0.830655 0.231220 -0.215475
C39   C     C_3   0.323433 0.121338 0.163957 -0.290133
C40   C     C_R   0.449873 0.711322 0.057191 -0.229316
C41   C     C_R   0.520080 0.597170 0.198821 -0.051870
C42   C     C_R   0.504755 0.300262 0.836973 -0.191385
C43   C     C_R   0.523557 0.273040 0.941108 -0.172543
C44   C     C_R   0.514747 0.346591 0.008426 -0.195153
H1    H     H_    0.850027 0.325995 0.557523 0.183097
H2    H     H_    0.871642 0.410789 0.658152 0.169881
H3    H     H_    0.332253 0.557170 0.763703 0.163077
H4    H     H_    0.569625 0.182791 0.550028 0.158346
H5    H     H_    0.699317 0.736853 0.667443 0.137675
H6    H     H_    0.662342 0.066825 0.628886 0.128610
H7    H     H_    0.760359 0.923824 0.714594 0.149767
H8    H     H_    0.393323 0.746409 0.407807 0.233310
H9    H     H_    0.088049 0.417543 0.659489 0.183208
H10   H     H_    0.063029 0.325985 0.564823 0.178088
H11   H     H_    0.861399 0.417072 0.366073 0.136046
H12   H     H_    0.150981 0.681289 0.475648 0.239367
H13   H     H_    0.067912 0.403545 0.378781 0.068967
H14   H     H_    0.940646 0.682491 0.481038 0.202951
H15   H     H_    0.930565 0.620060 0.613217 0.170687
H16   H     H_    0.143365 0.623324 0.608791 0.163554
H17   H     H_    0.044078 0.485548 0.198775 0.159050
H18   H     H_    0.207599 0.470696 0.232196 0.216241
H19   H     H_    0.180145 0.596042 0.163583 0.188754
H20   H     H_    0.471990 0.849871 0.837355 0.256547
H21   H     H_    0.413533 0.787006 0.724509 0.274944
H22   H     H_    0.329739 0.878951 0.772124 0.242996
H23   H     H_    0.904529 0.563322 0.338103 0.194537
H24   H     H_    0.215609 0.682524 0.816057 0.199327
H25   H     H_    0.258012 0.747058 0.926720 0.194027
H26   H     H_    0.086002 0.270137 0.292956 0.164010
H27   H     H_    0.120294 0.237228 0.428227 0.152743
H28   H     H_    0.105731 0.137887 0.341408 0.196642
H29   H     H_    0.291849 0.747523 0.248959 0.188526
H30   H     H_    0.357003 0.888330 0.189410 0.126139
H31   H     H_    0.189591 0.825352 0.179163 0.194773
H32   H     H_    0.423349 0.107887 0.163270 0.124566
H33   H     H_    0.325034 0.210159 0.154735 0.199829
H34   H     H_    0.501054 0.761759 0.204869 0.145846
H35   H     H_    0.272972 0.088344 0.096432 0.185935
H36   H     H_    0.425900 0.788612 0.028589 0.145017
H37   H     H_    0.564187 0.450898 0.168076 0.145010
H38   H     H_    0.523742 0.246658 0.784617 0.149903
H39   H     H_    0.535855 0.321358 0.087366 0.120143
H40   H     H_    0.551572 0.197134 0.969211 0.134550
N1    N     N_R   0.433240 0.222190 0.444680 -0.158386
N2    N     N_R   0.566070 0.776970 0.554790 -0.121321
O1    O     O_R   0.468120 0.366740 0.627160 -0.618500
O2    O     O_3   0.274975 0.267370 0.326918 -0.586945
O3    O     O_3   0.242429 0.866612 0.321891 -0.557379
O4    O     O_3   0.254730 0.066369 0.253488 -0.560604
O5    O     O_R   0.510770 0.544830 0.662520 -0.614544
O6    O     O_R   0.663880 0.410950 0.482330 -0.631095
O7    O     O_R   0.706530 0.589040 0.517700 -0.627255
O8    O     O_R   0.489230 0.455170 0.337480 -0.573498
O9    O     O_R   0.531880 0.633260 0.372840 -0.631460
O10   O     O_R   0.293470 0.410960 0.482300 -0.588668
O11   O     O_R   0.336120 0.589050 0.517670 -0.647459
O12   O     O_3   0.133108 0.569211 0.317587 -0.616678
Zn1   Zn    Zn3+2 0.471520 0.381090 0.476390 0.962880
Zn2   Zn    Zn3+2 0.528480 0.618910 0.523610 0.924623

loop_
_geom_bond_atom_site_label_1
_geom_bond_atom_site_label_2
_ccdc_geom_bond_type
C1    O1    A    
C34   H12   S    
C13   O4    S    
C37   O2    S    
C35   C36   S    
C42   H38   S    
C44   H39   S    
C10   H34   S    
C7    C8    A    
C38   O3    S    
C28   H2    S    
C39   H33   S    
C31   H14   S    
C28   C29   S    
C18   C19   A    
C24   H8    S    
C5    C6    A    
C12   C29   S    
C36   H22   S    
C14   H5    S    
C29   H10   S    
O10   Zn1   S    
C35   H24   S    
C11   C42   A    
C10   C40   A    
C33   O12   S    
C31   H15   S    
C2    C44   A    
C33   H18   S    
C1    C11   S    
C40   H36   S    
C15   H7    S    
O5    Zn2   S    
N2    Zn2   S    
C39   O4    S    
C18   C20   A    
C30   H23   S    
C19   N2    A    
C1    O5    A    
C21   C22   A    
C10   C41   A    
C34   H16   S    
C43   H40   S    
C27   O10   A    
O1    Zn1   S    
C38   H31   S    
C28   H1    S    
C12   C27   S    
C23   C30   S    
C28   C32   S    
C14   N2    A    
C3    C8    A    
C16   O8    A    
O9    Zn2   S    
C12   C23   S    
C39   H35   S    
C43   C44   A    
C5    C9    A    
N1    Zn1   S    
C31   C32   S    
C25   H4    S    
C33   H19   S    
C25   N1    A    
C17   C18   A    
C31   C34   S    
C13   C21   A    
C39   H32   S    
O7    Zn2   S    
C4    C32   S    
C23   H13   S    
C33   H17   S    
C37   H27   S    
C22   C24   A    
C13   C26   A    
C2    C5    A    
C42   C43   A    
C12   C34   S    
O11   Zn2   S    
C38   H30   S    
C15   C17   A    
C27   O11   A    
C16   O9    A    
C36   H21   S    
C7    C35   S    
C17   H6    S    
C6    C7    A    
C30   H11   S    
C9    C41   A    
C37   H26   S    
C2    C3    A    
C8    H3    S    
C30   C32   S    
C29   H9    S    
O8    Zn1   S    
C26   N1    A    
C22   O3    S    
C19   C24   A    
C6    C40   A    
C3    C11   A    
C4    O7    A    
C23   O12   S    
C20   C21   A    
C35   H25   S    
C26   O2    S    
C20   C25   A    
C37   H28   S    
C14   C15   A    
C36   H20   S    
C16   C41   S    
O6    Zn1   S    
C9    H37   S    
C4    O6    A    
C38   H29   S    
