data_mof_unit_36228.cif
_audit_creation_date              2013-03-05T15:52:17-0500
_audit_creation_method            fapswitch 2.2
_symmetry_space_group_name_H-M    P1
_symmetry_Int_Tables_number       1
_space_group_crystal_system       triclinic
_cell_length_a                    21.524099
_cell_length_b                    7.304207
_cell_length_c                    14.986438
_cell_angle_alpha                 90.291457
_cell_angle_beta                  72.760906
_cell_angle_gamma                 89.84716
_cell_volume                      2250.21910281

loop_
_atom_site_label
_atom_site_type_symbol
_atom_site_description
_atom_site_fract_x
_atom_site_fract_y
_atom_site_fract_z
_atom_type_partial_charge
O1    O     O_R   0.464160 0.506670 0.130070 -0.558648
O2    O     O_R   0.535840 0.006670 0.869930 -0.560588
O3    O     O_R   0.589710 0.179080 0.006710 -0.597815
O4    O     O_R   0.410290 0.679080 0.993290 -0.594785
C1    C     C_R   0.616239 0.345027 0.000042 1.032096
C2    C     C_R   0.383818 0.845233 0.999607 1.029395
O5    O     O_R   0.467940 0.177220 0.138010 -0.583530
O6    O     O_R   0.532060 0.677220 0.861990 -0.580832
O7    O     O_R   0.413200 0.002810 0.002170 -0.596642
O8    O     O_R   0.586800 0.502810 0.997830 -0.596145
C3    C     C_R   0.456184 0.346660 0.173857 0.910922
C4    C     C_R   0.543874 0.844917 0.826268 0.909982
O9    O     O_3   0.482180 0.337850 0.955280 -0.283787
O10   O     O_3   0.517820 0.837850 0.044720 -0.286619
V1    V     V_3+5 0.503310 0.064600 0.008300 1.230955
V2    V     V_3+5 0.496690 0.564600 0.991700 1.234493
C5    C     C_R   0.573138 0.849395 0.725550 -0.096048
C6    C     C_R   0.427179 0.363802 0.274671 -0.099821
C7    C     C_R   0.931854 0.860742 0.276046 -0.142734
C8    C     C_R   0.068761 0.361159 0.723798 -0.131301
C9    C     C_R   0.563213 0.825350 0.570016 -0.150811
C10   C     C_R   0.432387 0.493054 0.420777 -0.155470
C11   C     C_R   0.534327 0.834842 0.666109 -0.171126
C12   C     C_R   0.463152 0.441287 0.328796 -0.164393
C13   C     C_R   0.640858 0.853486 0.689530 -0.155470
C14   C     C_R   0.360209 0.337804 0.312586 -0.171468
C15   C     C_R   0.671645 0.837928 0.592428 0.129691
C16   C     C_R   0.327119 0.396722 0.404641 0.141879
C17   C     C_R   0.631238 0.826251 0.532814 0.134631
C18   C     C_R   0.364840 0.473533 0.458680 0.137265
C19   C     C_R   0.740835 0.832001 0.552587 -0.008494
C20   C     C_R   0.258124 0.382855 0.444604 -0.013188
C21   C     C_R   0.767949 0.830832 0.453869 0.027415
C22   C     C_R   0.229039 0.431550 0.540026 0.042038
C23   C     C_R   0.725870 0.811460 0.398010 -0.058161
C24   C     C_R   0.268217 0.516219 0.588970 -0.061879
C25   C     C_R   0.658916 0.810414 0.436666 -0.181765
C26   C     C_R   0.334746 0.535418 0.549220 -0.187599
C27   C     C_R   0.783565 0.819822 0.607856 -0.185542
C28   C     C_R   0.217185 0.327453 0.391557 -0.200331
C29   C     C_R   0.851027 0.807669 0.568559 0.451285
C30   C     C_R   0.150395 0.303894 0.431398 0.547203
C31   C     C_R   0.878311 0.817688 0.470561 -0.091311
C32   C     C_R   0.122865 0.325131 0.528848 -0.099854
C33   C     C_R   0.836582 0.839437 0.413433 0.063756
C34   C     C_R   0.161835 0.393668 0.583484 0.053720
C35   C     C_R   0.946188 0.805184 0.427437 0.035027
C36   C     C_R   0.057681 0.275790 0.573665 0.065015
C37   C     C_R   0.972306 0.821896 0.330846 -0.132994
C38   C     C_R   0.031378 0.291550 0.670171 -0.079639
C39   C     C_R   0.864841 0.871101 0.317089 -0.115323
C40   C     C_R   0.132975 0.412925 0.680998 -0.098203
H1    H     H_    0.628581 0.795022 0.390836 0.156352
H2    H     H_    0.362888 0.599894 0.589840 0.153176
H3    H     H_    0.835592 0.906273 0.272608 0.172255
H4    H     H_    0.160131 0.458596 0.726456 0.175402
H5    H     H_    0.024191 0.805787 0.298729 0.172628
H6    H     H_    0.981622 0.249876 0.703192 0.149487
H7    H     H_    0.532367 0.814391 0.524706 0.119601
H8    H     H_    0.461160 0.553653 0.461530 0.120925
H9    H     H_    0.481818 0.829511 0.694201 0.119827
H10   H     H_    0.514750 0.466288 0.298895 0.121081
H11   H     H_    0.667732 0.868085 0.739456 0.149256
H12   H     H_    0.335424 0.276631 0.267165 0.148314
H13   H     H_    0.743837 0.786416 0.324085 0.204843
H14   H     H_    0.248561 0.574523 0.657608 0.197221
H15   H     H_    0.765433 0.811964 0.682581 0.211859
H16   H     H_    0.235859 0.306936 0.317412 0.212196
H17   H     H_    0.979819 0.780053 0.467060 0.219708
H18   H     H_    0.026741 0.219410 0.535517 0.198511
C41   C     C_3   0.235050 0.758393 0.905525 0.800606
C42   C     C_3   0.765378 0.258692 0.092697 0.817959
C43   C     C_3   0.308026 0.777188 0.906790 -0.600722
C44   C     C_3   0.692405 0.276492 0.091569 -0.597739
H19   H     H_    0.337224 0.865630 0.849784 0.196483
H20   H     H_    0.662709 0.363641 0.149570 0.196174
H21   H     H_    0.334796 0.644670 0.892204 0.227939
H22   H     H_    0.666322 0.143498 0.104513 0.229119
H23   H     H_    0.172491 0.618964 0.094025 0.224841
H24   H     H_    0.829160 0.122816 0.901773 0.229311
H25   H     H_    0.283570 0.597602 0.075164 0.118754
H26   H     H_    0.717738 0.099354 0.921358 0.116413
C45   C     C_3   0.195051 0.756626 0.086353 -0.415612
C46   C     C_3   0.805546 0.259600 0.911704 -0.411228
C47   C     C_3   0.215373 0.050731 0.002130 -0.283180
C48   C     C_3   0.784033 0.551593 0.998984 -0.286534
C49   C     C_3   0.188637 0.854482 0.997698 -0.337156
C50   C     C_3   0.811506 0.355637 0.001572 -0.347928
H27   H     H_    0.184309 0.126945 0.063911 0.239392
H28   H     H_    0.814860 0.627707 0.937635 0.244229
H29   H     H_    0.213307 0.122461 0.938338 0.238994
H30   H     H_    0.785755 0.623043 0.063350 0.234608
C51   C     C_3   0.312888 0.854484 0.001147 -0.251619
C52   C     C_3   0.687219 0.354857 0.998163 -0.256980
C53   C     C_3   0.267850 0.742674 0.084957 0.473483
C54   C     C_3   0.732737 0.244735 0.913101 0.481904
C55   C     C_3   0.286434 0.052156 0.006126 -0.236655
C56   C     C_3   0.712903 0.552901 0.995159 -0.232255
H31   H     H_    0.316981 0.132609 0.946273 0.209409
H32   H     H_    0.682162 0.632900 0.055768 0.203177
H33   H     H_    0.289385 0.124181 0.069983 0.220886
H34   H     H_    0.709618 0.625726 0.932027 0.223984
H35   H     H_    0.166071 0.834937 0.148836 0.220075
H36   H     H_    0.833956 0.339760 0.850209 0.208479
O11   O     O_R   0.913210 0.208550 0.002110 -0.515269
O12   O     O_R   0.086790 0.708550 0.997890 -0.518827
O13   O     O_R   0.032060 0.539960 0.861980 -0.530835
O14   O     O_R   0.967940 0.039960 0.138020 -0.542017
C57   C     C_R   0.042156 0.371717 0.825557 0.939038
C58   C     C_R   0.958313 0.872197 0.174445 0.941538
O15   O     O_R   0.910290 0.538020 0.993280 -0.611882
O16   O     O_R   0.089710 0.038020 0.006720 -0.609879
O17   O     O_R   0.964160 0.712340 0.130090 -0.600365
O18   O     O_R   0.035840 0.212340 0.869910 -0.593841
C59   C     C_R   0.883624 0.368802 0.999368 0.965535
C60   C     C_R   0.116413 0.868369 0.000418 0.970552
O19   O     O_3   0.017820 0.379210 0.044690 -0.269164
O20   O     O_3   0.982180 0.879210 0.955310 -0.258127
V3    V     V_3+5 0.996690 0.652500 0.991710 1.302976
V4    V     V_3+5 0.003310 0.152500 0.008290 1.298719
S1    S     S_3+6 0.223920 0.513660 0.896428 -0.085966
O21   O     O_2   0.269582 0.446609 0.805476 -0.324980
O22   O     O_2   0.242149 0.422456 0.974116 -0.403801
O23   O     O_3   0.148597 0.450701 0.900693 -0.507795
H37   H     H_    0.152525 0.320141 0.882027 0.351874
S2    S     S_3+6 0.777597 0.014607 0.099405 -0.082918
O24   O     O_2   0.729867 0.946471 0.187624 -0.339798
O25   O     O_2   0.762831 0.924372 0.018420 -0.406617
O26   O     O_3   0.852263 0.953899 0.100043 -0.502554
H38   H     H_    0.850001 0.820214 0.110223 0.347392
N1    N     N_R   0.224640 0.844513 0.821860 0.193404
O27   O     O_R   0.265266 0.962924 0.771934 -0.416167
O28   O     O_R   0.171433 0.811819 0.800210 -0.406670
N2    N     N_R   0.775105 0.343890 0.177373 0.204817
O29   O     O_R   0.734876 0.465851 0.226388 -0.444062
O30   O     O_R   0.827494 0.307539 0.200598 -0.386743
S3    S     S_3+6 0.275501 0.802068 0.198521 -0.062277
O31   O     O_2   0.253233 0.995068 0.224958 -0.300748
O32   O     O_2   0.233362 0.674841 0.269315 -0.281175
O33   O     O_3   0.352908 0.778224 0.199959 -0.551459
H39   H     H_    0.351311 0.795667 0.266218 0.369828
S4    S     S_3+6 0.724647 0.306716 0.800332 -0.080831
O34   O     O_2   0.747016 0.499439 0.775586 -0.321127
O35   O     O_2   0.766442 0.179298 0.728046 -0.301435
O36   O     O_3   0.647052 0.286071 0.799429 -0.550585
H40   H     H_    0.647964 0.313012 0.734347 0.372661
S5    S     S_3+6 0.899501 0.780507 0.645153 -0.014742
O37   O     O_2   0.948330 0.932505 0.629398 -0.294258
O38   O     O_2   0.858839 0.784172 0.745873 -0.269373
O39   O     O_3   0.939357 0.579615 0.621882 -0.526967
H41   H     H_    0.904756 0.485826 0.633261 0.358335
S6    S     S_3+6 0.103471 0.242195 0.356509 -0.028142
O40   O     O_2   0.141520 0.268037 0.255649 -0.273622
O41   O     O_2   0.085053 0.044353 0.372757 -0.312838
O42   O     O_3   0.035742 0.372004 0.380963 -0.548934
H42   H     H_    0.009409 0.318176 0.343371 0.374418

loop_
_geom_bond_atom_site_label_1
_geom_bond_atom_site_label_2
_geom_bond_distance
_ccdc_geom_bond_type
C45   C49   1.553388 S    
C3    C6    1.458313 S    
S2    O24   1.501807 D    
C41   N1    1.480474 S    
O12   V3    2.011831 S    
C15   C17   1.421981 A    
C21   C33   1.422582 A    
C44   C52   1.549203 S    
S5    O37   1.501587 D    
O1    C3    1.329719 A    
C43   C51   1.552175 S    
H24   C46   1.108893 S    
O2    C4    1.333383 A    
C2    O7    1.320609 A    
O36   H40   0.990465 S    
C47   H29   1.104818 S    
C27   C29   1.398243 A    
C52   C56   1.546076 S    
O5    C3    1.339905 A    
S3    O32   1.502003 D    
C5    C11   1.394004 A    
C45   H35   1.113345 S    
C6    C12   1.395605 A    
C10   C12   1.390668 A    
S5    O38   1.503853 D    
C9    H7    1.084084 S    
C10   H8    1.084157 S    
H25   C53   1.107215 S    
C48   C50   1.552247 S    
C33   C39   1.411304 A    
C34   C40   1.414449 A    
C37   H5    1.082967 S    
C18   C26   1.391493 A    
O15   V3    2.034883 S    
C13   H11   1.077887 S    
O14   V4    2.043885 S    
O20   V3    1.801293 S    
C35   H17   1.079558 S    
S1    O23   1.669407 S    
C8    C38   1.390379 A    
C42   C50   1.600653 S    
O17   V3    2.027444 S    
C46   C54   1.565129 S    
C19   C27   1.411277 A    
C26   H2    1.084638 S    
C4    C5    1.453696 S    
C12   H10   1.083740 S    
C19   C21   1.420372 A    
O11   V4    2.009916 S    
C22   C34   1.427823 A    
C30   S6    1.775385 S    
C39   H3    1.075318 S    
C25   H1    1.084488 S    
C36   C38   1.392176 A    
C51   C53   1.573920 S    
C29   C31   1.413239 A    
S4    O36   1.681382 S    
C30   C32   1.411488 A    
O13   V3    2.034274 S    
C55   H31   1.113582 S    
C32   C34   1.424709 A    
C1    C52   1.521564 S    
C47   C49   1.554477 S    
S3    O33   1.681230 S    
C53   S3    1.808552 S    
H26   C54   1.107541 S    
C15   C19   1.431293 A    
C38   H6    1.083347 S    
C16   C20   1.431283 A    
S5    O39   1.679711 S    
O33   H39   0.990900 S    
C42   C44   1.580780 S    
C48   H28   1.113653 S    
O19   V4    1.797719 S    
O16   V4    2.030703 S    
C47   H27   1.113566 S    
N2    O30   1.301999 A    
S2    O26   1.668795 S    
O3    C1    1.332804 A    
C56   H34   1.108006 S    
C9    C17   1.403904 A    
C42   S2    1.809098 S    
C20   C22   1.423522 A    
O4    V2    2.030623 S    
C7    C39   1.391988 A    
C7    C37   1.392104 A    
C24   H14   1.074750 S    
C42   N2    1.480391 S    
C29   S5    1.776695 S    
S6    O42   1.682529 S    
O6    C4    1.333892 A    
C2    C51   1.521347 S    
C45   C53   1.563903 S    
C6    C14   1.397815 A    
S1    O21   1.503433 D    
O1    V2    2.029611 S    
C52   C54   1.573851 S    
O2    V1    2.024430 S    
C31   C33   1.421758 A    
C58   O17   1.327700 A    
C49   C60   1.546013 S    
C44   H20   1.110039 S    
C57   O18   1.330652 A    
C41   C49   1.602247 S    
O4    C2    1.330283 A    
S6    O41   1.501372 D    
C56   H32   1.113815 S    
C9    C11   1.390416 A    
C28   H16   1.073301 S    
C46   H36   1.113307 S    
S4    O35   1.502221 D    
C13   C15   1.412803 A    
C43   H19   1.109813 S    
N1    O27   1.302053 A    
C48   H30   1.104727 S    
C51   C55   1.543948 S    
O16   C60   1.355598 A    
O3    V1    2.034801 S    
C41   C43   1.582776 S    
O26   H38   0.988178 S    
C7    C58   1.461973 S    
S2    O25   1.493331 D    
C10   C18   1.403278 A    
C23   C25   1.384840 A    
O39   H41   0.990788 S    
C27   H15   1.073047 S    
O11   C59   1.337665 A    
C46   C50   1.554255 S    
C36   H18   1.079198 S    
C28   C30   1.395118 A    
N1    O28   1.301827 A    
N2    O29   1.301979 A    
C14   H12   1.077499 S    
C35   C37   1.395061 A    
S3    O31   1.500712 D    
C14   C16   1.416196 A    
O12   C60   1.337362 A    
C5    C13   1.396765 A    
C50   C59   1.546066 S    
C16   C18   1.420339 A    
O7    V1    2.020843 S    
C1    O8    1.319002 A    
C8    C40   1.394451 A    
C32   C36   1.412822 A    
O8    V2    2.018735 S    
C24   C26   1.386145 A    
H23   C45   1.109393 S    
O13   C57   1.332958 A    
O5    V1    2.034255 S    
C21   C23   1.410672 A    
O14   C58   1.335507 A    
C22   C24   1.412926 A    
C20   C28   1.409297 A    
C48   C56   1.548956 S    
O18   V4    2.032791 S    
S1    O22   1.493474 D    
C47   C55   1.548392 S    
C54   S4    1.809198 S    
C8    C57   1.463035 S    
C41   S1    1.813999 S    
C11   H9    1.083757 S    
S6    O40   1.503680 D    
C43   H21   1.112168 S    
O6    V2    2.043873 S    
C44   H22   1.112093 S    
O9    V2    1.798094 S    
C17   C25   1.390570 A    
O42   H42   0.990665 S    
S4    O34   1.501352 D    
C23   H13   1.074258 S    
O10   V1    1.801668 S    
O15   C59   1.356224 A    
C31   C35   1.414054 A    
C55   H33   1.108023 S    
C40   H4    1.073213 S    
O23   H37   0.988765 S    
