data_mof_unit_50664.cif
_audit_creation_date              2013-03-05T16:01:05-0500
_audit_creation_method            fapswitch 2.2
_symmetry_space_group_name_H-M    P1
_symmetry_Int_Tables_number       1
_space_group_crystal_system       triclinic
_cell_length_a                    8.291597
_cell_length_b                    12.623673
_cell_length_c                    18.717003
_cell_angle_alpha                 99.179769
_cell_angle_beta                  91.493585
_cell_angle_gamma                 98.424949
_cell_volume                      1910.70118355

loop_
_atom_site_label
_atom_site_type_symbol
_atom_site_description
_atom_site_fract_x
_atom_site_fract_y
_atom_site_fract_z
_atom_type_partial_charge
P1    P     P_3+3 0.041040 0.394770 0.336330 0.466904
O1    O     O_2   0.873090 0.425890 0.325140 -0.362584
O2    O     O_3   0.122420 0.434370 0.414380 -0.393349
O3    O     O_3   0.659500 0.627100 0.368810 -0.380833
O4    O     O_2   0.751170 0.526658 0.243145 -0.403782
O5    O     O_3   0.008420 0.252744 0.320733 -0.568609
O6    O     O_3   0.702339 0.721103 0.235223 -0.559457
H1    H     H_    0.795957 0.824396 0.329399 0.162061
C1    C     C_3   0.759443 0.910312 0.239587 -0.883545
H2    H     H_    0.746696 0.990864 0.270628 0.233500
H3    H     H_    0.887342 0.910192 0.224477 0.255989
P2    P     P_3+3 0.672880 0.754030 0.556100 0.443268
P3    P     P_3+3 0.129182 0.826064 0.408222 0.428255
O7    O     O_2   0.848200 0.768190 0.534530 -0.363020
O8    O     O_3   0.081160 0.685950 0.404810 -0.382499
O9    O     O_2   0.002411 0.879816 0.454394 -0.382532
O10   O     O_3   0.692802 0.791767 0.650454 -0.586075
O11   O     O_3   0.094793 0.861354 0.322817 -0.561771
C2    C     C_3   0.167762 0.797480 0.267777 0.427245
H4    H     H_    0.261543 0.754920 0.289179 0.029112
C3    C     C_3   0.247347 0.874430 0.217750 -0.581944
H5    H     H_    0.153745 0.914964 0.194031 0.214766
H6    H     H_    0.335675 0.939704 0.250713 0.228751
C4    C     C_3   0.254633 0.790021 0.624815 0.386832
H7    H     H_    0.387173 0.790065 0.631891 0.101804
H8    H     H_    0.207529 0.744152 0.570919 0.121917
C5    C     C_3   0.222936 0.906336 0.628163 -0.895593
H9    H     H_    0.209798 0.944474 0.684854 0.266778
H10   H     H_    0.324172 0.955011 0.604742 0.225073
H11   H     H_    0.108519 0.907120 0.596859 0.268926
Ba1   Ba    Ba6+2 0.852780 0.548340 0.465070 1.542518
C6    C     C_3   0.933809 0.212366 0.379064 0.398316
H12   H     H_    0.801401 0.206863 0.369664 0.112971
H13   H     H_    0.973421 0.262894 0.432464 0.115850
C7    C     C_3   0.973925 0.098886 0.380646 -0.924725
H14   H     H_    0.997324 0.058755 0.325702 0.275915
H15   H     H_    0.872095 0.048439 0.402572 0.226045
H16   H     H_    0.085189 0.103550 0.415218 0.282708
C8    C     C_3   0.730368 0.705308 0.682590 0.453421
H17   H     H_    0.844250 0.679828 0.661404 0.106059
H18   H     H_    0.629154 0.635836 0.672390 0.120958
C9    C     C_3   0.755045 0.743772 0.763973 -1.038024
H19   H     H_    0.860838 0.810058 0.775680 0.274520
H20   H     H_    0.778261 0.676225 0.792060 0.218359
H21   H     H_    0.643941 0.774483 0.785383 0.264202
P4    P     P_3+3 0.148670 0.605320 0.663680 0.464450
O12   O     O_2   0.316610 0.574140 0.674900 -0.382421
O13   O     O_3   0.067290 0.565720 0.585630 -0.398102
O14   O     O_3   0.530210 0.372990 0.631200 -0.379503
O15   O     O_3   0.178540 0.747234 0.681888 -0.575306
P5    P     P_3+3 0.065430 0.174703 0.597684 0.474627
O16   O     O_3   0.611340 0.366290 0.463630 -0.383108
O17   O     O_3   0.108550 0.314140 0.595200 -0.340681
O18   O     O_2   0.186959 0.121217 0.548148 -0.384641
O19   O     O_3   0.127686 0.153201 0.683725 -0.492989
Ba2   Ba    Ba6+2 0.337060 0.451750 0.534940 1.561600
P6    P     P_3+3 0.634750 0.605098 0.273538 0.417315
C10   C     C_3   0.707128 0.819432 0.283208 0.502777
H22   H     H_    0.681104 0.898064 0.188999 0.267920
O20   O     O_3   0.578370 0.633800 0.536380 -0.401522
C11   C     C_3   0.431314 0.258272 0.312997 0.402723
H23   H     H_    0.348538 0.303472 0.347441 0.113644
H24   H     H_    0.528173 0.317676 0.295244 0.112998
C12   C     C_3   0.330863 0.193617 0.246981 -0.806170
H25   H     H_    0.233633 0.134178 0.264169 0.242500
H26   H     H_    0.273337 0.248741 0.217231 0.240385
H27   H     H_    0.409509 0.148233 0.210406 0.294853
P7    P     P_3+3 0.521189 0.230154 0.441707 0.412912
O21   O     O_2   0.341510 0.231850 0.465510 -0.368545
O22   O     O_3   0.504380 0.185545 0.347963 -0.595202
C13   C     C_3   0.000642 0.167175 0.730696 0.235781
H28   H     H_    0.974415 0.252115 0.736801 0.086094
H29   H     H_    0.889539 0.109419 0.709363 0.013098
C14   C     C_3   0.048101 0.140923 0.805089 0.015329
H30   H     H_    0.067926 0.054540 0.797341 0.117602
P8    P     P_3+3 0.551609 0.385773 0.724740 0.496243
C15   C     C_3   0.552583 0.179795 0.697665 0.513427
H31   H     H_    0.680469 0.208132 0.685209 -0.033496
O23   O     O_2   0.422387 0.453576 0.756736 -0.339759
O24   O     O_3   0.490023 0.257345 0.747229 -0.455277
H32   H     H_    0.474717 0.160777 0.646657 0.129742
H33   H     H_    0.635076 0.092527 0.778791 0.262335
C16   C     C_3   0.550526 0.076734 0.730195 -0.963359
H34   H     H_    0.588335 0.011582 0.689946 0.223932
H35   H     H_    0.426619 0.049400 0.747174 0.294964
C17   C     C_R   0.993217 0.440814 0.046498 -0.010384
C18   C     C_R   0.892018 0.387248 0.093650 -0.063983
C19   C     C_R   0.729611 0.340849 0.069387 0.355507
C20   C     C_R   0.669874 0.352599 0.000709 -0.269167
C21   C     C_R   0.770148 0.404463 0.953744 0.033150
C22   C     C_R   0.932607 0.448159 0.976109 0.014881
C23   C     C_R   0.710883 0.409114 0.883681 -0.180887
C24   C     C_R   0.813557 0.453044 0.833383 -0.057096
C25   C     C_R   0.975760 0.501226 0.856230 0.031452
C26   C     C_R   0.034238 0.498894 0.928005 0.030987
C27   C     C_R   0.760356 0.447341 0.760361 0.141258
C28   C     C_R   0.868823 0.486786 0.711155 -0.514439
C29   C     C_R   0.025309 0.542304 0.733381 0.288052
C30   C     C_R   0.079971 0.550742 0.807465 -0.018938
C31   C     C_R   0.155556 0.486003 0.069265 0.026853
C32   C     C_R   0.214440 0.484978 0.141079 0.031770
C33   C     C_R   0.109431 0.439306 0.190754 -0.087668
C34   C     C_R   0.953134 0.385099 0.164535 -0.054866
H36   H     H_    0.545320 0.317379 0.982874 0.215715
H37   H     H_    0.827513 0.478851 0.654975 0.171375
H38   H     H_    0.585125 0.375045 0.868553 0.221676
H39   H     H_    0.875880 0.344518 0.200220 0.204224
C35   C     C_R   0.236629 0.603997 0.834224 -0.140225
C36   C     C_R   0.297834 0.595729 0.903554 0.135779
C37   C     C_R   0.196420 0.543296 0.950763 0.040500
C38   C     C_R   0.257689 0.535474 0.020822 0.009702
C39   C     C_R   0.461086 0.636789 0.925764 -0.172448
C40   C     C_R   0.523083 0.626044 0.993981 -0.178013
C41   C     C_R   0.421808 0.576814 0.042187 0.105214
C42   C     C_R   0.377299 0.532060 0.163513 0.003759
C43   C     C_R   0.481760 0.570862 0.111870 -0.228982
C44   C     C_R   0.428810 0.541604 0.237342 0.231997
C45   C     C_R   0.320811 0.504567 0.286886 -0.530738
C46   C     C_R   0.163771 0.451531 0.265201 0.235948
H40   H     H_    0.315629 0.648848 0.800869 0.159683
H41   H     H_    0.541726 0.675869 0.889932 0.133145
H42   H     H_    0.649915 0.657853 0.009484 0.138818
H43   H     H_    0.609525 0.599642 0.125383 0.195023
H44   H     H_    0.362166 0.513779 0.343181 0.183676
C47   C     C_R   0.762220 0.184039 0.531743 -0.492572
C48   C     C_R   0.425365 0.809769 0.476250 -0.539449
C49   C     C_R   0.397410 0.987584 0.452573 -0.200861
C50   C     C_R   0.333634 0.879017 0.448943 0.237258
C51   C     C_R   0.576280 0.849716 0.512559 0.286881
C52   C     C_R   0.639969 0.961965 0.520857 -0.062773
C53   C     C_R   0.550276 0.030800 0.488315 -0.077861
C54   C     C_R   0.614974 0.141225 0.492838 0.254459
C55   C     C_R   0.854267 0.117247 0.562133 0.185599
C56   C     C_R   0.791110 0.007336 0.558761 -0.208094
H45   H     H_    0.325878 0.036177 0.426454 0.188316
H46   H     H_    0.861835 0.958935 0.585416 0.176526
H47   H     H_    0.810275 0.269143 0.534706 0.166490
H48   H     H_    0.376505 0.724387 0.470788 0.179453
N1    N     N_3   0.547331 0.832605 0.310135 -0.225062
H49   H     H_    0.556196 0.910142 0.340705 0.083877
H50   H     H_    0.518685 0.779046 0.346261 0.091751
N2    N     N_3   0.333512 0.819487 0.159101 -0.189695
H51   H     H_    0.400534 0.765939 0.179236 0.155610
H52   H     H_    0.248724 0.774659 0.119225 0.143150
N3    N     N_R   0.197993 0.210413 0.836815 0.293312
O25   O     O_R   0.314337 0.167548 0.863738 -0.381857
O26   O     O_R   0.209035 0.315536 0.845480 -0.381258
N4    N     N_3   0.915183 0.153184 0.854076 -0.246319
H53   H     H_    0.949375 0.132220 0.903539 0.150026
H54   H     H_    0.900246 0.234864 0.864378 0.139969
N5    N     N_3   0.041331 0.715897 0.227465 -0.156236
H55   H     H_    0.001048 0.662482 0.262673 0.190987
H56   H     H_    0.093504 0.669363 0.185843 0.052485
N6    N     N_R   0.623610 0.280162 0.112801 0.228177
O27   O     O_R   0.672371 0.200131 0.139053 -0.427779
O28   O     O_R   0.468955 0.288140 0.111978 -0.428663

loop_
_geom_bond_atom_site_label_1
_geom_bond_atom_site_label_2
_geom_bond_distance
_ccdc_geom_bond_type
C11   O22   1.404372 S    
C10   N1    1.452527 S    
O5    C6    1.398163 S    
C18   C19   1.419441 A    
C24   C25   1.417372 A    
C43   H43   1.078040 S    
C5    H10   1.108305 S    
N1    H50   1.038236 S    
C35   H40   1.079275 S    
C14   N3    1.463768 S    
C2    H4    1.108423 S    
C4    C5    1.521032 S    
Ba1   O16   2.814101 S    
C28   C29   1.400062 A    
C8    H18   1.110149 S    
C15   H31   1.111333 S    
C30   C35   1.411673 A    
Ba2   O21   2.877067 S    
C32   C33   1.421668 A    
P3    O11   1.753769 S    
C14   N4    1.461737 S    
C2    C3    1.546107 S    
N4    H54   1.044464 S    
C3    N2    1.462751 S    
O11   C2    1.409926 S    
P1    O2    1.567191 S    
C17   C22   1.419508 A    
P1    C46   1.866206 S    
C15   O24   1.404337 S    
C15   C16   1.520007 S    
C42   C43   1.412385 A    
P1    Ba1   3.404928 S    
C35   C36   1.405962 A    
P7    C54   1.827738 S    
P1    O1    1.519478 D    
O10   C8    1.396183 S    
C11   H24   1.111170 S    
C45   C46   1.392396 A    
C23   C24   1.410175 A    
H1    C10   1.108989 S    
C37   C38   1.417254 A    
P3    C50   1.827457 S    
C48   H48   1.082139 S    
C40   H42   1.083766 S    
C7    H14   1.106730 S    
P7    O21   1.568253 D    
C42   C44   1.416869 A    
O3    P6    1.762185 S    
C2    N5    1.457183 S    
N5    H55   1.042952 S    
P8    O23   1.542038 D    
Ba1   Ba2   4.581548 S    
C17   C31   1.409388 A    
C1    H2    1.108563 S    
O7    Ba1   2.876847 S    
O6    C10   1.406055 S    
N6    O28   1.300799 A    
C11   H23   1.110278 S    
O16   P7    1.750165 S    
C28   H37   1.081952 S    
P4    C29   1.882360 S    
C3    H5    1.110012 S    
C5    H11   1.104114 S    
C52   C56   1.419705 A    
C9    H20   1.107399 S    
C39   C40   1.397994 A    
N3    O26   1.300261 A    
N3    O25   1.300759 A    
C8    C9    1.522030 S    
C4    O15   1.396545 S    
P4    O13   1.567191 S    
P2    C51   1.824367 S    
P1    O5    1.749182 S    
C6    C7    1.521955 S    
C7    H16   1.101861 S    
C4    H7    1.103400 S    
C14   H30   1.113776 S    
C36   C39   1.403602 A    
C8    H17   1.104606 S    
C13   H29   1.109406 S    
C17   C18   1.415261 A    
C56   H46   1.073836 S    
C48   C51   1.394057 A    
C47   H47   1.081853 S    
C6    H13   1.109863 S    
Ba2   O20   2.813462 S    
C6    H12   1.097629 S    
O1    Ba1   2.843382 S    
C1    H22   1.110931 S    
C9    H21   1.110795 S    
C19   N6    1.434666 S    
Ba1   O20   2.922402 S    
P2    O10   1.751112 S    
C11   C12   1.520527 S    
C12   H27   1.108920 S    
O2    Ba2   2.797439 S    
C21   C23   1.401430 A    
C16   H34   1.110150 S    
C15   H32   1.111430 S    
C27   C28   1.401186 A    
O14   P8    1.734380 S    
C25   C26   1.422529 A    
C45   H44   1.082455 S    
N4    H53   1.045945 S    
O2    Ba1   2.930229 S    
C1    H3    1.104797 S    
N6    O27   1.301262 A    
C18   C34   1.413606 A    
C23   H38   1.080183 S    
C16   H35   1.106214 S    
P2    O7    1.511825 D    
H33   C16   1.107460 S    
C24   C27   1.412682 A    
Ba1   O13   2.796788 S    
C3    H6    1.110592 S    
C20   H36   1.084347 S    
C55   C56   1.400272 A    
C32   C42   1.417273 A    
N2    H52   1.045388 S    
C9    H19   1.110893 S    
C53   C54   1.406761 A    
P6    C44   1.839184 S    
C40   C41   1.403897 A    
O17   Ba2   2.766192 S    
C47   C55   1.391381 A    
O13   Ba2   2.931138 S    
P4    O12   1.519801 D    
C1    C10   1.530501 S    
C48   C50   1.386014 A    
C7    H15   1.109391 S    
P8    O24   1.747194 S    
C4    H8    1.110077 S    
C26   C37   1.406078 A    
C13   C14   1.536332 S    
C41   C43   1.400810 A    
N1    H49   1.043504 S    
O8    Ba1   2.765540 S    
O14   Ba2   2.772585 S    
P4    O15   1.748619 S    
O4    P6    1.537831 D    
P5    O18   1.542474 D    
C12   H25   1.108940 S    
P3    O8    1.745671 S    
C52   C53   1.419065 A    
C51   C52   1.420249 A    
C13   H28   1.113823 S    
P2    Ba1   3.424329 S    
C36   C37   1.410047 A    
P8    C27   1.850599 S    
P5    C55   1.856763 S    
C47   C54   1.395589 A    
C21   C22   1.404713 A    
C25   C30   1.426646 A    
C31   C32   1.420719 A    
C38   C41   1.407484 A    
P5    O19   1.752378 S    
N5    H56   1.041700 S    
C33   C34   1.410113 A    
C49   H45   1.074358 S    
C49   C53   1.410118 A    
O3    Ba1   2.773244 S    
C22   C26   1.412927 A    
P2    O20   1.584784 S    
O16   Ba2   2.921492 S    
C39   H41   1.082839 S    
C19   C20   1.403155 A    
C31   C38   1.412442 A    
P7    O22   1.750491 S    
C29   C30   1.430188 A    
P3    O9    1.543190 D    
P4    Ba2   3.405532 S    
C5    H9    1.108121 S    
N2    H51   1.043180 S    
C34   H39   1.074337 S    
P5    O17   1.752387 S    
C20   C21   1.398180 A    
C44   C45   1.392609 A    
O6    P6    1.757376 S    
O19   C13   1.402473 S    
C33   C46   1.430642 A    
C49   C50   1.385140 A    
C12   H26   1.108534 S    
O12   Ba2   2.843734 S    
