data_mof_unit_12356.cif
_audit_creation_date              2012-12-10T17:30:19-0500
_audit_creation_method            fapswitch 2.2
_symmetry_space_group_name_H-M    P1
_symmetry_Int_Tables_number       1
_space_group_crystal_system       triclinic
_cell_length_a                    12.157668
_cell_length_b                    12.875383
_cell_length_c                    14.996447
_cell_angle_alpha                 98.702172
_cell_angle_beta                  86.133694
_cell_angle_gamma                 94.322149
_cell_volume                      2310.09969798

loop_
_atom_site_label
_atom_site_type_symbol
_atom_type_description
_atom_site_fract_x
_atom_site_fract_y
_atom_site_fract_z
_atom_type_partial_charge
C1    C     C_R   0.521807 0.700441 0.495356 0.922014
C2    C     C_R   0.368185 0.151014 0.564691 0.355623
C3    C     C_R   0.439341 0.872577 0.507232 0.471399
C4    C     C_R   0.567192 0.138752 0.529289 0.448339
C5    C     C_R   0.450259 0.981144 0.537549 -0.226536
C6    C     C_R   0.556643 0.032566 0.539316 -0.309352
C7    C     C_R   0.954580 0.434289 0.389560 -0.437859
C8    C     C_R   0.045278 0.559274 0.611641 -0.417995
C9    C     C_R   0.837683 0.431354 0.403611 0.687343
C10   C     C_R   0.161273 0.570084 0.595208 0.663138
C11   C     C_R   0.859477 0.534500 0.548618 0.131287
C12   C     C_R   0.479164 0.302133 0.511321 0.945524
C13   C     C_R   0.140636 0.462496 0.452496 0.111795
C14   C     C_R   0.975689 0.522120 0.541107 -0.008901
C15   C     C_R   0.023980 0.473409 0.459937 -0.000838
C16   C     C_R   0.500722 0.507507 0.673432 0.842721
C17   C     C_R   0.498673 0.486914 0.326418 0.832108
C18   C     C_R   0.474256 0.384821 0.169280 0.062692
C19   C     C_R   0.501601 0.602915 0.831583 0.103839
C20   C     C_R   0.499744 0.479009 0.229238 -0.049243
C21   C     C_R   0.501672 0.509046 0.769468 -0.098698
C22   C     C_R   0.528131 0.573197 0.197422 -0.196404
C23   C     C_R   0.546277 0.689292 0.985013 0.411413
C24   C     C_R   0.498240 0.412057 0.797979 -0.181226
C25   C     C_R   0.525332 0.581655 0.106759 -0.031987
C26   C     C_R   0.492578 0.404594 0.889381 -0.032997
C27   C     C_R   0.501653 0.489932 0.044808 -0.085386
C28   C     C_R   0.505557 0.497386 0.952528 -0.104374
C29   C     C_R   0.471941 0.391286 0.075086 -0.059196
C30   C     C_R   0.519507 0.597614 0.922932 -0.054266
C31   C     C_R   0.547758 0.680968 0.077853 0.416399
C32   C     C_R   0.466600 0.306182 0.917549 0.456242
C33   C     C_3   0.458943 0.275349 0.197534 -0.413175
C34   C     C_R   0.442637 0.301573 0.009873 0.395541
C35   C     C_3   0.490905 0.255022 0.289038 -0.402508
C36   C     C_3   0.489545 0.135863 0.289929 -0.953463
C37   C     C_3   0.446549 0.695719 0.806968 -0.364435
C38   C     C_3   0.509050 0.750298 0.732498 -0.288130
C39   C     C_3   0.534775 0.867876 0.761698 -0.925085
C40   C     C_3   0.487818 0.808854 0.192466 -0.367097
C41   C     C_3   0.541077 0.172502 0.820067 -0.438914
C42   C     C_3   0.540254 0.871595 0.994926 -0.281701
C43   C     C_3   0.408338 0.120989 0.011887 -0.300248
C44   C     C_3   0.714136 0.159035 0.426285 -0.152381
C45   C     C_R   0.470497 0.195313 0.534111 -0.350702
C46   C     C_3   0.259763 0.796527 0.496774 -0.115789
C47   C     C_3   0.179197 0.182096 0.594543 -0.147836
C48   C     C_3   0.764166 0.808357 0.397278 -0.212767
C49   C     C_3   0.758996 0.063822 0.647234 -0.249482
C50   C     C_3   0.278241 0.985575 0.692546 -0.414889
C51   C     C_3   0.187975 0.378921 0.380305 -0.343237
C52   C     C_3   0.127779 0.268667 0.382136 -0.366858
C53   C     C_3   0.202258 0.178840 0.349844 -0.898760
C54   C     C_3   0.811745 0.614735 0.623526 -0.366669
C55   C     C_3   0.871638 0.725526 0.628481 -0.348273
C56   C     C_R   0.534700 0.814792 0.500533 -0.369434
C57   C     C_3   0.809871 0.807406 0.692359 -0.838795
C58   C     C_3   0.181543 0.708902 0.713956 -0.474359
C59   C     C_3   0.814882 0.330052 0.259754 -0.433305
C60   C     C_R   0.650443 0.974202 0.538211 0.478974
C61   C     C_R   0.357993 0.041059 0.565587 0.485523
C62   C     C_R   0.640143 0.866736 0.509680 0.345049
H1    H     H_    0.992240 0.407906 0.323817 0.163534
H2    H     H_    0.370847 0.247872 0.191958 0.256937
H3    H     H_    0.512208 0.224977 0.148916 0.228614
H4    H     H_    0.463836 0.904905 0.801311 0.249287
H5    H     H_    0.608918 0.880764 0.802103 0.296690
H6    H     H_    0.552134 0.907233 0.701086 0.220893
H7    H     H_    0.586803 0.712538 0.709248 0.210516
H8    H     H_    0.456102 0.741410 0.674115 0.213340
H9    H     H_    0.366012 0.662266 0.782683 0.213116
H10   H     H_    0.422283 0.752524 0.866715 0.212164
H11   H     H_    0.502058 0.810447 0.264997 0.206940
H12   H     H_    0.009684 0.581476 0.679107 0.172953
H13   H     H_    0.407019 0.764511 0.177778 0.157238
H14   H     H_    0.480520 0.891764 0.183046 0.175859
H15   H     H_    0.604922 0.230131 0.796234 0.166183
H16   H     H_    0.522180 0.111846 0.761338 0.203588
H17   H     H_    0.576418 0.132788 0.871130 0.164575
H18   H     H_    0.592255 0.911930 0.049411 0.218278
H19   H     H_    0.452960 0.856377 0.019806 0.126380
H20   H     H_    0.538963 0.928411 0.946800 0.153419
H21   H     H_    0.499930 0.121444 0.011155 0.116073
H22   H     H_    0.377303 0.081669 0.946522 0.223361
H23   H     H_    0.552543 0.640881 0.245694 0.170091
H24   H     H_    0.375057 0.072190 0.063770 0.162651
H25   H     H_    0.682611 0.209100 0.381759 0.193799
H26   H     H_    0.695178 0.075121 0.398059 0.121978
H27   H     H_    0.805342 0.173248 0.424465 0.174366
H28   H     H_    0.272104 0.790037 0.568247 0.184895
H29   H     H_    0.233440 0.717289 0.461880 0.158295
H30   H     H_    0.191105 0.847367 0.492781 0.183198
H31   H     H_    0.147869 0.142800 0.653001 0.193674
H32   H     H_    0.166761 0.129344 0.529629 0.164164
H33   H     H_    0.128414 0.250463 0.596609 0.152469
H34   H     H_    0.490595 0.342401 0.747573 0.191686
H35   H     H_    0.784861 0.888519 0.379091 0.156743
H36   H     H_    0.697660 0.766813 0.355139 0.158194
H37   H     H_    0.838881 0.763089 0.381335 0.170645
H38   H     H_    0.722936 0.008307 0.692873 0.121962
H39   H     H_    0.716625 0.138270 0.662417 0.190704
H40   H     H_    0.846730 0.082529 0.663056 0.174848
H41   H     H_    0.304845 0.062620 0.732196 0.229658
H42   H     H_    0.338578 0.926276 0.696319 0.177918
H43   H     H_    0.198362 0.958046 0.724109 0.191115
H44   H     H_    0.230630 0.180368 0.278327 0.267790
H45   H     H_    0.411625 0.095285 0.264212 0.275410
H46   H     H_    0.274051 0.184522 0.392557 0.279105
H47   H     H_    0.155111 0.102384 0.354526 0.251412
H48   H     H_    0.093423 0.260869 0.451204 0.226095
H49   H     H_    0.057521 0.257008 0.337546 0.214590
H50   H     H_    0.185055 0.402699 0.312366 0.173550
H51   H     H_    0.274565 0.372339 0.391680 0.259239
H52   H     H_    0.732074 0.820772 0.663349 0.290882
H53   H     H_    0.791656 0.781145 0.759358 0.265302
H54   H     H_    0.861386 0.882751 0.701714 0.248651
H55   H     H_    0.953786 0.728587 0.654947 0.205004
H56   H     H_    0.560246 0.102465 0.247080 0.256691
H57   H     H_    0.884038 0.749015 0.560281 0.277944
H58   H     H_    0.726086 0.625281 0.610743 0.263912
H59   H     H_    0.812584 0.585675 0.689549 0.184224
H60   H     H_    0.130436 0.681540 0.771169 0.196474
H61   H     H_    0.133256 0.754031 0.674650 0.159276
H62   H     H_    0.246941 0.765866 0.743077 0.191645
H63   H     H_    0.864822 0.267395 0.276401 0.153946
H64   H     H_    0.864203 0.384555 0.219361 0.192201
H65   H     H_    0.748915 0.290329 0.216706 0.199511
H66   H     H_    0.495777 0.118701 0.359131 0.253263
H67   H     H_    0.574248 0.291264 0.302930 0.272186
H68   H     H_    0.430018 0.288579 0.340887 0.223955
N1    N     N_R   0.207800 0.519350 0.516680 -0.168538
N2    N     N_R   0.792200 0.480650 0.483320 -0.149489
O1    O     O_R   0.421700 0.658830 0.504450 -0.598994
O2    O     O_3   0.441941 0.218743 0.854252 -0.589110
O3    O     O_3   0.589167 0.779879 0.950872 -0.581373
O4    O     O_3   0.367781 0.222296 0.034892 -0.600664
O5    O     O_3   0.671792 0.187655 0.516203 -0.554387
O6    O     O_3   0.355203 0.834539 0.449977 -0.611590
O7    O     O_3   0.289962 0.220565 0.604751 -0.576668
O8    O     O_3   0.734818 0.812979 0.490359 -0.580459
O9    O     O_3   0.755192 0.020573 0.554996 -0.551983
O10   O     O_3   0.262766 0.994468 0.601742 -0.636742
O11   O     O_3   0.230948 0.623178 0.659428 -0.586826
O12   O     O_R   0.578300 0.341170 0.495550 -0.563005
O13   O     O_3   0.764920 0.386240 0.338298 -0.595560
O14   O     O_R   0.609310 0.646410 0.493750 -0.594431
O15   O     O_R   0.390690 0.353590 0.506250 -0.606799
O16   O     O_R   0.406180 0.506230 0.637500 -0.542542
O17   O     O_R   0.593820 0.493770 0.362500 -0.560245
O18   O     O_R   0.593800 0.493820 0.626800 -0.658589
O19   O     O_R   0.406200 0.506180 0.373200 -0.650559
O20   O     O_3   0.580348 0.768327 0.139007 -0.607894
Zn1   Zn    Zn3+2 0.374730 0.508290 0.507150 0.973501
Zn2   Zn    Zn3+2 0.625270 0.491710 0.492850 0.984284

loop_
_geom_bond_atom_site_label_1
_geom_bond_atom_site_label_2
_ccdc_geom_bond_type
C25   C31   A    
C38   H8    S    
C42   H18   S    
C44   O5    S    
C54   H58   S    
C27   C29   A    
C43   H21   S    
C39   H6    S    
C35   C36   S    
C42   H20   S    
C11   N2    A    
C33   H3    S    
C57   H53   S    
C36   H66   S    
C26   C28   A    
C59   H64   S    
C26   C32   A    
C48   H35   S    
C58   H61   S    
C51   H51   S    
O1    Zn1   S    
C2    O7    S    
C12   O15   A    
C19   C21   A    
C1    C56   S    
C24   C26   A    
C24   H34   S    
C41   H15   S    
C38   C39   S    
C11   C14   A    
C46   H30   S    
C59   H65   S    
C17   C20   S    
C40   H11   S    
C40   O20   S    
C60   C62   A    
C22   H23   S    
C9    O13   S    
C10   N1    A    
C19   C37   S    
C4    O5    S    
C13   C51   S    
C58   O11   S    
C22   C25   A    
C49   O9    S    
C50   H43   S    
N2    Zn2   S    
C34   O4    S    
C44   H25   S    
C36   H56   S    
C35   H67   S    
C2    C61   A    
C46   O6    S    
C7    C15   A    
C38   H7    S    
C50   H41   S    
C36   H45   S    
C43   H22   S    
C1    O14   A    
C17   O19   A    
C42   H19   S    
C1    O1    A    
C53   H44   S    
C41   O2    S    
C57   H54   S    
C4    C45   A    
C2    C45   A    
C47   H31   S    
C58   H60   S    
C48   O8    S    
C51   C52   S    
C23   C30   A    
C6    C60   A    
N1    Zn1   S    
C4    C6    A    
C49   H40   S    
C3    O6    S    
C55   H57   S    
C46   H29   S    
C52   H49   S    
C29   C34   A    
C40   H14   S    
C42   O3    S    
C32   C34   A    
O17   Zn2   S    
C37   C38   S    
C60   O9    S    
C3    C56   A    
O14   Zn2   S    
C51   H50   S    
C52   H48   S    
C8    H12   S    
C13   N1    A    
C5    C61   A    
C18   C29   A    
C35   H68   S    
C7    H1    S    
C11   C54   S    
C59   O13   S    
C54   H59   S    
C20   C22   A    
C37   H9    S    
C13   C15   A    
C39   H4    S    
C56   C62   A    
C37   H10   S    
C59   H63   S    
O16   Zn1   S    
C41   H16   S    
C52   C53   S    
C55   H55   S    
C9    N2    A    
C53   H47   S    
C7    C9    A    
C48   H37   S    
C54   C55   S    
C8    C14   A    
C43   H24   S    
C39   H5    S    
C17   O17   A    
C12   C45   S    
C3    C5    A    
C41   H17   S    
C16   C21   S    
C57   H52   S    
C46   H28   S    
C25   C27   A    
C48   H36   S    
C58   H62   S    
C40   H13   S    
C23   O3    S    
C16   O16   A    
C55   C57   S    
C49   H38   S    
C32   O2    S    
C31   O20   S    
C53   H46   S    
C5    C6    A    
C33   H2    S    
C28   C30   A    
C33   C35   S    
C47   H32   S    
C18   C20   A    
C10   O11   S    
O19   Zn1   S    
O12   Zn2   S    
C43   O4    S    
O15   Zn1   S    
C18   C33   S    
C44   H27   S    
C12   O12   A    
C61   O10   S    
C8    C10   A    
O18   Zn2   S    
C21   C24   A    
C47   O7    S    
C27   C28   A    
C47   H33   S    
C14   C15   A    
C16   O18   A    
C62   O8    S    
C44   H26   S    
C19   C30   A    
C50   H42   S    
C50   O10   S    
C49   H39   S    
C23   C31   A    
