data_mof_unit_68128.cif
_audit_creation_date              2013-03-05T15:58:27-0500
_audit_creation_method            fapswitch 2.2
_symmetry_space_group_name_H-M    P1
_symmetry_Int_Tables_number       1
_space_group_crystal_system       triclinic
_cell_length_a                    7.351037
_cell_length_b                    15.773432
_cell_length_c                    15.237342
_cell_angle_alpha                 89.997171
_cell_angle_beta                  89.999125
_cell_angle_gamma                 90.002277
_cell_volume                      1766.78629174

loop_
_atom_site_label
_atom_site_type_symbol
_atom_site_description
_atom_site_fract_x
_atom_site_fract_y
_atom_site_fract_z
_atom_type_partial_charge
O1    O     O_R   0.388780 0.834790 0.412340 -0.544953
O2    O     O_R   0.111220 0.165210 0.912340 -0.544981
O3    O     O_R   0.888780 0.665210 0.587660 -0.544982
O4    O     O_R   0.611220 0.334790 0.087660 -0.544929
O5    O     O_R   0.059040 0.845930 0.587040 -0.550512
O6    O     O_R   0.440960 0.154070 0.087040 -0.550527
O7    O     O_R   0.559040 0.654070 0.412960 -0.550459
O8    O     O_R   0.940960 0.345930 0.912960 -0.550534
C1    C     C_R   0.227907 0.865585 0.617136 1.064026
C2    C     C_R   0.272085 0.134375 0.117097 1.063570
C3    C     C_R   0.727913 0.634431 0.382846 1.063871
C4    C     C_R   0.772092 0.365620 0.882899 1.063400
O9    O     O_R   0.059070 0.845930 0.412970 -0.571092
O10   O     O_R   0.440930 0.154070 0.912970 -0.571107
O11   O     O_R   0.559070 0.654070 0.587030 -0.571067
O12   O     O_R   0.940930 0.345930 0.087030 -0.571110
O13   O     O_R   0.888760 0.665210 0.412340 -0.558735
O14   O     O_R   0.611240 0.334790 0.912340 -0.558620
O15   O     O_R   0.388760 0.834790 0.587660 -0.558699
O16   O     O_R   0.111240 0.165210 0.087660 -0.558649
C5    C     C_R   0.227060 0.868921 0.386340 1.125415
C6    C     C_R   0.272925 0.131048 0.886374 1.125452
C7    C     C_R   0.727063 0.631065 0.613646 1.125577
C8    C     C_R   0.772929 0.368958 0.113617 1.125311
O17   O     O_3   0.222280 0.690700 0.500000 -0.249240
O18   O     O_3   0.277720 0.309300 0.000000 -0.249109
O19   O     O_3   0.722280 0.809300 0.500000 -0.249234
O20   O     O_3   0.777720 0.190700 0.000000 -0.249145
V1    V     V_3+5 0.947430 0.761000 0.500000 1.406103
V2    V     V_3+5 0.552570 0.239000 0.000000 1.406167
V3    V     V_3+5 0.447430 0.739000 0.500000 1.406164
V4    V     V_3+5 0.052570 0.261000 0.000000 1.406167
C9    C     C_3   0.868479 0.583988 0.761938 0.083096
C10   C     C_3   0.631520 0.416083 0.261892 0.082931
C11   C     C_3   0.368379 0.915994 0.238050 0.082973
C12   C     C_3   0.131453 0.083933 0.738091 0.082790
H1    H     H_    0.009241 0.577651 0.736092 0.183735
H2    H     H_    0.490767 0.422400 0.236025 0.183838
H3    H     H_    0.509158 0.922347 0.263869 0.183815
H4    H     H_    0.990707 0.077594 0.763963 0.183773
C13   C     C_3   0.845226 0.520886 0.840812 -0.005670
C14   C     C_3   0.654764 0.479211 0.340725 -0.005403
C15   C     C_3   0.345133 0.979088 0.159170 -0.005640
C16   C     C_3   0.154725 0.020817 0.659245 -0.005300
H5    H     H_    0.746630 0.548280 0.888136 0.196567
H6    H     H_    0.753299 0.451804 0.388068 0.196688
H7    H     H_    0.246512 0.951692 0.111867 0.196740
H8    H     H_    0.253292 0.048236 0.611919 0.196860
H9    H     H_    0.002211 0.410191 0.731161 0.214580
H10   H     H_    0.497943 0.590028 0.231063 0.214597
H11   H     H_    0.502220 0.089788 0.268814 0.214576
H12   H     H_    0.997832 0.910071 0.768895 0.214579
C17   C     C_3   0.802215 0.471665 0.644752 0.006200
C18   C     C_3   0.697719 0.528359 0.144661 0.005705
C19   C     C_3   0.302206 0.028320 0.355234 0.006450
C20   C     C_3   0.197721 0.971645 0.855300 0.005916
C21   C     C_3   0.540811 0.537233 0.726357 0.427255
C22   C     C_3   0.959189 0.462847 0.226247 0.427198
C23   C     C_3   0.040774 0.962778 0.273665 0.427313
C24   C     C_3   0.459150 0.037200 0.773695 0.427187
C25   C     C_3   0.734914 0.559331 0.684294 -0.514857
C26   C     C_3   0.765063 0.440716 0.184234 -0.514676
C27   C     C_3   0.234881 0.940661 0.315701 -0.515008
C28   C     C_3   0.265043 0.059304 0.815738 -0.514615
C29   C     C_3   0.758986 0.434633 0.809633 -0.481871
C30   C     C_3   0.741070 0.565449 0.309542 -0.482388
C31   C     C_3   0.258959 0.065357 0.190361 -0.481820
C32   C     C_3   0.241019 0.934580 0.690424 -0.482234
C33   C     C_3   0.853227 0.409124 0.720751 0.194192
C34   C     C_3   0.646929 0.590969 0.220630 0.194660
C35   C     C_3   0.353239 0.090861 0.279238 0.194034
C36   C     C_3   0.146818 0.909064 0.779319 0.194396
C37   C     C_3   0.555477 0.457055 0.788328 0.115818
C38   C     C_3   0.944575 0.542997 0.288269 0.116328
C39   C     C_3   0.055442 0.042951 0.211682 0.115728
C40   C     C_3   0.444517 0.957029 0.711714 0.116064
H13   H     H_    0.489174 0.472570 0.851429 0.220751
H14   H     H_    0.010732 0.527389 0.351384 0.220637
H15   H     H_    0.989123 0.027434 0.148585 0.220763
H16   H     H_    0.510759 0.972583 0.648606 0.220757
H17   H     H_    0.684255 0.444295 0.608995 0.211916
H18   H     H_    0.815617 0.555668 0.108805 0.211731
H19   H     H_    0.184251 0.055697 0.390988 0.211941
H20   H     H_    0.315644 0.944309 0.891109 0.211784
Br1   Br    Br    0.414022 0.358327 0.749326 -0.248856
Br2   Br    Br    0.086367 0.641743 0.249468 -0.249055
Br3   Br    Br    0.913995 0.141681 0.250676 -0.248875
Br4   Br    Br    0.586110 0.858299 0.750639 -0.248977
Br5   Br    Br    0.803589 0.296213 0.677616 -0.194972
Br6   Br    Br    0.697032 0.703775 0.177297 -0.194503
Br7   Br    Br    0.303597 0.203762 0.322412 -0.194888
Br8   Br    Br    0.196647 0.796200 0.822550 -0.194740
N1    N     N_R   0.848532 0.672634 0.791429 0.283859
O21   O     O_R   0.826292 0.691799 0.873926 -0.203815
O22   O     O_R   0.878998 0.734054 0.736823 -0.344810
N2    N     N_R   0.651456 0.327456 0.291461 0.283876
O23   O     O_R   0.673196 0.308347 0.373999 -0.203948
O24   O     O_R   0.621543 0.265989 0.236862 -0.344501
N3    N     N_R   0.348382 0.827325 0.208629 0.283801
O25   O     O_R   0.325405 0.808113 0.126186 -0.203872
O26   O     O_R   0.379899 0.765949 0.263194 -0.344931
N4    N     N_R   0.151340 0.172565 0.708522 0.283910
O27   O     O_R   0.172931 0.191679 0.625977 -0.203887
O28   O     O_R   0.121670 0.234029 0.763143 -0.344510
N5    N     N_R   0.016921 0.512639 0.888504 0.278718
O29   O     O_R   0.156883 0.477024 0.852264 -0.355572
O30   O     O_R   0.038818 0.553427 0.961869 -0.245413
N6    N     N_R   0.483052 0.487501 0.388380 0.278979
O31   O     O_R   0.342971 0.522851 0.351996 -0.355704
O32   O     O_R   0.461433 0.447190 0.462039 -0.245957
N7    N     N_R   0.516816 0.987318 0.111458 0.278718
O33   O     O_R   0.656795 0.022943 0.147664 -0.355547
O34   O     O_R   0.538672 0.946531 0.038103 -0.245456
N8    N     N_R   0.983035 0.012528 0.611566 0.278975
O35   O     O_R   0.842958 0.977109 0.647896 -0.355690
O36   O     O_R   0.961420 0.052902 0.537949 -0.245803
N9    N     N_R   0.949126 0.475179 0.579036 0.270998
O37   O     O_R   0.056670 0.410083 0.570315 -0.195339
O38   O     O_R   0.928765 0.522304 0.510203 -0.426173
N10   N     N_R   0.550646 0.524855 0.079030 0.270909
O39   O     O_R   0.443406 0.590050 0.070226 -0.195316
O40   O     O_R   0.570622 0.477595 0.010277 -0.425925
N11   N     N_R   0.449058 0.024782 0.420969 0.271037
O41   O     O_R   0.556885 0.089800 0.429596 -0.195372
O42   O     O_R   0.428387 0.977775 0.489882 -0.426534
N12   N     N_R   0.050717 0.975161 0.920965 0.270950
O43   O     O_R   0.943307 0.910030 0.929736 -0.195276
O44   O     O_R   0.070902 0.022342 0.989753 -0.426167
Br9   Br    Br    0.346002 0.522393 0.640092 -0.304076
Br10  Br    Br    0.153722 0.477813 0.139866 -0.303904
Br11  Br    Br    0.846058 0.977624 0.359961 -0.303979
Br12  Br    Br    0.653831 0.022311 0.860019 -0.304128
Br13  Br    Br    0.447760 0.630031 0.796130 -0.287253
Br14  Br    Br    0.052391 0.369990 0.295912 -0.287310
Br15  Br    Br    0.947603 0.870003 0.203923 -0.287377
Br16  Br    Br    0.552211 0.130033 0.703945 -0.287229

loop_
_geom_bond_atom_site_label_1
_geom_bond_atom_site_label_2
_geom_bond_distance
_ccdc_geom_bond_type
O17   V3    1.821987 S    
C22   C26   1.602525 S    
N1    O21   1.303180 A    
C18   N10   1.473780 S    
O19   V1    1.822041 S    
O13   V1    2.062334 S    
C21   Br9   1.957901 S    
N5    O29   1.295823 A    
O3    C7    1.363813 A    
N7    O33   1.295743 A    
C10   C14   1.569617 S    
C10   C26   1.585797 S    
C17   C33   1.566757 S    
C24   Br12  1.957911 S    
N8    O35   1.295681 A    
N11   O41   1.302794 A    
C30   C34   1.573653 S    
C2    C31   1.562222 S    
C22   Br14  1.934276 S    
O1    C5    1.363852 A    
N5    O30   1.299822 A    
C23   Br11  1.957722 S    
N12   O43   1.302551 A    
C39   H15   1.105428 S    
C13   N5    1.462197 S    
O2    V4    2.062320 S    
C10   N2    1.476055 S    
N9    O38   1.294186 A    
C11   H3    1.111654 S    
O4    C8    1.363801 A    
C33   Br5   1.933167 S    
N11   O42   1.294372 A    
C30   C38   1.571136 S    
O1    V3    2.062230 S    
C29   C37   1.571159 S    
N6    O31   1.295630 A    
C12   N4    1.476059 S    
C14   H6    1.109927 S    
C21   C37   1.581961 S    
O3    V1    2.062197 S    
C37   H13   1.105411 S    
C17   C25   1.587474 S    
C1    O15   1.354947 A    
C36   Br8   1.933214 S    
C2    O16   1.354919 A    
C20   C36   1.566809 S    
C19   C27   1.587336 S    
O2    C6    1.363803 A    
N12   O44   1.294041 A    
C20   C28   1.587447 S    
O14   V2    2.062227 S    
C20   N12   1.473747 S    
C11   C15   1.569768 S    
C24   Br16  1.934278 S    
C31   C35   1.573603 S    
C3    C30   1.562360 S    
C32   C36   1.573578 S    
O11   C7    1.349525 A    
O15   V3    2.062348 S    
O12   C8    1.349546 A    
H9    C33   1.106741 S    
C21   Br13  1.934153 S    
C34   Br6   1.933258 S    
H11   C35   1.106754 S    
O10   V2    2.055921 S    
C11   N3    1.476054 S    
N10   O40   1.294146 A    
C20   H20   1.111355 S    
O5    V1    2.055929 S    
C19   N11   1.473681 S    
O7    V3    2.055957 S    
O8    V4    2.055887 S    
C12   H4    1.111684 S    
O18   V4    1.821986 S    
C13   C29   1.574357 S    
C18   C26   1.587386 S    
C6    C28   1.562858 S    
O11   V3    2.055877 S    
C24   C40   1.582023 S    
C9    H1    1.111656 S    
N2    O24   1.296356 A    
O7    C3    1.359267 A    
O5    C1    1.359181 A    
H12   C36   1.106775 S    
N3    O25   1.303257 A    
C18   C34   1.566786 S    
O8    C4    1.359140 A    
N2    O23   1.303097 A    
O9    C5    1.349468 A    
N7    O34   1.299665 A    
C32   C40   1.571101 S    
C38   Br2   1.965133 S    
N4    O28   1.296262 A    
C37   Br1   1.964570 S    
C39   Br3   1.964584 S    
O6    V2    2.055828 S    
C12   C16   1.569685 S    
C31   C39   1.571171 S    
C19   H19   1.111375 S    
C23   C39   1.581980 S    
C18   H18   1.111350 S    
N10   O39   1.302690 A    
C22   C38   1.582110 S    
O16   V4    2.062261 S    
O9    V1    2.055818 S    
C40   Br4   1.964800 S    
C3    O13   1.354887 A    
C8    C26   1.562817 S    
N3    O26   1.296973 A    
C10   H2    1.111686 S    
C40   H16   1.105414 S    
C9    N1    1.476007 S    
O6    C2    1.359153 A    
N8    O36   1.299617 A    
C21   C25   1.602534 S    
O12   V4    2.055945 S    
C4    C29   1.562200 S    
C23   C27   1.602507 S    
C24   C28   1.602499 S    
C9    C13   1.569779 S    
O10   C6    1.349572 A    
O20   V2    1.822042 S    
H10   C34   1.106771 S    
C1    C32   1.562309 S    
N9    O37   1.302697 A    
N1    O22   1.296510 A    
C14   N6    1.462078 S    
C22   Br10  1.957809 S    
C9    C25   1.585886 S    
C29   C33   1.573549 S    
C23   Br15  1.933899 S    
N6    O32   1.299678 A    
C17   N9    1.473763 S    
N4    O27   1.303083 A    
C17   H17   1.111373 S    
O4    V2    2.062301 S    
C5    C27   1.562758 S    
C16   C32   1.574296 S    
C16   N8    1.462129 S    
C15   N7    1.462223 S    
C7    C25   1.562783 S    
C35   Br7   1.933261 S    
C15   C31   1.574476 S    
C38   H14   1.105436 S    
C4    O14   1.354910 A    
C14   C30   1.574316 S    
C13   H5    1.109969 S    
C11   C27   1.585694 S    
C12   C28   1.585914 S    
C15   H7    1.109890 S    
C19   C35   1.566727 S    
C16   H8    1.109959 S    
