data_mof_unit_62829.cif
_audit_creation_date              2012-12-11T14:22:53-0500
_audit_creation_method            fapswitch 2.2
_symmetry_space_group_name_H-M    P1
_symmetry_Int_Tables_number       1
_space_group_crystal_system       triclinic
_cell_length_a                    16.871671
_cell_length_b                    6.955098
_cell_length_c                    15.316954
_cell_angle_alpha                 90.000096
_cell_angle_beta                  93.797433
_cell_angle_gamma                 90.0
_cell_volume                      1793.40836227

loop_
_atom_site_label
_atom_site_type_symbol
_atom_type_description
_atom_site_fract_x
_atom_site_fract_y
_atom_site_fract_z
_atom_type_partial_charge
O1    O     O_R   0.414560 0.494300 0.417030 -0.542079
O2    O     O_R   0.585440 0.994300 0.582970 -0.542079
O3    O     O_R   0.577160 0.822630 0.413790 -0.536828
O4    O     O_R   0.422840 0.322630 0.586210 -0.536829
C1    C     C_R   0.604242 0.655203 0.393274 0.725012
C2    C     C_R   0.395758 0.155203 0.606725 0.725013
O5    O     O_R   0.414660 0.823920 0.406630 -0.540766
O6    O     O_R   0.585340 0.323920 0.593370 -0.540766
O7    O     O_R   0.421790 0.995650 0.575760 -0.534149
O8    O     O_R   0.578210 0.495650 0.424240 -0.534149
C3    C     C_R   0.386910 0.654688 0.384615 0.743849
C4    C     C_R   0.613087 0.154689 0.615388 0.743854
O9    O     O_3   0.502530 0.661260 0.555500 -0.370528
O10   O     O_3   0.497470 0.161260 0.444500 -0.370529
V1    V     V_3+5 0.499530 0.935570 0.489700 1.420718
V2    V     V_3+5 0.500470 0.435570 0.510300 1.420719
C5    C     C_2   0.784383 0.278311 0.789007 -0.128348
C6    C     C_2   0.215651 0.778302 0.210951 -0.128346
C7    C     C_2   0.820325 0.113650 0.816549 -0.309741
C8    C     C_2   0.179684 0.613647 0.183436 -0.309723
H1    H     H_    0.801270 0.976370 0.789293 0.127881
H2    H     H_    0.198732 0.476367 0.210704 0.127875
C9    C     C_2   0.716880 0.290746 0.721038 -0.133833
C10   C     C_2   0.283167 0.790739 0.278905 -0.133846
C11   C     C_2   0.679524 0.137935 0.683077 -0.307501
C12   C     C_2   0.320460 0.637932 0.316941 -0.307495
H3    H     H_    0.697167 0.434443 0.702231 0.134830
H4    H     H_    0.302941 0.934432 0.297630 0.134840
H5    H     H_    0.697482 0.993123 0.701154 0.129510
H6    H     H_    0.302441 0.493117 0.298946 0.129507
C13   C     C_1   0.166429 0.119217 0.831359 -0.193949
C14   C     C_1   0.833571 0.619217 0.168641 -0.193949
C15   C     C_1   0.218921 0.127499 0.780103 0.006381
C16   C     C_1   0.781079 0.627500 0.219897 0.006382
C17   C     C_1   0.280884 0.137437 0.719941 0.006249
C18   C     C_1   0.719116 0.637436 0.280059 0.006249
C19   C     C_1   0.333375 0.145743 0.668685 -0.195464
C20   C     C_1   0.666624 0.645742 0.331316 -0.195466
O11   O     O_R   0.921850 0.770730 0.075840 -0.533461
O12   O     O_R   0.078150 0.270730 0.924160 -0.533463
O13   O     O_R   0.085350 0.439650 0.093390 -0.545124
O14   O     O_R   0.914650 0.939650 0.906610 -0.545122
C21   C     C_R   0.113119 0.608449 0.115411 0.743602
C22   C     C_R   0.886883 0.108449 0.884584 0.743598
O15   O     O_R   0.922860 0.441090 0.086230 -0.536640
O16   O     O_R   0.077140 0.941090 0.913770 -0.536642
O17   O     O_R   0.914540 0.269530 0.917020 -0.537881
O18   O     O_R   0.085460 0.769530 0.082980 -0.537883
C23   C     C_R   0.895953 0.609821 0.106680 0.721278
C24   C     C_R   0.104047 0.109821 0.893320 0.721271
O19   O     O_3   0.997510 0.602520 0.944550 -0.370185
O20   O     O_3   0.002490 0.102520 0.055450 -0.370181
V3    V     V_3+5 0.000460 0.328160 0.010290 1.420453
V4    V     V_3+5 0.999540 0.828160 0.989710 1.420451
H7    H     H_    0.805419 0.413944 0.817014 0.136715
H8    H     H_    0.194633 0.913928 0.182921 0.136709

loop_
_geom_bond_atom_site_label_1
_geom_bond_atom_site_label_2
_ccdc_geom_bond_type
O4    V2    S    
O5    C3    A    
C13   C15   T    
O10   V2    S    
C9    H3    S    
O19   V3    S    
C21   O18   A    
O16   C24   A    
C16   C18   S    
O1    C3    A    
C22   O17   A    
O15   C23   A    
C4    C11   S    
O6    C4    A    
O19   V4    S    
O2    C4    A    
O16   V4    S    
C2    O7    A    
O5    V1    S    
O7    V1    S    
C2    C19   S    
O15   V3    S    
C1    O8    A    
O6    V2    S    
O1    V2    S    
O8    V2    S    
C1    C20   S    
O14   V4    S    
O18   V4    S    
O2    V1    S    
O13   C21   A    
C10   C12   D    
O13   V3    S    
C5    C9    S    
O14   C22   A    
O20   V3    S    
C6    C10   S    
O17   V3    S    
C18   C20   T    
C7    H1    S    
O20   V4    S    
C12   H6    S    
C6    C8    D    
C9    C11   D    
O9    V1    S    
C11   H5    S    
C15   C17   S    
O12   C24   A    
C14   C23   S    
O11   V4    S    
C13   C24   S    
O11   C23   A    
C8    C21   S    
O3    V1    S    
C7    C22   S    
C17   C19   T    
O4    C2    A    
O12   V3    S    
O9    V2    S    
C5    H7    S    
C6    H8    S    
C3    C12   S    
C5    C7    D    
O10   V1    S    
C10   H4    S    
C8    H2    S    
O3    C1    A    
C14   C16   T    
