data_mof_unit_31894.cif
_audit_creation_date              2012-12-11T16:27:34-0500
_audit_creation_method            fapswitch 2.2
_symmetry_space_group_name_H-M    P1
_symmetry_Int_Tables_number       1
_space_group_crystal_system       triclinic
_cell_length_a                    21.605875
_cell_length_b                    7.029901
_cell_length_c                    15.118038
_cell_angle_alpha                 89.999505
_cell_angle_beta                  107.136793
_cell_angle_gamma                 89.999922
_cell_volume                      2194.29219552

loop_
_atom_site_label
_atom_site_type_symbol
_atom_type_description
_atom_site_fract_x
_atom_site_fract_y
_atom_site_fract_z
_atom_type_partial_charge
O1    O     O_R   0.835850 0.638310 0.002120 -0.538654
O2    O     O_R   0.164150 0.361690 0.997880 -0.535655
O3    O     O_R   0.664150 0.138310 0.997880 -0.538653
O4    O     O_R   0.335850 0.861690 0.002120 -0.535657
O5    O     O_R   0.717530 0.306070 0.861970 -0.538973
O6    O     O_R   0.282470 0.693930 0.138030 -0.532720
O7    O     O_R   0.782470 0.806070 0.138030 -0.538973
O8    O     O_R   0.217530 0.193930 0.861970 -0.532719
C1    C     C_R   0.704705 0.476643 0.825389 0.670270
C2    C     C_R   0.294894 0.522342 0.174672 0.672328
C3    C     C_R   0.795295 0.976641 0.174611 0.670270
C4    C     C_R   0.205106 0.022344 0.825328 0.672330
O9    O     O_R   0.838690 0.308440 0.993250 -0.536604
O10   O     O_R   0.161310 0.691560 0.006750 -0.539168
O11   O     O_R   0.661310 0.808440 0.006750 -0.536604
O12   O     O_R   0.338690 0.191560 0.993250 -0.539168
O13   O     O_R   0.786170 0.140510 0.130090 -0.533939
O14   O     O_R   0.213830 0.859490 0.869910 -0.541352
O15   O     O_R   0.713830 0.640510 0.869910 -0.533938
O16   O     O_R   0.286170 0.359490 0.130090 -0.541350
C5    C     C_R   0.864847 0.477717 0.997375 0.679678
C6    C     C_R   0.135102 0.522995 0.002433 0.678703
C7    C     C_R   0.635153 0.977717 0.002625 0.679680
C8    C     C_R   0.364898 0.022995 0.997566 0.678703
O17   O     O_3   0.732630 0.472520 0.044740 -0.369525
O18   O     O_3   0.267370 0.527480 0.955260 -0.369478
O19   O     O_3   0.767370 0.972520 0.955260 -0.369526
O20   O     O_3   0.232630 0.027480 0.044740 -0.369476
V1    V     V_3+5 0.753220 0.196740 0.991700 1.502145
V2    V     V_3+5 0.246780 0.803260 0.008300 1.502899
V3    V     V_3+5 0.746780 0.696740 0.008300 1.502144
V4    V     V_3+5 0.253220 0.303260 0.991700 1.502905
H1    H     H_    0.619634 0.965681 0.319111 0.126158
H2    H     H_    0.379904 0.005368 0.680865 0.126967
H3    H     H_    0.880366 0.465676 0.680889 0.126182
H4    H     H_    0.120095 0.505396 0.319134 0.126956
C9    C     C_R   0.531453 0.996235 0.832074 -0.219751
C10   C     C_R   0.468713 0.008897 0.168285 -0.225331
C11   C     C_R   0.968547 0.496239 0.167925 -0.219746
C12   C     C_R   0.031287 0.508898 0.831714 -0.225333
C13   C     C_R   0.482759 0.997765 0.747958 0.453369
C14   C     C_R   0.517202 0.994074 0.252280 0.459288
C15   C     C_R   0.017241 0.497778 0.252042 0.453363
C16   C     C_R   0.982798 0.494073 0.747720 0.459294
C17   C     C_R   0.418039 0.009161 0.746027 -0.158934
C18   C     C_R   0.581890 0.982152 0.254101 -0.153400
C19   C     C_R   0.081960 0.509180 0.253972 -0.158941
C20   C     C_R   0.918110 0.482150 0.745898 -0.153428
C21   C     C_R   0.401908 0.018954 0.828547 -0.138734
C22   C     C_R   0.598202 0.983930 0.171635 -0.144956
C23   C     C_R   0.098091 0.518965 0.171451 -0.138727
C24   C     C_R   0.901797 0.483929 0.828364 -0.144979
C25   C     C_R   0.450376 0.013263 0.914829 0.073921
C26   C     C_R   0.549811 0.994523 0.085456 0.075877
C27   C     C_R   0.049623 0.513267 0.085170 0.073919
C28   C     C_R   0.950189 0.494523 0.914543 0.075879
C29   C     C_R   0.516486 0.001601 0.916519 -0.005208
C30   C     C_R   0.483735 0.007617 0.083822 -0.002491
C31   C     C_R   0.983514 0.501602 0.083480 -0.005211
C32   C     C_R   0.016265 0.507618 0.916177 -0.002490
C33   C     C_R   0.433910 0.014951 0.998627 -0.121578
C34   C     C_R   0.566216 0.989952 0.001655 -0.121650
C35   C     C_R   0.066089 0.514953 0.001372 -0.121578
C36   C     C_R   0.933784 0.489951 0.998344 -0.121649
H5    H     H_    0.581013 0.982339 0.830461 0.149866
H6    H     H_    0.418968 0.013756 0.169836 0.148543
H7    H     H_    0.918987 0.482340 0.169539 0.149867
H8    H     H_    0.081032 0.513756 0.830163 0.148543
H9    H     H_    0.351153 0.025834 0.824265 0.100915
H10   H     H_    0.648826 0.971801 0.175786 0.101278
H11   H     H_    0.148846 0.525849 0.175734 0.100916
H12   H     H_    0.851174 0.471801 0.824212 0.101288
C37   C     C_R   0.177175 0.009025 0.724450 -0.040509
C38   C     C_R   0.824247 0.980667 0.275456 -0.041510
C39   C     C_R   0.322826 0.509018 0.275550 -0.040506
C40   C     C_R   0.675753 0.480675 0.724544 -0.041511
C41   C     C_R   0.189039 0.020204 0.570867 -0.173669
C42   C     C_R   0.812235 0.992263 0.428914 -0.171309
C43   C     C_R   0.310961 0.520158 0.429132 -0.173668
C44   C     C_R   0.687764 0.492337 0.571086 -0.171312
C45   C     C_R   0.214494 0.048691 0.665798 -0.140229
C46   C     C_R   0.785932 0.011498 0.333593 -0.141876
C47   C     C_R   0.285505 0.548655 0.334201 -0.140232
C48   C     C_R   0.714065 0.511562 0.666408 -0.141851
C49   C     C_R   0.113007 0.949951 0.687233 -0.026291
C50   C     C_R   0.889981 0.939071 0.313353 -0.024589
C51   C     C_R   0.386997 0.449961 0.312765 -0.026291
C52   C     C_R   0.610022 0.439043 0.686646 -0.024590
C53   C     C_R   0.083633 0.936860 0.589978 0.189318
C54   C     C_R   0.919376 0.929027 0.410744 0.188876
C55   C     C_R   0.416370 0.436852 0.410020 0.189314
C56   C     C_R   0.580627 0.429022 0.589254 0.188886
C57   C     C_R   0.124189 0.960381 0.531691 0.020077
C58   C     C_R   0.878340 0.946152 0.468810 0.023338
C59   C     C_R   0.375813 0.460351 0.468308 0.020075
C60   C     C_R   0.621662 0.446186 0.531189 0.023325
C61   C     C_R   0.014873 0.913275 0.549287 0.119889
C62   C     C_R   0.988324 0.911150 0.451662 0.119063
C63   C     C_R   0.485131 0.413270 0.450712 0.119886
C64   C     C_R   0.511679 0.411136 0.548337 0.119063
C65   C     C_R   0.031787 0.901836 0.397716 0.031525
C66   C     C_R   0.971566 0.903358 0.603449 0.031027
C67   C     C_R   0.468217 0.401811 0.602282 0.031515
C68   C     C_R   0.528438 0.403361 0.396551 0.031056
C69   C     C_R   0.098457 0.930260 0.435592 -0.046608
C70   C     C_R   0.904530 0.921748 0.565271 -0.043352
C71   C     C_R   0.401546 0.430225 0.564407 -0.046603
C72   C     C_R   0.595473 0.421777 0.434727 -0.043372
H13   H     H_    0.916852 0.917548 0.264437 0.090864
H14   H     H_    0.086808 0.922034 0.736419 0.092330
H15   H     H_    0.583153 0.417479 0.735561 0.090864
H16   H     H_    0.413197 0.422069 0.263580 0.092326
H17   H     H_    0.735226 0.046695 0.305306 0.106424
H18   H     H_    0.263880 0.097699 0.693482 0.108909
H19   H     H_    0.764769 0.546791 0.694696 0.106417
H20   H     H_    0.236118 0.597649 0.306519 0.108904
H21   H     H_    0.220351 0.051984 0.528741 0.106421
H22   H     H_    0.780174 0.018231 0.470563 0.105959
H23   H     H_    0.279647 0.551918 0.471258 0.106426
H24   H     H_    0.719823 0.518347 0.529439 0.105943
H25   H     H_    0.014579 0.880788 0.324065 0.142021
H26   H     H_    0.989036 0.887254 0.677381 0.143563
H27   H     H_    0.485424 0.380766 0.675934 0.142022
H28   H     H_    0.510967 0.387251 0.322620 0.143576
S1    S     S_3+6 0.503854 0.948002 0.647628 -0.024319
O21   O     O_2   0.563194 0.056109 0.646253 -0.334652
O22   O     O_2   0.521523 0.743828 0.653522 -0.379490
O23   O     O_3   0.442693 0.989009 0.550870 -0.465197
H29   H     H_    0.416197 0.871584 0.540466 0.354749
S2    S     S_3+6 0.494756 0.951867 0.352211 -0.023914
O24   O     O_2   0.435812 0.064198 0.351602 -0.336206
O25   O     O_2   0.476058 0.748787 0.348257 -0.379807
O26   O     O_3   0.555720 0.993463 0.449111 -0.467842
H30   H     H_    0.579931 0.872102 0.463175 0.359043
S3    S     S_3+6 0.996146 0.448029 0.352373 -0.024327
O27   O     O_2   0.936805 0.556136 0.353742 -0.334657
O28   O     O_2   0.978480 0.243856 0.346491 -0.379487
O29   O     O_3   0.057305 0.489053 0.449130 -0.465196
H31   H     H_    0.083811 0.371645 0.459528 0.354735
S4    S     S_3+6 0.005245 0.451857 0.647790 -0.023909
O30   O     O_2   0.064186 0.564194 0.648395 -0.336205
O31   O     O_2   0.023947 0.248779 0.651755 -0.379805
O32   O     O_3   0.944279 0.493437 0.550889 -0.467849
H32   H     H_    0.920081 0.372059 0.536816 0.359066
C73   C     C_2   0.139988 0.928049 0.372530 0.339060
H33   H     H_    0.191056 0.893705 0.398332 0.051354
O33   O     O_2   0.117266 0.962558 0.290102 -0.525174
C74   C     C_2   0.863094 0.912767 0.628427 0.343299
H34   H     H_    0.812708 0.870660 0.602993 0.052475
O34   O     O_2   0.885243 0.949677 0.710692 -0.527139
C75   C     C_2   0.360015 0.428004 0.627468 0.339068
H35   H     H_    0.308949 0.393635 0.601669 0.051341
O35   O     O_2   0.382736 0.462532 0.709895 -0.525173
C76   C     C_2   0.636910 0.412812 0.371569 0.343284
H36   H     H_    0.687307 0.370826 0.397014 0.052501
O36   O     O_2   0.614749 0.449580 0.289290 -0.527151

loop_
_geom_bond_atom_site_label_1
_geom_bond_atom_site_label_2
_ccdc_geom_bond_type
O17   V3    S    
S3    O29   S    
C44   H24   S    
O1    C5    A    
C8    C33   S    
C12   C32   A    
C27   C31   A    
O19   V1    S    
O13   V1    S    
O3    C7    A    
S4    O32   S    
C56   C60   A    
C11   C31   A    
C44   C48   A    
O15   V3    S    
O23   H29   S    
C40   C48   A    
C73   H33   S    
O4    V2    S    
S3    O27   D    
O7    C3    A    
C31   C36   A    
C22   C26   A    
C32   C35   A    
O9    V1    S    
C42   H22   S    
C74   O34   D    
C10   C14   A    
C41   H21   S    
C9    C13   A    
C26   C30   A    
O4    C8    A    
O32   H32   S    
C61   C62   A    
O1    V3    S    
C70   C74   S    
H4    C19   S    
O2    V4    S    
C14   C18   A    
O3    V1    S    
C53   C61   A    
C5    C36   S    
C57   C69   A    
C6    C35   S    
C10   C30   A    
C52   H15   S    
C25   C33   A    
C1    O15   A    
C7    C34   S    
C58   C70   A    
C52   C56   A    
C2    O16   A    
C27   C35   A    
C45   H18   S    
O2    C6    A    
S1    O23   S    
C75   H35   S    
C28   C36   A    
O14   V2    S    
C1    C40   S    
C17   C21   A    
C44   C60   A    
C40   C52   A    
C12   C16   A    
C76   O36   D    
C61   C66   A    
C71   C75   S    
C30   C33   A    
O11   C7    A    
C63   C68   A    
C60   C72   A    
C67   H27   S    
O12   C8    A    
C21   H9    S    
C4    C37   S    
O17   V1    S    
H1    C18   S    
C23   H11   S    
O10   V2    S    
H3    C20   S    
C37   C45   A    
C73   O33   D    
C54   C58   A    
O5    V1    S    
C65   C69   A    
O7    V3    S    
C51   C55   A    
O19   V3    S    
O8    V4    S    
C10   H6    S    
O20   V4    S    
C50   H13   S    
S4    O30   D    
C49   H14   S    
C50   C54   A    
C25   C29   A    
O18   V4    S    
C19   C23   A    
C51   H16   S    
C26   C34   A    
C29   C34   A    
C64   C67   A    
C65   H25   S    
C28   C32   A    
C43   H23   S    
S2    O25   D    
C43   C59   A    
C24   H12   S    
C13   S1    S    
C2    C39   S    
C42   C46   A    
C63   C64   A    
C41   C45   A    
O8    C4    A    
C69   C73   S    
O9    C5    A    
C14   S2    S    
H2    C17   S    
C38   C50   A    
C15   S3    S    
C37   C49   A    
C76   H36   S    
C59   C71   A    
C9    H5    S    
O6    V2    S    
O18   V2    S    
C48   H19   S    
S1    O21   D    
S2    O26   S    
C68   C72   A    
C56   C64   A    
O16   V4    S    
C39   C51   A    
S3    O28   D    
C3    O13   A    
C49   C53   A    
C11   H7    S    
C47   H20   S    
C46   H17   S    
S4    O31   D    
C3    C38   S    
O6    C2    A    
C11   C15   A    
O11   V3    S    
C68   H28   S    
O12   V4    S    
C62   C65   A    
C18   C22   A    
O10   C6    A    
O20   V2    S    
S2    O24   D    
C22   H10   S    
C43   C47   A    
C39   C47   A    
O26   H30   S    
C42   C58   A    
C21   C25   A    
C41   C57   A    
C66   C70   A    
C23   C27   A    
C74   H34   S    
C75   O35   D    
C53   C57   A    
C9    C29   A    
O29   H31   S    
C55   C59   A    
C16   C20   A    
C20   C24   A    
C72   C76   S    
C16   S4    S    
C12   H8    S    
C4    O14   A    
S1    O22   D    
C13   C17   A    
C67   C71   A    
O5    C1    A    
C55   C63   A    
C66   H26   S    
C15   C19   A    
C54   C62   A    
C38   C46   A    
C24   C28   A    
