data_mof_unit_40523.cif
_audit_creation_date              2012-12-10T18:21:18-0500
_audit_creation_method            fapswitch 2.2
_symmetry_space_group_name_H-M    P1
_symmetry_Int_Tables_number       1
_space_group_crystal_system       triclinic
_cell_length_a                    15.006679
_cell_length_b                    13.990006
_cell_length_c                    10.705378
_cell_angle_alpha                 90.198766
_cell_angle_beta                  89.968643
_cell_angle_gamma                 89.988918
_cell_volume                      2247.51093558

loop_
_atom_site_label
_atom_site_type_symbol
_atom_type_description
_atom_site_fract_x
_atom_site_fract_y
_atom_site_fract_z
_atom_type_partial_charge
C1    C     C_R   0.326463 0.500003 0.499753 0.879238
C2    C     C_3   0.578188 0.562244 0.925970 -0.486243
C3    C     C_R   0.815160 0.586851 0.489654 -0.266450
C4    C     C_R   0.769421 0.499928 0.496518 -0.076059
C5    C     C_R   0.815209 0.412916 0.500693 -0.263906
C6    C     C_R   0.907359 0.412224 0.499534 0.119270
C7    C     C_R   0.953686 0.499837 0.493770 0.059791
C8    C     C_R   0.907322 0.587460 0.488380 0.119247
C9    C     C_R   0.953778 0.325538 0.504864 -0.224171
C10   C     C_R   0.046354 0.325553 0.505319 -0.221315
C11   C     C_R   0.092738 0.412253 0.500365 0.119133
C12   C     C_R   0.499866 0.499383 0.257160 0.880047
C13   C     C_R   0.046388 0.499852 0.494185 0.059672
C14   C     C_R   0.092725 0.587493 0.489184 0.120916
C15   C     C_R   0.046308 0.674144 0.483035 -0.223751
C16   C     C_R   0.953722 0.674126 0.482603 -0.226067
C17   C     C_R   0.184875 0.412963 0.502059 -0.261642
C18   C     C_R   0.230627 0.499974 0.497755 -0.079390
C19   C     C_R   0.184876 0.586903 0.490962 -0.271676
C20   C     C_R   0.565619 0.798230 0.438645 -0.064845
C21   C     C_R   0.566550 0.201329 0.440759 -0.091935
C22   C     C_R   0.433911 0.797604 0.561636 -0.044935
C23   C     C_R   0.433490 0.202738 0.560740 -0.038280
C24   C     C_R   0.431154 0.898636 0.563472 -0.012397
C25   C     C_R   0.430992 0.101702 0.563134 -0.012079
C26   C     C_R   0.673568 0.499987 0.499082 0.914378
C27   C     C_R   0.498843 0.949372 0.500920 0.036062
C28   C     C_R   0.498896 0.050582 0.501061 0.038779
C29   C     C_R   0.566851 0.898778 0.438016 0.038908
C30   C     C_R   0.567305 0.100797 0.439073 0.047128
C31   C     C_R   0.362918 0.949514 0.625861 0.051080
C32   C     C_R   0.362771 0.051190 0.625551 0.050274
C33   C     C_R   0.634726 0.049715 0.377003 -0.211812
C34   C     C_R   0.634391 0.949523 0.376239 -0.210567
C35   C     C_R   0.500819 0.499849 0.742210 0.887326
C36   C     C_3   0.409819 0.548057 0.069542 0.154440
C37   C     C_3   0.502263 0.388296 0.067088 0.203944
C38   C     C_3   0.410291 0.537425 0.924898 -0.414370
C39   C     C_3   0.515051 0.395083 0.924541 -0.424867
C40   C     C_3   0.585492 0.554603 0.070615 0.220323
C41   C     C_3   0.499055 0.497624 0.119981 0.096286
C42   C     C_3   0.500957 0.498829 0.877858 0.034919
H1    H     H_    0.081626 0.258042 0.509980 0.144583
H2    H     H_    0.220758 0.345771 0.507217 0.162572
H3    H     H_    0.220774 0.654130 0.487200 0.162197
H4    H     H_    0.081560 0.741679 0.479054 0.144014
H5    H     H_    0.918454 0.741649 0.478303 0.142842
H6    H     H_    0.616933 0.758101 0.390392 0.139335
H7    H     H_    0.619017 0.241055 0.394928 0.131104
H8    H     H_    0.383439 0.756166 0.609152 0.160508
H9    H     H_    0.382632 0.244435 0.607448 0.158779
H10   H     H_    0.356619 0.487861 0.893610 0.157799
H11   H     H_    0.468943 0.344243 0.877049 0.189850
H12   H     H_    0.395647 0.607037 0.879140 0.173593
H13   H     H_    0.583138 0.372126 0.895685 0.167166
H14   H     H_    0.566176 0.637164 0.895891 0.189158
H15   H     H_    0.641872 0.541261 0.879984 0.150564
H16   H     H_    0.779242 0.654069 0.485700 0.157397
H17   H     H_    0.779341 0.345720 0.505598 0.158701
H18   H     H_    0.918531 0.258017 0.509185 0.143533
N1    N     N_R   0.500070 0.750030 0.500050 -0.113918
N2    N     N_R   0.500070 0.249970 0.500050 -0.112771
O1    O     O_R   0.367860 0.580280 0.500020 -0.639660
O2    O     O_R   0.367860 0.419720 0.500020 -0.634754
O3    O     O_R   0.500000 0.580270 0.314790 -0.604307
O4    O     O_R   0.500000 0.419730 0.314790 -0.640886
O5    O     O_R   0.632160 0.580270 0.499960 -0.627950
O6    O     O_R   0.632160 0.419730 0.499960 -0.628455
O7    O     O_R   0.500030 0.580270 0.685200 -0.626046
O8    O     O_R   0.500030 0.419730 0.685200 -0.632494
Zn1   Zn    Zn3+2 0.500020 0.607200 0.499990 0.939293
Zn2   Zn    Zn3+2 0.500020 0.392800 0.499990 0.930021
N3    N     N_3   0.405612 0.650688 0.101496 -0.463695
H19   H     H_    0.389682 0.660027 0.195696 0.210358
H20   H     H_    0.352817 0.682858 0.053603 0.171112
N4    N     N_3   0.577604 0.332690 0.119105 -0.446343
H21   H     H_    0.558336 0.296166 0.199451 0.219879
H22   H     H_    0.594714 0.276759 0.058492 0.171979
N5    N     N_3   0.293963 0.897544 0.689076 -0.490349
H23   H     H_    0.232477 0.916193 0.650403 0.180099
H24   H     H_    0.294283 0.916892 0.783438 0.184209
N6    N     N_3   0.293633 0.103527 0.688363 -0.490142
H25   H     H_    0.232228 0.084412 0.649677 0.179497
H26   H     H_    0.293910 0.084986 0.782830 0.186322
H27   H     H_    0.687645 0.087276 0.328870 0.135546
H28   H     H_    0.687067 0.911701 0.327560 0.133790
N7    N     N_3   0.329107 0.502061 0.119963 -0.502812
H29   H     H_    0.325794 0.511756 0.216724 0.168954
H30   H     H_    0.272524 0.534983 0.082540 0.190776
N8    N     N_3   0.419972 0.332839 0.091656 -0.470557
H31   H     H_    0.368224 0.348954 0.029971 0.204881
H32   H     H_    0.397126 0.340921 0.183079 0.218718
N9    N     N_3   0.591669 0.651853 0.126184 -0.421328
H33   H     H_    0.656193 0.679132 0.117581 0.158895
H34   H     H_    0.553044 0.701791 0.078631 0.202254
N10   N     N_3   0.667529 0.501854 0.105191 -0.444192
H35   H     H_    0.681965 0.448285 0.040122 0.194318
H36   H     H_    0.723487 0.546182 0.101110 0.171663

loop_
_geom_bond_atom_site_label_1
_geom_bond_atom_site_label_2
_ccdc_geom_bond_type
N7    H29   S    
N9    H33   S    
C27   C29   A    
N3    H19   S    
C24   C27   A    
C40   N9    S    
C6    C9    A    
C21   H7    S    
C2    H15   S    
C7    C8    A    
C25   C28   A    
C1    C18   S    
C37   N8    S    
C26   O5    A    
N4    H22   S    
C38   C42   S    
C5    C6    A    
C38   H10   S    
C15   C16   A    
C18   C19   A    
C34   H28   S    
C20   N1    A    
O7    Zn1   S    
C35   C42   S    
C33   H27   S    
N8    H32   S    
C23   N2    A    
O4    Zn2   S    
C35   O8    A    
N10   H36   S    
C9    C10   A    
C22   H8    S    
N1    Zn1   S    
C25   C32   A    
O2    Zn2   S    
N9    H34   S    
C13   C14   A    
N3    H20   S    
C36   C41   S    
C40   N10   S    
C1    O1    A    
C16   H5    S    
C33   C34   A    
C39   C42   S    
C20   C29   A    
C36   N7    S    
C39   H13   S    
C5    H17   S    
N4    H21   S    
C3    C8    A    
C10   C11   A    
N5    H24   S    
O3    Zn1   S    
C12   O4    A    
C29   C34   A    
C12   C41   S    
C23   H9    S    
C31   C32   A    
C38   H12   S    
O6    Zn2   S    
N10   H35   S    
C17   C18   A    
N2    Zn2   S    
C21   N2    A    
C20   H6    S    
C40   C41   S    
C37   N4    S    
O1    Zn1   S    
N6    H26   S    
N7    H30   S    
C22   C24   A    
C3    C4    A    
C1    O2    A    
C21   C30   A    
C11   C17   A    
C30   C33   A    
C10   H1    S    
C14   C19   A    
C4    C5    A    
C4    C26   S    
C19   H3    S    
C31   N5    S    
C6    C7    A    
C32   N6    S    
C12   O3    A    
C9    H18   S    
C26   O6    A    
C36   C38   S    
C24   C31   A    
C37   C39   S    
C2    H14   S    
C22   N1    A    
C11   C13   A    
N8    H31   S    
C39   H11   S    
C2    C42   S    
C28   C30   A    
O5    Zn1   S    
C23   C25   A    
C37   C41   S    
C17   H2    S    
C36   N3    S    
N5    H23   S    
C3    H16   S    
C2    C40   S    
C7    C13   A    
C35   O7    A    
C8    C16   A    
N6    H25   S    
C27   C28   A    
C14   C15   A    
O8    Zn2   S    
C15   H4    S    
