data_mof_unit_40443.cif
_audit_creation_date              2013-03-05T15:41:05-0500
_audit_creation_method            fapswitch 2.2
_symmetry_space_group_name_H-M    P1
_symmetry_Int_Tables_number       1
_space_group_crystal_system       triclinic
_cell_length_a                    10.939505
_cell_length_b                    10.880139
_cell_length_c                    18.643657
_cell_angle_alpha                 90.511611
_cell_angle_beta                  90.540953
_cell_angle_gamma                 60.578736
_cell_volume                      1932.73576739

loop_
_atom_site_label
_atom_site_type_symbol
_atom_site_description
_atom_site_fract_x
_atom_site_fract_y
_atom_site_fract_z
_atom_type_partial_charge
O1    O     O_R   0.507110 0.256280 0.580300 -0.521582
O2    O     O_R   0.280830 0.527190 0.577940 -0.515314
C1    C     C_R   0.234722 0.645958 0.608170 0.557352
O3    O     O_R   0.261360 0.738990 0.584270 -0.456202
O4    O     O_R   0.532590 0.694780 0.574370 -0.506382
C2    C     C_R   0.657300 0.625943 0.599251 0.519206
O5    O     O_R   0.744470 0.503750 0.577000 -0.505161
O6    O     O_R   0.698520 0.277230 0.571620 -0.444303
C3    C     C_R   0.629777 0.225913 0.601571 0.555851
O7    O     O_R   0.498530 0.256920 0.419280 -0.524502
O8    O     O_R   0.272880 0.527780 0.428680 -0.505843
C4    C     C_R   0.214654 0.651994 0.404215 0.560314
O9    O     O_R   0.252780 0.739630 0.423250 -0.501951
O10   O     O_R   0.524640 0.695370 0.425100 -0.500042
C5    C     C_R   0.644383 0.627443 0.396230 0.562290
O11   O     O_R   0.735890 0.504390 0.415980 -0.502250
O12   O     O_R   0.690560 0.277820 0.422350 -0.473954
C6    C     C_R   0.614493 0.231655 0.393959 0.552570
Cr1   Cr    Cr6+3 0.393010 0.398050 0.501480 1.031502
Cr2   Cr    Cr6+3 0.398820 0.707980 0.501630 1.067831
Cr3   Cr    Cr6+3 0.708140 0.393940 0.496850 1.095666
O13   O     O_3   0.499990 0.499990 0.499980 -0.267053
C7    C     C_3   0.612879 0.836308 0.773516 -0.214832
H1    H     H_    0.647740 0.916597 0.776596 0.106206
H2    H     H_    0.512856 0.878458 0.803701 0.208830
C8    C     C_3   0.584559 0.813887 0.694649 -0.225914
H3    H     H_    0.602402 0.885531 0.659405 0.114760
H4    H     H_    0.904252 0.718361 0.768719 0.103658
H5    H     H_    0.856792 0.698705 0.650216 0.112037
C9    C     C_3   0.863876 0.642696 0.763068 -0.248744
C10   C     C_3   0.678768 0.583376 0.800752 -0.211952
C11   C     C_3   0.727490 0.694714 0.806872 0.031887
H6    H     H_    0.758813 0.480595 0.823717 0.178087
H7    H     H_    0.581167 0.617811 0.831516 0.204997
C12   C     C_3   0.682968 0.658118 0.672767 0.045249
C13   C     C_3   0.836874 0.625745 0.683279 -0.232517
C14   C     C_3   0.655227 0.560283 0.722168 -0.222321
H8    H     H_    0.726515 0.448009 0.708230 0.172041
H9    H     H_    0.944886 0.538548 0.783760 0.159642
H10   H     H_    0.912249 0.516277 0.665774 0.184289
C15   C     C_2   0.680545 0.154251 0.670671 -0.155035
C16   C     C_2   0.689896 0.168935 0.827272 -0.152842
C17   C     C_2   0.803328 0.136354 0.785760 0.138707
C18   C     C_2   0.790459 0.151953 0.706242 0.147958
H11   H     H_    0.585159 0.221246 0.804146 0.072132
H12   H     H_    0.610286 0.126612 0.697924 0.060697
C19   C     C_2   0.178585 0.660790 0.680175 -0.059052
C20   C     C_2   0.213889 0.656761 0.846141 0.220822
C21   C     C_2   0.204050 0.564617 0.800943 -0.190153
C22   C     C_2   0.241049 0.550312 0.725089 -0.138565
H13   H     H_    0.154950 0.504727 0.818602 0.127111
H14   H     H_    0.318199 0.446365 0.705832 0.154596
H15   H     H_    0.102005 0.764573 0.699792 0.176184
C23   C     C_2   0.666281 0.683327 0.330783 -0.096291
C24   C     C_2   0.673672 0.681399 0.173354 -0.044849
C25   C     C_2   0.787079 0.626001 0.217051 -0.118876
C26   C     C_2   0.781396 0.604939 0.292978 -0.127128
H16   H     H_    0.892396 0.582577 0.195759 0.148175
H17   H     H_    0.871473 0.513979 0.316340 0.163524
H18   H     H_    0.579517 0.779034 0.308924 0.102226
C27   C     C_2   0.633608 0.191295 0.319541 -0.058536
C28   C     C_2   0.632736 0.211048 0.162284 0.200155
C29   C     C_2   0.525436 0.223338 0.201572 -0.156640
C30   C     C_2   0.518157 0.250574 0.277511 -0.110351
H19   H     H_    0.454074 0.187951 0.181808 0.135441
H20   H     H_    0.413562 0.314357 0.299490 0.156249
H21   H     H_    0.738516 0.127621 0.298108 0.109373
C31   C     C_2   0.113418 0.687371 0.346449 -0.108118
C32   C     C_2   0.049800 0.723580 0.194845 -0.110677
C33   C     C_2   0.003947 0.832639 0.240645 -0.165508
C34   C     C_2   0.057003 0.813192 0.314339 -0.146229
H22   H     H_    0.943308 0.939972 0.220874 0.162811
H23   H     H_    0.066391 0.899625 0.338268 0.167610
H24   H     H_    0.114677 0.614978 0.211616 0.111615
H25   H     H_    0.095768 0.603612 0.326006 0.092486
O14   O     O_R   0.089190 0.825870 0.932320 -0.416296
O15   O     O_R   0.819070 0.053960 0.931440 -0.442135
C35   C     C_R   0.703122 0.103291 0.897535 0.548453
O16   O     O_R   0.607070 0.076440 0.916460 -0.521405
O17   O     O_R   0.647110 0.806550 0.917690 -0.474025
C36   C     C_R   0.755241 0.711566 0.883110 0.540709
O18   O     O_R   0.837080 0.593860 0.915300 -0.495772
O19   O     O_R   0.064770 0.636080 0.932550 -0.545365
C37   C     C_R   0.123275 0.704361 0.909328 0.557215
O20   O     O_R   0.068250 0.829200 0.092940 -0.471162
O21   O     O_R   0.799650 0.057040 0.080330 -0.478417
C38   C     C_R   0.673188 0.115427 0.101209 0.530673
O22   O     O_R   0.586130 0.079760 0.077080 -0.538183
O23   O     O_R   0.627700 0.809630 0.066580 -0.488571
C39   C     C_R   0.699280 0.691868 0.098319 0.569434
O24   O     O_R   0.816140 0.597180 0.075920 -0.487546
O25   O     O_R   0.045360 0.639170 0.081440 -0.503047
C40   C     C_R   0.023551 0.748886 0.119140 0.547795
Cr4   Cr    Cr6+3 0.937950 0.938450 0.008940 1.144270
Cr5   Cr    Cr6+3 0.626180 0.937030 0.994750 1.061673
Cr6   Cr    Cr6+3 0.937790 0.625760 0.001410 1.055076
O26   O     O_3   0.833980 0.833750 0.001700 -0.327095
N1    N     N_R   0.939787 0.087054 0.817418 0.130418
O27   O     O_R   0.048974 0.982456 0.788051 -0.259340
O28   O     O_R   0.958268 0.164524 0.865165 -0.289079
N2    N     N_R   0.901493 0.157184 0.667565 0.124902
O29   O     O_R   0.957482 0.075186 0.612207 -0.317880
O30   O     O_R   0.961554 0.225532 0.693914 -0.312623
N3    N     N_R   0.299553 0.721636 0.832397 0.089164
O31   O     O_R   0.325080 0.746493 0.767853 -0.361942
O32   O     O_R   0.342500 0.768355 0.886019 -0.315888
H26   H     H_    0.567039 0.725652 0.192798 0.116606
N4    N     N_R   0.712759 0.279540 0.182955 0.064420
O33   O     O_R   0.839743 0.233402 0.159652 -0.320737
O34   O     O_R   0.653103 0.397713 0.218830 -0.338786
H27   H     H_    0.472695 0.841526 0.688439 0.204697
H28   H     H_    0.547228 0.577873 0.714012 0.167318

loop_
_geom_bond_atom_site_label_1
_geom_bond_atom_site_label_2
_geom_bond_distance
_ccdc_geom_bond_type
C38   O22   1.269590 A    
C29   H19   1.086634 S    
O11   Cr3   2.051554 S    
C12   C13   1.552269 S    
C17   N1    1.437668 S    
C24   C25   1.349499 D    
O14   C37   1.256640 A    
N3    O32   1.302005 A    
C36   O18   1.295730 A    
O4    Cr2   1.939261 S    
C23   H18   1.086530 S    
O15   C35   1.272236 A    
N4    O33   1.301105 A    
C31   H25   1.085493 S    
C11   C36   1.479159 S    
C4    C31   1.449345 S    
H5    C13   1.113022 S    
O8    Cr1   1.933809 S    
C8    H3    1.112884 S    
N2    O29   1.301884 A    
C12   C14   1.553576 S    
C14   H8    1.109117 S    
C24   C39   1.445697 S    
C32   C40   1.439441 S    
O4    C2    1.275830 A    
N1    O27   1.298987 A    
C26   H17   1.087032 S    
C28   N4    1.449006 S    
C5    O11   1.270934 A    
C20   N3    1.449040 S    
O15   Cr4   1.936396 S    
O25   Cr6   1.940081 S    
C2    C12   1.469939 S    
C7    C8    1.541676 S    
C14   H28   1.109313 S    
O21   Cr4   1.953141 S    
O14   Cr4   2.073792 S    
O24   Cr6   2.060723 S    
O20   C40   1.293515 A    
O19   C37   1.275572 A    
N4    O34   1.301879 A    
O6    C3    1.270859 A    
C21   H13   1.082821 S    
C22   H14   1.086725 S    
C15   H12   1.084664 S    
C10   H6    1.113576 S    
C33   C34   1.462459 S    
C19   H15   1.086129 S    
O22   Cr5   2.064276 S    
N2    O30   1.301318 A    
Cr3   O13   1.984891 S    
N3    O31   1.298254 A    
O12   C6    1.273763 A    
C19   C22   1.346532 D    
O1    Cr1   2.052060 S    
O18   Cr6   2.060071 S    
C5    C23   1.441449 S    
O10   Cr2   1.948624 S    
C13   H10   1.112773 S    
Cr1   O13   1.969001 S    
O1    C3    1.274317 A    
C34   H23   1.086484 S    
O21   C38   1.269368 A    
Cr4   O26   1.968957 S    
O5    Cr3   2.059534 S    
O12   Cr3   1.940282 S    
C10   C14   1.525058 S    
C24   H26   1.084923 S    
C16   H11   1.084893 S    
C30   H20   1.087384 S    
O23   Cr5   1.930055 S    
C27   C30   1.347277 D    
C17   C18   1.491137 S    
O16   Cr5   2.048680 S    
C28   C29   1.338837 D    
O20   Cr4   2.055181 S    
C27   H21   1.085946 S    
C10   C11   1.547655 S    
O7    Cr1   2.070957 S    
C7    H1    1.112575 S    
Cr6   O26   1.971237 S    
O6    Cr3   1.931937 S    
C10   H7    1.106365 S    
C32   H24   1.084509 S    
O17   Cr5   1.944813 S    
C20   C21   1.347569 D    
Cr2   O13   1.971203 S    
C16   C35   1.469233 S    
N1    O28   1.301671 A    
C15   C18   1.357166 D    
C16   C17   1.358501 D    
C1    O3    1.268189 A    
C25   C26   1.442783 S    
O9    Cr2   2.056867 S    
O2    Cr1   1.953324 S    
C35   O16   1.274509 A    
O17   C36   1.297840 A    
C18   N2    1.443539 S    
Cr5   O26   1.983555 S    
C6    C27   1.437331 S    
C2    O5    1.265310 A    
C28   C38   1.452865 S    
C3    C15   1.467997 S    
C9    C13   1.540909 S    
C7    C11   1.561022 S    
H4    C9    1.112998 S    
O2    C1    1.262486 A    
C9    C11   1.548696 S    
C39   O24   1.256386 A    
O7    C6    1.254628 A    
C31   C34   1.338250 D    
O19   Cr6   1.944182 S    
C1    C19   1.455904 S    
O25   C40   1.297809 A    
C25   H16   1.085667 S    
C9    H9    1.110392 S    
C7    H2    1.112786 S    
C32   C33   1.339382 D    
C29   C30   1.438767 S    
O3    Cr2   2.069998 S    
C20   C37   1.464721 S    
C8    C12   1.549557 S    
C4    O9    1.261314 A    
C21   C22   1.460484 S    
O10   C5    1.267638 A    
C33   H22   1.087045 S    
O23   C39   1.274386 A    
C8    H27   1.112553 S    
O8    C4    1.264916 A    
C23   C26   1.326969 D    
