data_mof_unit_56947.cif
_audit_creation_date              2012-12-11T14:56:22-0500
_audit_creation_method            fapswitch 2.2
_symmetry_space_group_name_H-M    P1
_symmetry_Int_Tables_number       1
_space_group_crystal_system       triclinic
_cell_length_a                    10.591358
_cell_length_b                    10.680135
_cell_length_c                    17.162305
_cell_angle_alpha                 80.741598
_cell_angle_beta                  89.513844
_cell_angle_gamma                 119.41888
_cell_volume                      1660.31893682

loop_
_atom_site_label
_atom_site_type_symbol
_atom_type_description
_atom_site_fract_x
_atom_site_fract_y
_atom_site_fract_z
_atom_type_partial_charge
C1    C     C_R   0.222735 0.854487 0.128703 0.547186
C2    C     C_1   0.651481 0.345883 0.707661 -0.048549
C3    C     C_R   0.631876 0.716127 0.803866 -0.135818
C4    C     C_R   0.635988 0.279313 0.086623 0.544156
C5    C     C_R   0.621314 0.699235 0.725975 -0.122513
C6    C     C_R   0.668957 0.821998 0.665070 0.037083
C7    C     C_R   0.733599 0.962684 0.682027 -0.157540
C8    C     C_R   0.743426 0.979779 0.760447 -0.136101
C9    C     C_R   0.687268 0.855650 0.821481 0.028178
C10   C     C_R   0.102283 0.902360 0.789129 -0.106879
C11   C     C_R   0.105954 0.916433 0.707926 -0.002468
C12   C     C_R   0.797893 0.419811 0.263610 -0.127530
C13   C     C_R   0.120717 0.811790 0.671811 0.038808
C14   C     C_R   0.142295 0.704808 0.718657 -0.147100
C15   C     C_R   0.159451 0.707378 0.798633 -0.132109
C16   C     C_R   0.640170 0.858700 0.125510 0.551435
C17   C     C_R   0.145162 0.810938 0.832867 0.008983
C18   C     C_R   0.686922 0.809574 0.357081 0.553616
C19   C     C_R   0.689845 0.396744 0.394500 0.546155
C20   C     C_R   0.103512 0.810082 0.359095 0.551910
C21   C     C_R   0.677540 0.800370 0.585326 0.541303
C22   C     C_R   0.679023 0.383231 0.624591 0.547044
C23   C     C_R   0.787712 0.406505 0.185268 -0.136452
C24   C     C_R   0.088955 0.799871 0.589957 0.551601
C25   C     C_R   0.214838 0.856923 0.903220 0.545661
C26   C     C_R   0.637359 0.283984 0.860869 0.545791
C27   C     C_R   0.646660 0.867306 0.899049 0.543731
C28   C     C_R   0.525038 0.301339 0.206618 -0.125976
C29   C     C_R   0.535669 0.316856 0.285350 -0.134348
C30   C     C_R   0.671496 0.369951 0.314666 0.033530
C31   C     C_3   0.103181 0.050010 0.663715 -0.359484
C32   C     C_R   0.650742 0.339986 0.157552 0.026662
C33   C     C_1   0.668830 0.848989 0.205482 -0.026566
C34   C     C_1   0.680549 0.839105 0.274785 -0.028536
C35   C     C_1   0.180206 0.825826 0.211103 -0.045447
C36   C     C_1   0.150775 0.819368 0.279674 -0.045494
C37   C     C_1   0.644385 0.323464 0.778142 -0.045506
Cr1   Cr    Cr6+3 0.402240 0.783890 0.019450 1.026695
Cr2   Cr    Cr6+3 0.382360 0.097900 0.991800 1.021881
Cr3   Cr    Cr6+3 0.715380 0.118170 0.988700 1.024818
Cr4   Cr    Cr6+3 0.936650 0.882420 0.465510 1.016789
Cr5   Cr    Cr6+3 0.605770 0.565620 0.493360 1.022126
Cr6   Cr    Cr6+3 0.921340 0.550490 0.496380 1.021484
H1    H     H_    0.417836 0.250012 0.185954 0.145569
H2    H     H_    0.785147 0.088600 0.773256 0.144549
H3    H     H_    0.085487 0.978091 0.816905 0.139521
H4    H     H_    0.200163 0.115848 0.619381 0.152368
H5    H     H_    0.002011 0.017472 0.634562 0.180167
H6    H     H_    0.107039 0.124085 0.703454 0.102678
H7    H     H_    0.151486 0.623158 0.692816 0.133409
H8    H     H_    0.191312 0.634321 0.832290 0.139699
H9    H     H_    0.438443 0.283935 0.323615 0.131906
H10   H     H_    0.905354 0.469469 0.284117 0.144023
H11   H     H_    0.885929 0.439377 0.147862 0.135846
H12   H     H_    0.588342 0.619694 0.850468 0.127075
H13   H     H_    0.577643 0.590070 0.713301 0.136719
H14   H     H_    0.775711 0.058105 0.634882 0.122935
O1    O     O_R   0.521780 0.757110 0.108900 -0.508788
O2    O     O_R   0.805020 0.410040 0.421340 -0.523856
O3    O     O_R   0.049240 0.685450 0.403290 -0.500995
O4    O     O_R   0.275160 0.783810 0.101120 -0.499083
O5    O     O_R   0.077520 0.903010 0.551800 -0.532061
O6    O     O_R   0.802980 0.872780 0.546830 -0.515024
O7    O     O_R   0.578090 0.681300 0.569920 -0.519690
O8    O     O_R   0.608530 0.436370 0.586530 -0.505389
O9    O     O_R   0.798770 0.401880 0.597100 -0.515369
O10   O     O_R   0.043450 0.677890 0.566230 -0.502413
O11   O     O_3   0.821250 0.666180 0.485090 -0.257525
O12   O     O_R   0.513330 0.228330 0.898660 -0.499103
O13   O     O_R   0.237900 0.972600 0.090980 -0.513487
O14   O     O_R   0.511190 0.220540 0.061620 -0.509915
O15   O     O_R   0.736920 0.257720 0.063840 -0.516990
O16   O     O_R   0.710450 0.984050 0.081720 -0.496094
O17   O     O_R   0.524090 0.765520 0.933110 -0.517388
O18   O     O_R   0.277300 0.791600 0.938160 -0.502751
O19   O     O_R   0.240210 0.981010 0.915190 -0.523157
O20   O     O_R   0.739230 0.266130 0.888050 -0.516106
O21   O     O_R   0.712580 0.991850 0.918770 -0.509119
O22   O     O_3   0.499990 0.999980 0.999980 -0.252061
O23   O     O_R   0.083770 0.911170 0.376030 -0.507372
O24   O     O_R   0.808770 0.880340 0.383890 -0.495346
O25   O     O_R   0.584340 0.689460 0.394160 -0.507702
O26   O     O_R   0.614320 0.443940 0.423590 -0.501890

loop_
_geom_bond_atom_site_label_1
_geom_bond_atom_site_label_2
_ccdc_geom_bond_type
C5    H13   S    
C35   C36   T    
Cr5   O25   S    
C27   O21   A    
Cr4   O23   S    
C7    C8    A    
C12   C23   A    
C1    C35   S    
C28   C29   A    
C5    C6    A    
Cr1   O22   S    
C10   C17   A    
C18   O24   A    
Cr3   O16   S    
C8    H2    S    
C22   O9    A    
C21   O7    A    
C24   O10   A    
Cr1   O1    S    
C3    H12   S    
C8    C9    A    
C10   H3    S    
Cr5   O8    S    
C15   H8    S    
C20   O3    A    
C27   O17   A    
C12   H10   S    
Cr6   O2    S    
Cr1   O4    S    
C11   C31   S    
C31   H4    S    
C13   C14   A    
Cr5   O11   S    
Cr4   O5    S    
C31   H6    S    
C19   O26   A    
Cr4   O11   S    
Cr1   O18   S    
C26   O20   A    
C20   O23   A    
C16   O16   A    
C28   C32   A    
Cr6   O11   S    
C19   O2    A    
C6    C21   S    
C28   H1    S    
C13   C24   S    
C25   O18   A    
Cr2   O22   S    
C22   O8    A    
C2    C22   S    
C29   C30   A    
C3    C9    A    
C16   C33   S    
Cr4   O24   S    
C33   C34   T    
Cr2   O12   S    
Cr3   O22   S    
C16   O1    A    
Cr2   O19   S    
C18   C34   S    
C4    C32   S    
Cr6   O3    S    
C31   H5    S    
Cr3   O21   S    
Cr4   O6    S    
Cr5   O7    S    
C4    O15   A    
C9    C27   S    
C23   H11   S    
Cr1   O17   S    
C15   C17   A    
C24   O5    A    
Cr3   O15   S    
C12   C30   A    
Cr3   O20   S    
Cr5   O26   S    
C3    C5    A    
C1    O4    A    
C26   C37   S    
C6    C7    A    
C1    O13   A    
C25   O19   A    
C17   C25   S    
C23   C32   A    
C11   C13   A    
C2    C37   T    
C14   H7    S    
Cr6   O9    S    
C18   O25   A    
Cr2   O13   S    
C21   O6    A    
C10   C11   A    
C20   C36   S    
Cr6   O10   S    
C26   O12   A    
Cr2   O14   S    
C14   C15   A    
C19   C30   S    
C7    H14   S    
C4    O14   A    
C29   H9    S    
