data_mof_unit_30055.cif
_audit_creation_date              2012-10-26T21:06:55-0400
_audit_creation_method            fapswitch 2.2
_symmetry_space_group_name_H-M    P1
_symmetry_Int_Tables_number       1
_space_group_crystal_system       triclinic
_cell_length_a                    10.731197
_cell_length_b                    8.729334
_cell_length_c                    7.474004
_cell_angle_alpha                 102.770836
_cell_angle_beta                  94.436819
_cell_angle_gamma                 93.008616
_cell_volume                      679.024511777

loop_
_atom_site_label
_atom_site_type_symbol
_atom_type_description
_atom_site_fract_x
_atom_site_fract_y
_atom_site_fract_z
_atom_type_partial_charge
C1    C     C_R   0.504564 0.201217 0.453249 0.554942
C2    C     C_3   0.077265 0.426704 0.664651 -0.233248
C3    C     C_3   0.931948 0.411288 0.647271 -0.133278
C4    C     C_3   0.082438 0.657776 0.510137 -0.214609
C5    C     C_3   0.059475 0.374863 0.321385 -0.215557
C6    C     C_3   0.122801 0.487962 0.500084 0.025990
C7    C     C_3   0.887724 0.463673 0.130596 -0.408613
C8    C     C_3   0.879570 0.788434 0.455044 -0.427884
C9    C     C_3   0.571179 0.955651 0.244094 -0.370636
C10   C     C_3   0.881477 0.238183 0.623776 -0.430779
C11   C     C_3   0.878194 0.493422 0.492048 0.095871
C12   C     C_3   0.942417 0.665140 0.542963 -0.115611
C13   C     C_3   0.917305 0.397206 0.302162 -0.086943
C14   C     C_2   0.524790 0.036801 0.426090 -0.049958
C15   C     C_2   0.505948 0.967144 0.566040 -0.142602
C16   C     C_R   0.260256 0.491260 0.500326 0.543762
C17   C     C_R   0.506571 0.800024 0.545386 0.545768
C18   C     C_R   0.739875 0.497034 0.497039 0.545256
Cu1   Cu    Cu3+1 0.514070 0.517380 0.684380 0.913498
Cu2   Cu    Cu3+1 0.485930 0.482620 0.315620 0.918134
H1    H     H_    0.100878 0.693478 0.380046 0.133672
H2    H     H_    0.793136 0.504383 0.114653 0.173218
H3    H     H_    0.957043 0.560159 0.122249 0.116210
H4    H     H_    0.785411 0.807552 0.504055 0.141069
H5    H     H_    0.936717 0.901954 0.499327 0.116382
H6    H     H_    0.870366 0.756755 0.303207 0.132919
H7    H     H_    0.607449 0.041679 0.167836 0.136011
H8    H     H_    0.650597 0.884267 0.268212 0.112805
H9    H     H_    0.493528 0.881217 0.154095 0.168243
H10   H     H_    0.482084 0.034222 0.698190 0.110158
H11   H     H_    0.599243 0.621140 0.050967 0.225062
H12   H     H_    0.400784 0.378669 0.948874 0.235725
H13   H     H_    0.116922 0.312092 0.669220 0.120041
H14   H     H_    0.918491 0.190788 0.741753 0.118448
H15   H     H_    0.777746 0.227903 0.617611 0.162463
H16   H     H_    0.911505 0.162167 0.497944 0.119577
H17   H     H_    0.138895 0.742876 0.624439 0.104582
H18   H     H_    0.903277 0.477517 0.779691 0.141898
H19   H     H_    0.938366 0.711759 0.693747 0.120996
H20   H     H_    0.103670 0.392904 0.197022 0.141259
H21   H     H_    0.074420 0.250691 0.326883 0.093881
H22   H     H_    0.865441 0.279283 0.270340 0.126158
H23   H     H_    0.112167 0.510658 0.796302 0.118974
H24   H     H_    0.894391 0.365747 0.010650 0.115236
N1    N     N_2   0.464720 0.456420 0.038520 -0.260780
N2    N     N_2   0.535280 0.543580 0.961480 -0.266522
O1    O     O_R   0.509140 0.286130 0.619770 -0.516839
O2    O     O_R   0.485380 0.256770 0.308360 -0.499985
O3    O     O_R   0.329570 0.514650 0.655700 -0.506471
O4    O     O_R   0.305810 0.485300 0.344290 -0.510241
O5    O     O_R   0.514620 0.743230 0.691640 -0.502798
O6    O     O_R   0.490860 0.713870 0.380230 -0.498169
O7    O     O_R   0.694190 0.514700 0.655710 -0.520075
O8    O     O_R   0.670430 0.485350 0.344300 -0.516610

loop_
_geom_bond_atom_site_label_1
_geom_bond_atom_site_label_2
_ccdc_geom_bond_type
C10   H16   S    
C9    C14   S    
C11   C18   S    
C10   H15   S    
C8    H5    S    
C8    C12   S    
C4    C12   S    
C7    H2    S    
C8    H6    S    
H12   N1    S    
Cu1   O3    S    
C5    C13   S    
Cu2   N1    S    
C9    H9    S    
C2    H23   S    
C11   C12   S    
Cu1   O7    S    
C12   H19   S    
C2    C3    S    
C9    H8    S    
Cu1   N2    S    
Cu2   O6    S    
C3    C10   S    
C2    C6    S    
C7    H24   S    
C16   O3    A    
C4    H1    S    
C11   C13   S    
Cu2   O8    S    
C17   O5    A    
Cu2   O2    S    
C7    H3    S    
C17   O6    A    
C4    C6    S    
C13   H22   S    
C8    H4    S    
C16   O4    A    
C1    O2    A    
C5    C6    S    
Cu1   O1    S    
C3    C11   S    
C18   O8    A    
C6    C16   S    
Cu1   O5    S    
C7    C13   S    
C4    H17   S    
C9    H7    S    
C15   H10   S    
C10   H14   S    
C5    H20   S    
C15   C17   S    
C5    H21   S    
C14   C15   D    
C1    O1    A    
Cu2   O4    S    
C1    C14   S    
C18   O7    A    
N1    N2    D    
Cu1   Cu2   S    
C3    H18   S    
C2    H13   S    
H11   N2    S    
