data_mof_unit_66701.cif
_audit_creation_date              2012-12-11T14:28:33-0500
_audit_creation_method            fapswitch 2.2
_symmetry_space_group_name_H-M    P1
_symmetry_Int_Tables_number       1
_space_group_crystal_system       triclinic
_cell_length_a                    11.231006
_cell_length_b                    20.239081
_cell_length_c                    18.671845
_cell_angle_alpha                 90.194114
_cell_angle_beta                  90.422836
_cell_angle_gamma                 90.208636
_cell_volume                      4244.0397528

loop_
_atom_site_label
_atom_site_type_symbol
_atom_type_description
_atom_site_fract_x
_atom_site_fract_y
_atom_site_fract_z
_atom_type_partial_charge
C1    C     C_R   0.315817 0.961748 0.644121 0.535351
C2    C     C_R   0.313007 0.940898 0.861242 0.517964
C3    C     C_R   0.316637 0.036716 0.354855 0.537180
C4    C     C_R   0.313467 0.058112 0.137528 0.533800
C5    C     C_R   0.811568 0.436543 0.638775 0.533427
C6    C     C_R   0.812550 0.440120 0.861243 0.527463
C7    C     C_R   0.815738 0.536939 0.355413 0.526788
C8    C     C_R   0.815477 0.537142 0.144571 0.534277
C9    C     C_3   0.203850 0.714217 0.454751 0.152943
C10   C     C_3   0.154234 0.691297 0.024375 0.189321
C11   C     C_3   0.206966 0.285756 0.549567 0.183872
C12   C     C_3   0.158450 0.300000 0.974177 0.168256
C13   C     C_3   0.709213 0.217785 0.456281 0.145564
C14   C     C_3   0.655334 0.190441 0.026757 0.183539
C15   C     C_3   0.710578 0.774310 0.550015 0.142299
C16   C     C_3   0.656920 0.797782 0.975746 0.178549
C17   C     C_3   0.093766 0.744765 0.422697 0.005689
C18   C     C_3   0.036543 0.713431 0.061063 0.024806
C19   C     C_3   0.097649 0.252718 0.579365 -0.007799
C20   C     C_3   0.038290 0.281508 0.937615 -0.000901
C21   C     C_3   0.600174 0.243566 0.418537 0.031463
C22   C     C_3   0.536280 0.213131 0.061162 0.011527
C23   C     C_3   0.595364 0.748789 0.580233 0.005409
C24   C     C_3   0.536964 0.780122 0.938694 -0.006131
C25   C     C_R   0.309287 0.013625 0.427151 -0.020710
C26   C     C_R   0.306958 0.032669 0.063548 -0.035726
C27   C     C_R   0.307433 0.982342 0.570639 -0.023902
C28   C     C_R   0.304059 0.969265 0.931269 -0.033739
C29   C     C_R   0.804843 0.508987 0.426547 -0.026716
C30   C     C_R   0.805496 0.511803 0.072392 -0.038848
C31   C     C_R   0.800711 0.455175 0.563579 -0.042557
C32   C     C_R   0.802226 0.465129 0.933159 -0.032281
C33   C     C_R   0.527704 0.041510 0.446796 -0.082102
C34   C     C_R   0.524721 0.043569 0.052820 -0.067153
C35   C     C_R   0.522561 0.951613 0.554230 -0.078565
C36   C     C_R   0.520481 0.951045 0.948154 -0.063396
C37   C     C_R   0.016107 0.540810 0.451498 -0.080036
C38   C     C_R   0.019934 0.539381 0.054534 -0.068787
C39   C     C_R   0.020142 0.442986 0.551264 -0.069145
C40   C     C_R   0.022825 0.449378 0.947889 -0.063371
C41   C     C_R   0.634250 0.019678 0.476378 -0.101742
C42   C     C_R   0.629575 0.015894 0.029974 -0.072258
C43   C     C_R   0.631661 0.973666 0.530114 -0.091504
C44   C     C_R   0.626054 0.969931 0.978177 -0.084339
C45   C     C_R   0.124346 0.520154 0.479069 -0.097268
C46   C     C_R   0.126485 0.517063 0.029376 -0.075378
C47   C     C_R   0.126411 0.471495 0.529719 -0.091531
C48   C     C_R   0.128312 0.471538 0.977194 -0.079643
C49   C     C_R   0.414174 0.980879 0.531219 -0.039682
C50   C     C_R   0.411733 0.979814 0.968600 -0.016305
C51   C     C_R   0.416037 0.014053 0.467821 -0.033299
C52   C     C_R   0.413482 0.020388 0.028010 -0.024523
C53   C     C_R   0.908830 0.466610 0.527389 -0.032946
C54   C     C_R   0.910753 0.473501 0.970915 -0.023121
C55   C     C_R   0.908670 0.507106 0.468438 -0.029528
C56   C     C_R   0.910611 0.510027 0.032642 -0.021229
C57   C     C_R   0.191539 0.996135 0.536232 0.028728
C58   C     C_R   0.188896 0.987211 0.961492 -0.022003
C59   C     C_R   0.192480 0.999043 0.459665 0.035470
C60   C     C_R   0.194023 0.012800 0.031311 -0.004375
C61   C     C_R   0.685190 0.471870 0.530397 0.010138
C62   C     C_R   0.685759 0.483140 0.964581 -0.029903
C63   C     C_R   0.688027 0.490392 0.456458 0.027065
C64   C     C_R   0.688975 0.496595 0.039632 -0.033502
C65   C     C_R   0.073388 0.004158 0.571079 0.328091
C66   C     C_R   0.066591 0.980898 0.929677 0.247457
C67   C     C_R   0.074886 0.991054 0.422437 0.329414
C68   C     C_R   0.083385 0.021370 0.065778 0.274705
C69   C     C_R   0.566084 0.474118 0.564812 0.308860
C70   C     C_R   0.565340 0.488302 0.929003 0.239543
C71   C     C_R   0.570701 0.491821 0.419336 0.333691
C72   C     C_R   0.573210 0.498969 0.075832 0.262717
C73   C     C_R   0.969529 0.005180 0.530965 -0.012367
C74   C     C_R   0.968254 0.980282 0.973599 -0.170913
C75   C     C_R   0.970257 0.989007 0.460671 -0.020514
C76   C     C_R   0.981011 0.990340 0.044859 -0.145212
C77   C     C_R   0.468675 0.499009 0.528998 -0.038685
C78   C     C_R   0.466163 0.506368 0.967621 -0.138418
C79   C     C_R   0.466334 0.495554 0.457124 0.007419
C80   C     C_R   0.469639 0.509100 0.039106 -0.128381
C81   C     C_R   0.184923 0.770834 0.636545 0.555614
C82   C     C_R   0.133044 0.755870 0.853456 0.568940
C83   C     C_R   0.187511 0.228902 0.363937 0.555046
C84   C     C_R   0.138310 0.241611 0.143795 0.595756
C85   C     C_R   0.677195 0.269927 0.635442 0.523533
C86   C     C_R   0.636480 0.256680 0.854848 0.578470
C87   C     C_R   0.685016 0.728696 0.364091 0.547166
C88   C     C_R   0.634315 0.742542 0.145727 0.562627
C89   C     C_R   0.545626 0.769075 0.648605 0.525092
C90   C     C_R   0.502072 0.786944 0.862255 0.524686
C91   C     C_R   0.548509 0.230289 0.349537 0.527696
C92   C     C_R   0.498743 0.211147 0.138031 0.528885
C93   C     C_R   0.044355 0.270223 0.647593 0.518919
C94   C     C_R   0.001171 0.287562 0.861888 0.529407
C95   C     C_R   0.043215 0.729078 0.353048 0.523159
C96   C     C_R   0.999963 0.711586 0.137951 0.548686
C97   C     C_3   0.132730 0.809519 0.451756 0.109594
C98   C     C_3   0.039140 0.777574 0.021234 0.085406
C99   C     C_3   0.141487 0.188616 0.551118 0.107007
C100  C     C_3   0.040193 0.214211 0.974018 0.140517
C101  C     C_3   0.624408 0.309173 0.449014 0.138114
C102  C     C_3   0.544211 0.278486 0.022720 0.079689
C103  C     C_3   0.620232 0.682722 0.547552 0.144499
C104  C     C_3   0.533690 0.714215 0.977839 0.097938
C105  C     C_3   0.243984 0.780974 0.487339 -0.140423
C106  C     C_3   0.159283 0.760310 0.987871 -0.114071
C107  C     C_3   0.251721 0.219765 0.517730 -0.113511
C108  C     C_3   0.162007 0.230434 0.007904 -0.087156
C109  C     C_3   0.733931 0.286401 0.490708 -0.155674
C110  C     C_3   0.664994 0.259442 0.990724 -0.134031
C111  C     C_3   0.737670 0.706330 0.514857 -0.142476
C112  C     C_3   0.656103 0.729102 0.011813 -0.091920
C113  C     C_3   0.165907 0.766226 0.555723 0.012713
C114  C     C_3   0.086906 0.734664 0.923532 0.062834
C115  C     C_3   0.175224 0.232654 0.446636 0.016865
C116  C     C_3   0.092569 0.256401 0.072049 0.089197
C117  C     C_3   0.649328 0.268125 0.554820 -0.014273
C118  C     C_3   0.593269 0.235913 0.925467 0.063260
C119  C     C_3   0.665869 0.729496 0.445938 0.011139
C120  C     C_3   0.587747 0.757506 0.074997 0.061000
C121  C     C_3   0.057749 0.797690 0.518166 0.250801
C122  C     C_3   0.965970 0.749080 0.955119 0.206286
C123  C     C_3   0.068923 0.198779 0.482831 0.242128
C124  C     C_3   0.969086 0.242654 0.039909 0.254279
C125  C     C_3   0.538685 0.293932 0.510781 0.256885
C126  C     C_3   0.471780 0.251682 0.955538 0.204321
C127  C     C_3   0.551601 0.701883 0.479960 0.246712
C128  C     C_3   0.464609 0.744806 0.043453 0.223725
C129  C     C_3   0.019376 0.729524 0.488628 -0.126376
C130  C     C_3   0.968058 0.683084 0.997121 -0.139066
C131  C     C_3   0.025538 0.265593 0.511401 -0.143567
C132  C     C_3   0.971296 0.310625 0.002734 -0.166949
C133  C     C_3   0.520525 0.223771 0.479447 -0.122748
C134  C     C_3   0.469956 0.184292 0.995554 -0.139107
C135  C     C_3   0.525492 0.770247 0.513986 -0.139612
C136  C     C_3   0.470822 0.811639 0.002764 -0.139707
C137  C     C_3   0.130859 0.698196 0.521890 0.122443
C138  C     C_3   0.085564 0.665583 0.958265 0.143773
C139  C     C_3   0.135467 0.299707 0.480122 0.137273
C140  C     C_3   0.091011 0.325073 0.039709 0.125428
C141  C     C_3   0.630600 0.198829 0.519567 0.112972
C142  C     C_3   0.589304 0.166550 0.959339 0.150310
C143  C     C_3   0.641896 0.796658 0.483040 0.119678
C144  C     C_3   0.590406 0.825354 0.040411 0.138835
Cr1   Cr    Cr6+3 0.488160 0.884660 0.750000 0.967449
Cr2   Cr    Cr6+3 0.488160 0.115340 0.250000 0.938912
Cr3   Cr    Cr6+3 0.988160 0.384660 0.750000 0.955833
Cr4   Cr    Cr6+3 0.988160 0.615340 0.250000 0.953855
Cr5   Cr    Cr6+3 0.173480 0.883120 0.750000 1.132177
Cr6   Cr    Cr6+3 0.173480 0.116880 0.250000 1.123230
Cr7   Cr    Cr6+3 0.673480 0.383120 0.750000 1.114835
Cr8   Cr    Cr6+3 0.673480 0.616880 0.250000 1.126514
Cr9   Cr    Cr6+3 0.333410 0.727260 0.750000 0.983865
Cr10  Cr    Cr6+3 0.333410 0.272740 0.250000 1.047589
Cr11  Cr    Cr6+3 0.833410 0.227260 0.750000 1.016365
Cr12  Cr    Cr6+3 0.833410 0.772740 0.250000 1.019202
H1    H     H_    0.312439 0.816913 0.473581 0.107823
H2    H     H_    0.233197 0.795645 0.982525 0.123681
H3    H     H_    0.328044 0.191972 0.537245 0.106797
H4    H     H_    0.233732 0.194425 0.014108 0.137428
H5    H     H_    0.795246 0.328933 0.488300 0.096537
H6    H     H_    0.739306 0.294203 0.986528 0.116554
H7    H     H_    0.802697 0.666745 0.524203 0.102166
H8    H     H_    0.726892 0.692216 0.018253 0.126570
H9    H     H_    0.883404 0.012327 0.555427 0.145522
H10   H     H_    0.880367 0.974295 0.952429 0.128449
H11   H     H_    0.884824 0.981627 0.434496 0.142743
H12   H     H_    0.902558 0.991418 0.077971 0.125325
H13   H     H_    0.384933 0.508706 0.555415 0.134621
H14   H     H_    0.379913 0.514965 0.943117 0.134399
H15   H     H_    0.380722 0.499926 0.430462 0.161655
H16   H     H_    0.386586 0.513097 0.066735 0.134266
H17   H     H_    0.938385 0.705927 0.470441 0.093933
H18   H     H_    0.896123 0.645927 0.002915 0.117949
H19   H     H_    0.939947 0.284493 0.524175 0.101494
H20   H     H_    0.899231 0.347393 0.001192 0.106825
H21   H     H_    0.449536 0.190127 0.460475 0.098835
H22   H     H_    0.397802 0.147293 0.998190 0.122622
H23   H     H_    0.456077 0.804073 0.530556 0.088331
H24   H     H_    0.399493 0.848952 0.998269 0.110247
H25   H     H_    0.718204 0.039020 0.458714 0.120321
H26   H     H_    0.715553 0.027351 0.050492 0.106648
H27   H     H_    0.713094 0.952814 0.550670 0.135512
H28   H     H_    0.705893 0.946064 0.966818 0.109106
H29   H     H_    0.206169 0.543879 0.464475 0.122437
H30   H     H_    0.208975 0.535704 0.046384 0.104841
H31   H     H_    0.210562 0.455114 0.550063 0.140733
H32   H     H_    0.213599 0.455082 0.961483 0.112034
H33   H     H_    0.536031 0.083276 0.412624 0.186070
H34   H     H_    0.531533 0.085195 0.086506 0.164138
H35   H     H_    0.524378 0.907997 0.585666 0.186469
H36   H     H_    0.526226 0.909523 0.914156 0.161690
H37   H     H_    0.017978 0.585922 0.421567 0.175518
H38   H     H_    0.026801 0.582689 0.086342 0.168392
H39   H     H_    0.024889 0.400311 0.583416 0.174678
H40   H     H_    0.032233 0.410346 0.911295 0.169180
O1    O     O_R   0.575450 0.828820 0.667950 -0.556270
O2    O     O_R   0.575450 0.828820 0.832050 -0.552261
O3    O     O_R   0.575450 0.171180 0.332050 -0.565487
O4    O     O_R   0.575450 0.171180 0.167950 -0.562584
O5    O     O_R   0.075450 0.328820 0.667950 -0.566388
O6    O     O_R   0.075450 0.328820 0.832050 -0.560819
O7    O     O_R   0.075450 0.671180 0.332050 -0.552704
O8    O     O_R   0.075450 0.671180 0.167950 -0.557081
O9    O     O_R   0.416860 0.942890 0.674680 -0.532748
O10   O     O_R   0.416860 0.942890 0.825320 -0.529826
O11   O     O_R   0.416860 0.057110 0.325320 -0.537139
O12   O     O_R   0.416860 0.057110 0.174680 -0.551910
O13   O     O_R   0.916860 0.442890 0.674680 -0.519958
O14   O     O_R   0.916860 0.442890 0.825320 -0.530625
O15   O     O_R   0.916860 0.557110 0.325320 -0.535126
O16   O     O_R   0.916860 0.557110 0.174680 -0.555710
O17   O     O_R   0.213790 0.953680 0.668330 -0.427025
O18   O     O_R   0.213790 0.953680 0.831670 -0.428664
O19   O     O_R   0.213790 0.046320 0.331670 -0.435743
O20   O     O_R   0.213790 0.046320 0.168330 -0.451580
O21   O     O_R   0.713790 0.453680 0.668330 -0.450726
O22   O     O_R   0.713790 0.453680 0.831670 -0.427481
O23   O     O_R   0.713790 0.546320 0.331670 -0.430991
O24   O     O_R   0.713790 0.546320 0.168330 -0.435575
O25   O     O_R   0.121360 0.817890 0.672660 -0.450135
O26   O     O_R   0.121360 0.817890 0.827340 -0.501283
O27   O     O_R   0.121360 0.182110 0.327340 -0.460929
O28   O     O_R   0.121360 0.182110 0.172660 -0.422241
O29   O     O_R   0.621360 0.317890 0.672660 -0.460845
O30   O     O_R   0.621360 0.317890 0.827340 -0.485750
O31   O     O_R   0.621360 0.682110 0.327340 -0.454767
O32   O     O_R   0.621360 0.682110 0.172660 -0.495400
O33   O     O_R   0.206850 0.711370 0.665820 -0.532579
O34   O     O_R   0.206850 0.711370 0.834180 -0.550354
O35   O     O_R   0.206850 0.288630 0.334180 -0.518813
O36   O     O_R   0.206850 0.288630 0.165820 -0.544697
O37   O     O_R   0.706850 0.211370 0.665820 -0.516501
O38   O     O_R   0.706850 0.211370 0.834180 -0.540654
O39   O     O_R   0.706850 0.788630 0.334180 -0.528780
O40   O     O_R   0.706850 0.788630 0.165820 -0.535244
O41   O     O_R   0.457710 0.733190 0.672630 -0.512301
O42   O     O_R   0.457710 0.733190 0.827370 -0.508887
O43   O     O_R   0.457710 0.266810 0.327370 -0.496321
O44   O     O_R   0.457710 0.266810 0.172630 -0.467656
O45   O     O_R   0.957710 0.233190 0.672630 -0.504748
O46   O     O_R   0.957710 0.233190 0.827370 -0.475233
O47   O     O_R   0.957710 0.766810 0.327370 -0.513300
O48   O     O_R   0.957710 0.766810 0.172630 -0.470641
O49   O     O_3   0.331690 0.831680 0.750000 -0.346951
O50   O     O_3   0.331690 0.168320 0.250000 -0.352580
O51   O     O_3   0.831690 0.331680 0.750000 -0.360091
O52   O     O_3   0.831690 0.668320 0.250000 -0.338887
N1    N     N_2   0.130386 0.863599 0.402814 -0.490623
H41   H     H_    0.044051 0.868795 0.385273 0.315246
C145  C     C_3   0.213827 0.861294 0.343537 -0.273683
H42   H     H_    0.225111 0.910843 0.320015 0.203319
H43   H     H_    0.180153 0.828370 0.300330 0.155869
H44   H     H_    0.303417 0.845836 0.360930 0.102191
N2    N     N_2   0.021063 0.840168 0.055032 -0.512746
H45   H     H_    0.006536 0.872580 0.014977 0.247878
C146  C     C_3   0.114340 0.862122 0.103981 -0.231170
H46   H     H_    0.080168 0.902282 0.138581 0.173294
H47   H     H_    0.192601 0.880287 0.073774 0.140577
H48   H     H_    0.143712 0.821959 0.139964 0.228880
N3    N     N_2   0.137703 0.133191 0.598326 -0.487746
H49   H     H_    0.050269 0.127148 0.612680 0.316336
C147  C     C_3   0.214968 0.135865 0.661008 -0.268999
H50   H     H_    0.305521 0.152406 0.647388 0.106053
H51   H     H_    0.223758 0.086174 0.684739 0.212658
H52   H     H_    0.176918 0.168618 0.702644 0.154524
N4    N     N_2   0.021244 0.155354 0.930670 -0.490098
H53   H     H_    0.976372 0.116182 0.952203 0.287770
C148  C     C_3   0.117964 0.138516 0.882975 -0.199330
H54   H     H_    0.083972 0.109355 0.837267 0.219249
H55   H     H_    0.188810 0.111658 0.912251 0.173404
H56   H     H_    0.156766 0.183240 0.858609 0.213171
N5    N     N_2   0.625334 0.362365 0.397876 -0.485182
H57   H     H_    0.541872 0.367575 0.376061 0.340292
C149  C     C_3   0.714374 0.360040 0.341874 -0.284579
H58   H     H_    0.730321 0.410041 0.320330 0.204088
H59   H     H_    0.683554 0.328601 0.296594 0.147955
H60   H     H_    0.799758 0.341623 0.362350 0.106838
N6    N     N_2   0.537876 0.339884 0.061510 -0.486002
H61   H     H_    0.527829 0.379483 0.027950 0.254440
C150  C     C_3   0.633581 0.347067 0.114511 -0.197443
H62   H     H_    0.599070 0.363586 0.166401 0.232005
H63   H     H_    0.706698 0.378574 0.094451 0.136643
H64   H     H_    0.671927 0.299339 0.129847 0.211248
N7    N     N_2   0.601720 0.622693 0.588168 -0.491079
H65   H     H_    0.513166 0.615796 0.600351 0.284808
C151  C     C_3   0.678018 0.614415 0.650247 -0.275126
H66   H     H_    0.648797 0.570583 0.680869 0.219995
H67   H     H_    0.671979 0.657499 0.686753 0.138685
H68   H     H_    0.771463 0.607057 0.633603 0.140496
N8    N     N_2   0.515258 0.651978 0.941475 -0.518297
H69   H     H_    0.431506 0.647923 0.919729 0.264037
C152  C     C_3   0.609055 0.635311 0.891337 -0.216761
H70   H     H_    0.574255 0.603345 0.848131 0.198298
H71   H     H_    0.683834 0.611088 0.919873 0.177214
H72   H     H_    0.644165 0.679352 0.863692 0.218062
Cl1   Cl    Cl    0.987054 0.865492 0.552668 -0.644925
Cl2   Cl    Cl    0.866926 0.721527 0.885066 -0.745819
Cl3   Cl    Cl    0.002901 0.129535 0.447794 -0.649710
Cl4   Cl    Cl    0.879824 0.253579 0.116777 -0.738010
Cl5   Cl    Cl    0.430851 0.354278 0.499100 -0.663376
Cl6   Cl    Cl    0.374394 0.226978 0.883872 -0.749125
Cl7   Cl    Cl    0.488906 0.632707 0.443070 -0.658427
Cl8   Cl    Cl    0.363630 0.768639 0.112339 -0.763450
N9    N     N_2   0.136183 0.635381 0.558515 -0.503741
H73   H     H_    0.219640 0.622271 0.576804 0.283515
C153  C     C_3   0.037796 0.617696 0.604516 -0.265097
H74   H     H_    0.056129 0.569583 0.630602 0.165237
H75   H     H_    0.955419 0.612465 0.572433 0.135807
H76   H     H_    0.023899 0.654706 0.647169 0.172348
N10   N     N_2   0.082620 0.603519 0.917949 -0.501164
H77   H     H_    0.999094 0.591172 0.898751 0.290888
C154  C     C_3   0.175382 0.585316 0.868274 -0.230691
H78   H     H_    0.263004 0.603322 0.886743 0.155990
H79   H     H_    0.152713 0.602615 0.813558 0.185997
H80   H     H_    0.180231 0.531084 0.862575 0.128479
N11   N     N_2   0.134533 0.361817 0.441941 -0.483475
H81   H     H_    0.215788 0.377286 0.422894 0.320089
C155  C     C_3   0.033383 0.374850 0.395601 -0.277199
H82   H     H_    0.951809 0.376566 0.427792 0.137041
H83   H     H_    0.021275 0.336558 0.353936 0.162011
H84   H     H_    0.045388 0.423091 0.368547 0.160148
N12   N     N_2   0.114676 0.382834 0.083947 -0.497186
H85   H     H_    0.202784 0.390353 0.097608 0.279949
C156  C     C_3   0.030621 0.397192 0.140540 -0.232674
H86   H     H_    0.052973 0.445597 0.165279 0.149201
H87   H     H_    0.033789 0.359510 0.183327 0.187893
H88   H     H_    0.938637 0.399277 0.118865 0.170232
N13   N     N_2   0.636767 0.136216 0.556396 -0.498545
H89   H     H_    0.720107 0.124048 0.575616 0.294994
C157  C     C_3   0.538041 0.119888 0.602722 -0.266000
H90   H     H_    0.457080 0.110912 0.570213 0.143186
H91   H     H_    0.519115 0.160056 0.641205 0.162080
H92   H     H_    0.558575 0.074428 0.633388 0.165352
N14   N     N_2   0.599242 0.105546 0.917865 -0.498234
H93   H     H_    0.523461 0.093293 0.889210 0.287122
C158  C     C_3   0.709076 0.089117 0.881176 -0.216722
H94   H     H_    0.785310 0.118568 0.901310 0.181002
H95   H     H_    0.697671 0.095744 0.822523 0.183639
H96   H     H_    0.731367 0.036611 0.887375 0.135096
N15   N     N_2   0.650037 0.859983 0.447853 -0.496146
H97   H     H_    0.733651 0.871922 0.429385 0.292487
C159  C     C_3   0.550845 0.877231 0.400977 -0.262360
H98   H     H_    0.470538 0.887018 0.432863 0.138650
H99   H     H_    0.526426 0.836847 0.363606 0.160587
H100  H     H_    0.573242 0.921847 0.369362 0.157192
N16   N     N_2   0.617023 0.883161 0.083952 -0.508369
H101  H     H_    0.705289 0.889413 0.097975 0.266557
C160  C     C_3   0.532745 0.900667 0.139281 -0.227422
H102  H     H_    0.560849 0.947730 0.165037 0.142567
H103  H     H_    0.528936 0.862368 0.181459 0.190849
H104  H     H_    0.442596 0.907473 0.115873 0.187879
N17   N     N_2   0.272670 0.672778 0.407858 -0.435531
H105  H     H_    0.236568 0.627228 0.396709 0.278861
C161  C     C_3   0.328193 0.704393 0.346329 -0.193622
H106  H     H_    0.378202 0.667074 0.315010 0.205003
H107  H     H_    0.391563 0.743089 0.364552 0.155603
H108  H     H_    0.262857 0.726188 0.309085 0.138984
N18   N     N_2   0.259622 0.654824 0.049151 -0.468213
H109  H     H_    0.303680 0.629919 0.009425 0.240366
C162  C     C_3   0.283978 0.630282 0.121725 -0.191200
H110  H     H_    0.377150 0.612594 0.124856 0.166953
H111  H     H_    0.224078 0.590020 0.138529 0.128426
H112  H     H_    0.277454 0.668203 0.163801 0.240965
N19   N     N_2   0.275950 0.326651 0.599315 -0.415230
H113  H     H_    0.241193 0.371571 0.613023 0.287238
C163  C     C_3   0.337096 0.293465 0.657587 -0.191620
H114  H     H_    0.385473 0.329904 0.691258 0.218661
H115  H     H_    0.402268 0.257723 0.636273 0.149788
H116  H     H_    0.273507 0.268266 0.693226 0.133263
N20   N     N_2   0.264000 0.337272 0.952412 -0.484144
H117  H     H_    0.314557 0.356765 0.993664 0.253525
C164  C     C_3   0.289477 0.363276 0.881143 -0.187899
H118  H     H_    0.384635 0.376817 0.879531 0.200515
H119  H     H_    0.235492 0.406514 0.866165 0.132284
H120  H     H_    0.276549 0.326945 0.837798 0.241698
N21   N     N_2   0.785490 0.176245 0.414212 -0.438824
H121  H     H_    0.748393 0.131009 0.402609 0.275982
C165  C     C_3   0.840212 0.206213 0.351879 -0.205552
H122  H     H_    0.889699 0.168135 0.321401 0.212938
H123  H     H_    0.903638 0.245050 0.369158 0.159016
H124  H     H_    0.773911 0.226786 0.314312 0.131962
N22   N     N_2   0.753784 0.149629 0.055092 -0.447684
H125  H     H_    0.813376 0.133251 0.017833 0.267036
C166  C     C_3   0.767615 0.120430 0.127122 -0.149723
H126  H     H_    0.843915 0.087610 0.130126 0.167927
H127  H     H_    0.695948 0.086551 0.142745 0.114756
H128  H     H_    0.779641 0.156969 0.170556 0.239438
N23   N     N_2   0.786139 0.811386 0.597947 -0.436382
H129  H     H_    0.756649 0.858177 0.609840 0.294086
C167  C     C_3   0.835615 0.776056 0.658611 -0.211782
H130  H     H_    0.899024 0.808517 0.687930 0.217017
H131  H     H_    0.882991 0.731580 0.639885 0.139724
H132  H     H_    0.765799 0.761602 0.697052 0.141351
N24   N     N_2   0.764664 0.832606 0.953224 -0.481812
H133  H     H_    0.811508 0.854060 0.994682 0.246040
C168  C     C_3   0.789538 0.860087 0.882352 -0.197895
H134  H     H_    0.884621 0.874456 0.880314 0.181071
H135  H     H_    0.735209 0.903587 0.868599 0.135929
H136  H     H_    0.777101 0.824278 0.838401 0.243914
Cl9   Cl    Cl    0.026135 0.980613 0.330013 -0.627251
Cl10  Cl    Cl    0.044668 0.099681 0.081797 -0.679639
Cl11  Cl    Cl    0.021778 0.014386 0.661961 -0.551328
Cl12  Cl    Cl    0.003640 0.990273 0.841419 -0.604407
Cl13  Cl    Cl    0.523581 0.481925 0.328131 -0.535648
Cl14  Cl    Cl    0.527635 0.477708 0.163769 -0.574294
Cl15  Cl    Cl    0.498800 0.438813 0.642627 -0.547123
Cl16  Cl    Cl    0.502228 0.482333 0.839545 -0.638736

loop_
_geom_bond_atom_site_label_1
_geom_bond_atom_site_label_2
_ccdc_geom_bond_type
C167  H132  S    
C6    C32   S    
N2    C146  S    
C7    C29   S    
C119  C143  S    
Cr6   O27   S    
N8    H69   S    
C120  C144  S    
C110  C118  S    
C158  H94   S    
C61   C69   A    
C130  H18   S    
C150  H64   S    
C85   O37   A    
C16   C144  S    
C48   H32   S    
C72   Cl14  S    
Cr4   O16   S    
C57   C59   A    
Cr11  O37   S    
Cr12  O39   S    
C58   C60   A    
C13   N21   S    
C62   C70   A    
C33   H33   S    
C61   C63   A    
C96   O48   A    
C62   C64   A    
C5    O21   A    
Cr10  O50   S    
C49   C51   A    
C34   C42   A    
C50   C52   A    
C23   C89   S    
C93   O5    A    
C83   O27   A    
C81   O33   A    
C41   C43   A    
C129  H17   S    
C42   C44   A    
C99   C107  S    
C20   C132  S    
C21   C133  S    
C90   O2    A    
N17   C161  S    
C4    O12   A    
C45   C47   A    
C112  H8    S    
C162  H112  S    
C46   C48   A    
C115  C123  S    
C90   O42   A    
N12   H85   S    
C145  H42   S    
C27   C57   A    
C164  H120  S    
C57   C65   A    
C112  C120  S    
C19   C99   S    
C97   N1    S    
C29   C55   A    
C122  Cl2   S    
C30   C56   A    
C100  C124  S    
C37   H37   S    
C11   N19   S    
C161  H106  S    
C104  C128  S    
C34   H34   S    
C143  N15   S    
C12   C20   S    
C13   C21   S    
C46   H30   S    
C85   C117  S    
Cr7   O29   S    
C115  C139  S    
C2    O18   A    
Cr11  O51   S    
C148  H55   S    
C108  C116  S    
N23   H129  S    
C113  C137  S    
C36   C44   A    
C33   C51   A    
C80   H16   S    
C37   C45   A    
N22   H125  S    
C130  C138  S    
C158  H96   S    
C36   C50   A    
C39   C47   A    
C147  H51   S    
C20   C94   S    
C133  C141  S    
C123  Cl3   S    
Cr2   O11   S    
C165  H124  S    
C24   C90   S    
C82   O26   A    
C28   C58   A    
C98   C106  S    
Cr1   O49   S    
C3    O11   A    
C168  H135  S    
C32   C62   A    
N7    C151  S    
N19   H113  S    
C138  N10   S    
C45   H29   S    
C10   C18   S    
C94   O6    A    
C43   H27   S    
C76   H12   S    
C163  H116  S    
N6    C150  S    
Cr2   O4    S    
C84   O36   A    
Cr5   O17   S    
C2    C28   S    
N14   H93   S    
C69   Cl15  S    
Cr11  O46   S    
C129  C137  S    
C126  C134  S    
C165  H122  S    
C146  H47   S    
N18   H109  S    
C10   C138  S    
C153  H75   S    
C3    O19   A    
C14   N22   S    
C139  N11   S    
C14   C142  S    
C160  H102  S    
C4    O20   A    
Cr10  O35   S    
C69   C77   A    
C102  N6    S    
C71   C79   A    
C110  H6    S    
C87   O39   A    
N1    H41   S    
C74   C76   A    
Cr6   O50   S    
C105  C113  S    
N8    C152  S    
N3    H49   S    
C78   C80   A    
C154  H79   S    
C16   N24   S    
C9    C105  S    
C66   C74   A    
Cr10  O44   S    
C78   H14   S    
C124  C132  S    
C144  N16   S    
C111  C119  S    
C146  H46   S    
C156  H87   S    
C103  N7    S    
C97   C121  S    
Cr12  O48   S    
C59   C67   A    
N9    C153  S    
C35   C49   A    
C9    N17   S    
Cr7   O21   S    
C2    O10   A    
Cr3   O14   S    
C103  C127  S    
C125  Cl5   S    
C24   C136  S    
C135  C143  S    
C84   C116  S    
N13   C157  S    
Cr9   O33   S    
C71   Cl13  S    
C98   N2    S    
C96   O8    A    
N15   C159  S    
C23   C103  S    
C100  C108  S    
C83   C115  S    
Cr3   O5    S    
C149  H60   S    
C73   H9    S    
C104  C112  S    
C145  H44   S    
N12   C156  S    
C87   C119  S    
C152  H70   S    
Cr8   O31   S    
C151  H67   S    
C70   Cl16  S    
Cr6   O19   S    
C99   N3    S    
C17   C95   S    
C161  H107  S    
C160  H104  S    
C40   C54   A    
N10   C154  S    
C15   C143  S    
C10   C106  S    
C67   C75   A    
Cr5   O26   S    
C160  H103  S    
C47   H31   S    
C137  N9    S    
Cr4   O8    S    
N14   C158  S    
C167  H131  S    
C92   O44   A    
C35   H35   S    
C36   H36   S    
Cr6   O28   S    
C102  C126  S    
C124  Cl4   S    
C7    O15   A    
N4    H53   S    
C150  H63   S    
C113  C121  S    
C5    O13   A    
C146  H48   S    
C14   C22   S    
C159  H99   S    
C97   C105  S    
Cr1   O2    S    
C72   C80   A    
C93   O45   A    
C168  H134  S    
C88   O32   A    
C83   O35   A    
Cr12  O40   S    
C14   C110  S    
N5    C149  S    
C114  C138  S    
C157  H92   S    
C38   C46   A    
C131  C139  S    
C37   C55   A    
C85   O29   A    
C22   C92   S    
C25   C59   A    
C166  H127  S    
C8    O16   A    
C17   C97   S    
C27   C49   A    
C119  C127  S    
C29   C63   A    
C30   C64   A    
C73   C75   A    
C31   C61   A    
C142  N14   S    
C149  H58   S    
N10   H77   S    
C155  H83   S    
N17   H105  S    
C109  C117  S    
C147  H50   S    
C42   H26   S    
C162  H111  S    
C11   C19   S    
C86   O38   A    
Cr9   O42   S    
C127  C135  S    
C152  H72   S    
C128  C136  S    
Cr7   O51   S    
C101  C109  S    
N20   H117  S    
Cr8   O23   S    
C68   Cl10  S    
C103  C111  S    
C132  H20   S    
C79   H15   S    
N11   C155  S    
C11   C139  S    
C6    O22   A    
C9    C137  S    
C105  H1    S    
Cr9   O49   S    
C121  Cl1   S    
N6    H61   S    
C12   C140  S    
C15   N23   S    
C13   C141  S    
C88   C120  S    
C19   C93   S    
C104  N8    S    
C77   C79   A    
C82   O34   A    
C148  H54   S    
C41   H25   S    
C32   C54   A    
C158  H95   S    
C153  H74   S    
C89   O41   A    
C3    C25   S    
Cr2   O12   S    
Cr12  O52   S    
C168  H136  S    
N16   H101  S    
Cr11  O38   S    
C123  C131  S    
Cr1   O9    S    
C38   H38   S    
C117  C141  S    
C157  H90   S    
N7    H65   S    
C134  C142  S    
C151  H66   S    
C20   C100  S    
C151  H68   S    
C86   C118  S    
C134  H22   S    
C6    O14   A    
Cr11  O45   S    
C22   C134  S    
C87   O31   A    
C84   O28   A    
C140  N12   S    
C102  C110  S    
C68   C76   A    
C74   H10   S    
C89   O1    A    
C16   C112  S    
C12   C108  S    
C166  H126  S    
C21   C91   S    
Cr5   O49   S    
C116  C124  S    
Cr10  O36   S    
C121  C129  S    
C67   Cl9   S    
C4    C26   S    
N24   H133  S    
C120  C128  S    
C132  C140  S    
C81   O25   A    
Cr2   O50   S    
C66   Cl12  S    
C23   C135  S    
C12   N20   S    
C8    C30   S    
C153  H76   S    
C136  C144  S    
N4    C148  S    
C133  H21   S    
C154  H78   S    
C39   C53   A    
C39   H39   S    
C131  H19   S    
C156  H86   S    
Cr8   O52   S    
C145  H43   S    
C135  H23   S    
C155  H82   S    
Cr7   O30   S    
C60   C68   A    
N9    H73   S    
C148  H56   S    
C81   C113  S    
N23   C167  S    
C109  H5    S    
Cr3   O13   S    
C95   O7    A    
C147  H52   S    
C159  H98   S    
C70   C78   A    
C18   C96   S    
N13   H89   S    
C163  H114  S    
C167  H130  S    
N15   H97   S    
C106  C114  S    
C149  H59   S    
C165  H123  S    
N19   C163  S    
C127  Cl7   S    
C128  Cl8   S    
Cr4   O52   S    
C65   C73   A    
Cr2   O3    S    
C40   C48   A    
Cr5   O18   S    
C34   C52   A    
Cr8   O32   S    
C28   C50   A    
C58   C66   A    
N20   C164  S    
C126  Cl6   S    
C13   C109  S    
Cr6   O20   S    
C1    O9    A    
C44   H28   S    
C166  H128  S    
C21   C101  S    
C15   C23   S    
C155  H84   S    
Cr3   O51   S    
C16   C24   S    
C101  N5    S    
Cr5   O25   S    
Cr1   O10   S    
C53   C55   A    
C19   C131  S    
C88   O40   A    
C54   C56   A    
N1    C145  S    
N21   C165  S    
C17   C129  S    
C15   C111  S    
C111  H7    S    
C33   C41   A    
C82   C114  S    
C163  H115  S    
N3    C147  S    
C154  H80   S    
C150  H62   S    
C106  H2    S    
Cr10  O43   S    
C24   C104  S    
C156  H88   S    
N22   C166  S    
Cr1   O1    S    
C8    O24   A    
Cr12  O47   S    
C26   C52   A    
N16   C160  S    
C101  C125  S    
N5    H57   S    
Cr7   O22   S    
C38   C56   A    
N18   C162  S    
C31   C53   A    
C157  H91   S    
C107  C115  S    
N21   H121  S    
C98   C122  S    
C9    C17   S    
C10   N18   S    
C11   C107  S    
C86   O30   A    
Cr9   O34   S    
N2    H45   S    
C35   C43   A    
C99   C123  S    
C40   H40   S    
C125  C133  S    
Cr4   O15   S    
Cr3   O6    S    
C63   C71   A    
C118  C142  S    
C107  H3    S    
C108  H4    S    
C100  N4    S    
C118  C126  S    
C162  H110  S    
C136  H24   S    
C25   C51   A    
C22   C102  S    
Cr9   O41   S    
C94   O46   A    
C91   O3    A    
C152  H71   S    
C92   O4    A    
C164  H118  S    
C1    O17   A    
N24   C168  S    
C26   C60   A    
C65   Cl11  S    
Cr8   O24   S    
C164  H119  S    
C141  N13   S    
C64   C72   A    
N11   H81   S    
C18   C130  S    
C7    O23   A    
C114  C122  S    
C161  H108  S    
C77   H13   S    
C159  H100  S    
C91   O43   A    
C1    C27   S    
C75   H11   S    
C18   C98   S    
C116  C140  S    
C117  C125  S    
C122  C130  S    
Cr4   O7    S    
C95   O47   A    
C5    C31   S    
