data_mof_unit_19593.cif
_audit_creation_date              2012-12-11T14:17:56-0500
_audit_creation_method            fapswitch 2.2
_symmetry_space_group_name_H-M    P1
_symmetry_Int_Tables_number       1
_space_group_crystal_system       triclinic
_cell_length_a                    11.267044
_cell_length_b                    11.245504
_cell_length_c                    19.08446
_cell_angle_alpha                 90.102117
_cell_angle_beta                  90.068761
_cell_angle_gamma                 119.997746
_cell_volume                      2094.14780107

loop_
_atom_site_label
_atom_site_type_symbol
_atom_type_description
_atom_site_fract_x
_atom_site_fract_y
_atom_site_fract_z
_atom_type_partial_charge
C1    C     C_R   0.521024 0.457301 0.146937 0.557152
C2    C     C_R   0.031671 0.422150 0.532837 -0.079042
C3    C     C_R   0.390690 0.968024 0.532775 -0.076410
C4    C     C_R   0.605745 0.581903 0.541221 -0.077203
C5    C     C_R   0.670736 0.889420 0.551675 -0.053305
C6    C     C_R   0.101239 0.780418 0.554624 -0.052936
C7    C     C_R   0.239422 0.318062 0.550783 -0.050824
C8    C     C_R   0.916915 0.682729 0.447783 -0.048187
C9    C     C_R   0.764465 0.089352 0.450536 -0.045481
C10   C     C_R   0.330813 0.215779 0.447433 -0.053680
C11   C     C_R   0.803445 0.949918 0.530023 -0.112079
C12   C     C_R   0.542616 0.063586 0.146949 0.552802
C13   C     C_R   0.047780 0.856832 0.530178 -0.122103
C14   C     C_R   0.154779 0.191330 0.524205 -0.126265
C15   C     C_R   0.957729 0.809289 0.474656 -0.127355
C16   C     C_R   0.847777 0.043896 0.475641 -0.117464
C17   C     C_R   0.198254 0.142067 0.469523 -0.110912
C18   C     C_R   0.544486 0.423958 0.360883 0.531652
C19   C     C_R   0.551899 0.075698 0.356543 0.539717
C20   C     C_R   0.926136 0.477209 0.356151 0.543194
C21   C     C_R   0.449926 0.522154 0.644135 0.537684
C22   C     C_R   0.117473 0.574596 0.639024 0.522509
C23   C     C_R   0.936197 0.478876 0.146898 0.552641
C24   C     C_R   0.456288 0.880955 0.638966 0.521476
C25   C     C_R   0.494260 0.975064 0.928417 0.000635
C26   C     C_R   0.025094 0.519200 0.928379 0.000574
C27   C     C_R   0.480777 0.506097 0.928454 0.001559
C28   C     C_R   0.997117 0.496402 0.075916 -0.001587
C29   C     C_R   0.499020 0.002244 0.075955 -0.001898
C30   C     C_R   0.503404 0.500833 0.075991 -0.002368
C31   C     C_R   0.408930 0.017979 0.960761 0.019740
C32   C     C_R   0.981915 0.390691 0.960556 0.019716
C33   C     C_R   0.609025 0.591274 0.960936 0.019652
C34   C     C_R   0.453195 0.521743 0.854302 0.542408
C35   C     C_R   0.981856 0.382725 0.035010 0.028211
C36   C     C_R   0.400718 0.017462 0.035181 0.028154
C37   C     C_R   0.616910 0.599269 0.035393 0.027904
C38   C     C_R   0.580711 0.958414 0.042642 -0.142328
C39   C     C_R   0.041173 0.622171 0.042756 -0.142097
C40   C     C_R   0.377898 0.419215 0.042534 -0.142789
C41   C     C_R   0.057787 0.633977 0.970838 -0.138261
C42   C     C_R   0.576127 0.942202 0.970693 -0.137896
C43   C     C_R   0.366161 0.424116 0.970611 -0.137670
C44   C     C_R   0.330631 0.060462 0.921109 -0.091419
C45   C     C_R   0.068521 0.546841 0.854288 0.546857
C46   C     C_R   0.939653 0.269857 0.920700 -0.091583
C47   C     C_R   0.729657 0.669552 0.921393 -0.091776
C48   C     C_R   0.966282 0.261014 0.065323 -0.087151
C49   C     C_R   0.294504 0.032555 0.065593 -0.086924
C50   C     C_R   0.738432 0.705406 0.066010 -0.086731
C51   C     C_R   0.234113 0.084860 0.953238 -0.131301
C52   C     C_R   0.914833 0.148591 0.952706 -0.131148
C53   C     C_R   0.850779 0.765768 0.953724 -0.131058
C54   C     C_R   0.930828 0.145268 0.024619 -0.140644
C55   C     C_R   0.214484 0.068268 0.025078 -0.140449
C56   C     C_R   0.478407 0.931618 0.854264 0.546820
C57   C     C_R   0.854109 0.785228 0.025641 -0.140302
C58   C     C_R   0.470646 0.919476 0.564385 -0.033997
C59   C     C_R   0.075820 0.549852 0.565179 -0.026973
C60   C     C_R   0.478979 0.499168 0.572277 -0.017638
C61   C     C_R   0.974957 0.499230 0.428359 -0.016517
C62   C     C_R   0.524433 0.027381 0.428844 -0.021020
C63   C     C_R   0.531606 0.447035 0.435815 -0.030962
C64   C     C_R   0.584859 0.935835 0.527011 0.030036
C65   C     C_R   0.059215 0.648821 0.528413 0.024675
C66   C     C_R   0.377631 0.390446 0.532441 0.039321
C67   C     C_R   0.397659 0.982029 0.459842 -0.077011
C68   C     C_R   0.980139 0.607814 0.467857 0.034271
C69   C     C_R   0.626086 0.021402 0.468621 0.039957
C70   C     C_R   0.417930 0.347830 0.473107 0.026450
C71   C     C_1   0.277538 0.914925 0.415775 0.199745
C72   C     C_1   0.074446 0.351050 0.416908 0.199396
C73   C     C_1   0.642855 0.694933 0.427519 0.206267
C74   C     C_1   0.947096 0.300784 0.573890 0.208706
C75   C     C_1   0.367768 0.062550 0.574126 0.212778
C76   C     C_1   0.726264 0.639658 0.585129 0.203444
C77   C     C_R   0.016414 0.414562 0.460072 -0.078507
C78   C     C_R   0.613504 0.575028 0.468268 -0.077369
Cr1   Cr    Cr6+3 0.768550 0.541320 0.250660 1.028801
Cr2   Cr    Cr6+3 0.458680 0.227230 0.250660 1.027441
Cr3   Cr    Cr6+3 0.772770 0.231450 0.250660 1.027880
Cr4   Cr    Cr6+3 0.541320 0.768550 0.749340 1.023456
Cr5   Cr    Cr6+3 0.227230 0.458680 0.749340 1.025442
Cr6   Cr    Cr6+3 0.231450 0.772770 0.749340 1.024791
H1    H     H_    0.651828 0.939721 0.072254 0.140306
H2    H     H_    0.986498 0.254104 0.119950 0.144359
H3    H     H_    0.267228 0.011839 0.120144 0.143661
H4    H     H_    0.745289 0.732833 0.120627 0.143854
H5    H     H_    0.173130 0.114999 0.922157 0.119212
H6    H     H_    0.884832 0.057414 0.921480 0.119537
H7    H     H_    0.941828 0.826685 0.922744 0.119533
H8    H     H_    0.914043 0.052127 0.049484 0.101849
H9    H     H_    0.138121 0.084840 0.050022 0.101645
H10   H     H_    0.947180 0.861393 0.050767 0.101260
H11   H     H_    0.638842 0.811037 0.590056 0.161817
H12   H     H_    0.059903 0.712104 0.072473 0.140191
H13   H     H_    0.173186 0.827498 0.595779 0.169818
H14   H     H_    0.192739 0.356401 0.585381 0.162897
H15   H     H_    0.835764 0.648057 0.411061 0.169269
H16   H     H_    0.810118 0.176991 0.416949 0.160586
H17   H     H_    0.361047 0.170616 0.407732 0.166783
H18   H     H_    0.869609 0.924167 0.557610 0.123592
H19   H     H_    0.074315 0.949259 0.557788 0.123652
H20   H     H_    0.057107 0.134239 0.548306 0.116769
H21   H     H_    0.920163 0.868649 0.449768 0.125099
H22   H     H_    0.944719 0.081826 0.451024 0.122703
H23   H     H_    0.288155 0.348005 0.072006 0.140564
H24   H     H_    0.130576 0.050896 0.441310 0.131991
H25   H     H_    0.098085 0.735420 0.948558 0.151799
H26   H     H_    0.637262 0.902058 0.948257 0.152158
H27   H     H_    0.264887 0.363043 0.948092 0.152218
H28   H     H_    0.344560 0.077712 0.865304 0.145815
H29   H     H_    0.922884 0.266748 0.864817 0.146762
H30   H     H_    0.732737 0.655776 0.865521 0.146068
N1    N     N_1   0.185694 0.862867 0.377526 -0.280681
N2    N     N_1   0.120946 0.303706 0.379782 -0.275072
N3    N     N_1   0.663603 0.787319 0.392587 -0.274242
N4    N     N_1   0.879500 0.207125 0.608955 -0.264997
N5    N     N_1   0.351713 0.136721 0.609667 -0.271350
N6    N     N_1   0.818989 0.682717 0.622935 -0.270597
O1    O     O_R   0.910960 0.572410 0.171010 -0.513831
O2    O     O_R   0.528530 0.639750 0.824400 -0.509809
O3    O     O_R   0.111220 0.471470 0.824400 -0.508088
O4    O     O_R   0.360250 0.888780 0.824400 -0.508926
O5    O     O_R   0.909330 0.572400 0.331540 -0.527498
O6    O     O_R   0.427600 0.336930 0.331540 -0.502235
O7    O     O_R   0.663070 0.090670 0.331540 -0.518657
O8    O     O_R   0.572400 0.909330 0.668460 -0.497859
O9    O     O_R   0.336930 0.427600 0.668460 -0.524921
O10   O     O_R   0.090670 0.663070 0.668460 -0.507287
O11   O     O_R   0.638240 0.528520 0.324410 -0.499368
O12   O     O_R   0.427590 0.338550 0.171010 -0.511184
O13   O     O_R   0.471480 0.109720 0.324410 -0.527944
O14   O     O_R   0.890280 0.361760 0.324410 -0.512123
O15   O     O_R   0.528520 0.638240 0.675590 -0.526061
O16   O     O_R   0.109720 0.471480 0.675590 -0.495127
O17   O     O_R   0.361760 0.890280 0.675590 -0.510580
O18   O     O_3   0.666667 0.333333 0.250630 -0.296361
O19   O     O_3   0.333333 0.666667 0.749370 -0.309357
O20   O     O_R   0.661450 0.089040 0.171010 -0.513254
O21   O     O_R   0.572410 0.910960 0.828990 -0.515464
O22   O     O_R   0.338550 0.427590 0.828990 -0.518490
O23   O     O_R   0.089040 0.661450 0.828990 -0.515847
O24   O     O_R   0.639750 0.528530 0.175600 -0.510042
O25   O     O_R   0.471470 0.111220 0.175600 -0.511170
O26   O     O_R   0.888780 0.360250 0.175600 -0.510641

loop_
_geom_bond_atom_site_label_1
_geom_bond_atom_site_label_2
_ccdc_geom_bond_type
C25   C31   A    
C47   H30   S    
C26   C32   A    
Cr2   O12   S    
C7    H14   S    
C12   C29   S    
Cr3   O20   S    
C49   H3    S    
C52   H6    S    
C25   C56   S    
C55   H9    S    
C1    O12   A    
Cr5   O19   S    
C54   H8    S    
Cr3   O14   S    
C39   C41   A    
C45   O3    A    
C48   C54   A    
Cr1   O1    S    
C29   C36   A    
C72   C77   S    
C62   C67   A    
C56   O4    A    
C19   O13   A    
C9    C16   A    
C9    C69   A    
C38   C42   A    
Cr2   O18   S    
C18   C63   S    
C19   C62   S    
C46   C52   A    
Cr4   O15   S    
C62   C69   A    
C19   O7    A    
C20   C61   S    
C26   C45   S    
C7    C14   A    
C28   C35   A    
C61   C77   A    
C21   O9    A    
C29   C38   A    
C53   H7    S    
C73   C78   S    
C12   O20   A    
C13   H19   S    
C3    C75   S    
C51   C55   A    
C2    C74   S    
C16   H22   S    
C47   C53   A    
Cr1   O5    S    
C60   C66   A    
C34   O2    A    
C41   H25   S    
C22   O10   A    
C14   C17   A    
C18   O11   A    
C43   H27   S    
Cr4   O21   S    
C35   C48   A    
C5    H11   S    
C52   C54   A    
C6    C65   A    
C27   C34   S    
C58   C64   A    
Cr3   O18   S    
C74   N4    T    
C23   O26   A    
C73   N3    T    
C31   C44   A    
C38   H1    S    
C71   N1    T    
C6    H13   S    
C75   N5    T    
Cr6   O19   S    
C21   C60   S    
C23   O1    A    
C17   H24   S    
C22   C59   S    
C53   C57   A    
C2    C59   A    
Cr6   O23   S    
C49   C55   A    
C33   C37   A    
Cr2   O13   S    
C30   C37   A    
C22   O16   A    
C12   O25   A    
C32   C35   A    
C4    C78   A    
Cr4   O19   S    
C11   C16   A    
C14   H20   S    
Cr1   O24   S    
C63   C70   A    
C65   C68   A    
Cr1   O11   S    
C4    C60   A    
C30   C40   A    
C76   N6    T    
C23   C28   S    
Cr4   O8    S    
Cr5   O16   S    
C40   H23   S    
C56   O21   A    
C10   C70   A    
C44   C51   A    
Cr2   O25   S    
Cr6   O17   S    
C8    C68   A    
C9    H16   S    
C57   H10   S    
C13   C15   A    
C33   C47   A    
C48   H2    S    
Cr6   O4    S    
C44   H28   S    
C24   O8    A    
C34   O22   A    
C46   H29   S    
C50   C57   A    
C32   C46   A    
C8    H15   S    
C10   H17   S    
C3    C67   A    
C25   C42   A    
Cr5   O22   S    
C5    C11   A    
C50   H4    S    
C24   O17   A    
C8    C15   A    
C64   C69   A    
C72   N2    T    
C28   C39   A    
C20   O14   A    
C40   C43   A    
C15   H21   S    
C42   H26   S    
C20   O5    A    
C1    O24   A    
C59   C65   A    
C7    C66   A    
C37   C50   A    
C61   C68   A    
C66   C70   A    
Cr2   O6    S    
Cr5   O9    S    
Cr6   O10   S    
C1    C30   S    
Cr4   O2    S    
C51   H5    S    
C11   H18   S    
C67   C71   S    
C39   H12   S    
C4    C76   S    
C3    C58   A    
C27   C43   A    
Cr1   O18   S    
C5    C64   A    
C24   C58   S    
Cr3   O26   S    
C27   C33   A    
C45   O23   A    
C2    C77   A    
C31   C36   A    
C10   C17   A    
Cr5   O3    S    
C21   O15   A    
C18   O6    A    
C36   C49   A    
Cr3   O7    S    
C26   C41   A    
C6    C13   A    
C63   C78   A    
