data_mof_unit_47859.cif
_audit_creation_date              2012-12-10T18:58:13-0500
_audit_creation_method            fapswitch 2.2
_symmetry_space_group_name_H-M    P1
_symmetry_Int_Tables_number       1
_space_group_crystal_system       triclinic
_cell_length_a                    11.037199
_cell_length_b                    10.863915
_cell_length_c                    9.62965
_cell_angle_alpha                 89.31472
_cell_angle_beta                  102.369159
_cell_angle_gamma                 92.311015
_cell_volume                      1126.93804003

loop_
_atom_site_label
_atom_site_type_symbol
_atom_type_description
_atom_site_fract_x
_atom_site_fract_y
_atom_site_fract_z
_atom_type_partial_charge
C1    C     C_R   0.497985 0.262683 0.500088 0.798928
C2    C     C_R   0.498118 0.129417 0.500167 -0.065118
C3    C     C_R   0.474478 0.064967 0.371211 -0.160449
C4    C     C_R   0.469335 0.936944 0.371412 -0.108435
C5    C     C_R   0.494350 0.870868 0.499084 -0.070384
C6    C     C_R   0.518170 0.935707 0.627263 0.033647
C7    C     C_3   0.447734 0.929048 0.744533 -0.220257
C8    C     C_3   0.451858 0.068494 0.744996 -0.494801
C9    C     C_R   0.597172 0.551404 0.094836 0.152646
C10   C     C_R   0.413493 0.431875 0.054517 0.034263
C11   C     C_R   0.411967 0.433732 0.905202 0.031867
C12   C     C_R   0.263037 0.497446 0.442349 0.861145
C13   C     C_R   0.601912 0.543246 0.950401 0.188134
C14   C     C_3   0.670187 0.664498 0.950677 -0.383223
C15   C     C_3   0.652547 0.681129 0.104349 -0.180756
C16   C     C_R   0.496473 0.737258 0.498900 0.803674
C17   C     C_R   0.736580 0.496183 0.557368 0.849420
C18   C     C_2   0.128314 0.481557 0.410896 -0.277311
C19   C     C_2   0.067221 0.480053 0.517021 -0.168516
C20   C     C_2   0.871701 0.495269 0.587219 -0.379355
C21   C     C_2   0.933840 0.451608 0.493620 0.027733
C22   C     C_R   0.520783 0.063512 0.627769 0.119951
Cu1   Cu    Cu3+1 0.499990 0.499980 0.640670 0.987402
Cu2   Cu    Cu3+1 0.500010 0.500020 0.359330 1.013599
H1    H     H_    0.510407 0.108871 0.843614 0.197960
H2    H     H_    0.620621 0.728489 0.869986 0.171334
H3    H     H_    0.115879 0.504003 0.624379 0.199163
H4    H     H_    0.922001 0.541104 0.683047 0.174547
H5    H     H_    0.079923 0.465050 0.301632 0.189440
H6    H     H_    0.453960 0.112937 0.270149 0.164098
H7    H     H_    0.438910 0.889879 0.272332 0.196992
H8    H     H_    0.503131 0.890866 0.843348 0.165553
H9    H     H_    0.359907 0.109585 0.710079 0.238002
N1    N     N_R   0.500780 0.500930 0.148120 -0.199428
N2    N     N_R   0.500790 0.500890 0.852210 -0.200102
O1    O     O_R   0.500000 0.319640 0.618810 -0.584244
O2    O     O_R   0.500010 0.319680 0.381230 -0.592593
O3    O     O_R   0.320680 0.500000 0.575130 -0.570175
O4    O     O_R   0.320690 0.500040 0.337550 -0.566534
O5    O     O_R   0.499990 0.680320 0.618770 -0.592844
O6    O     O_R   0.500000 0.680360 0.381190 -0.557457
O7    O     O_R   0.679310 0.499960 0.662450 -0.579294
O8    O     O_R   0.679320 0.500000 0.424870 -0.572900
C23   C     C_1   0.873745 0.374886 0.373728 0.376609
N3    N     N_1   0.826001 0.313850 0.278358 -0.260528
C24   C     C_1   0.323902 0.353883 0.106936 0.300173
N4    N     N_1   0.251860 0.290586 0.147511 -0.279086
C25   C     C_1   0.317642 0.360580 0.811297 0.283577
N5    N     N_1   0.240896 0.301335 0.738140 -0.295770
C26   C     C_1   0.798731 0.650164 0.935161 0.373267
N6    N     N_1   0.900094 0.639574 0.923989 -0.252020
C27   C     C_2   0.767377 0.695556 0.223676 0.894939
O9    O     O_2   0.852975 0.625940 0.232188 -0.609632
O10   O     O_R   0.773938 0.786275 0.327231 -0.725644
H10   H     H_    0.853738 0.784895 0.402453 0.330125
C28   C     C_2   0.560801 0.780989 0.102246 0.839838
O11   O     O_2   0.449228 0.755732 0.079246 -0.566966
O12   O     O_R   0.604109 0.904151 0.110920 -0.739620
H11   H     H_    0.534652 0.964401 0.092706 0.311727
C29   C     C_2   0.318504 0.871119 0.702238 0.916533
O13   O     O_2   0.286157 0.788524 0.775276 -0.554245
O14   O     O_R   0.236625 0.910848 0.579726 -0.752816
H12   H     H_    0.153582 0.863809 0.562568 0.334215

loop_
_geom_bond_atom_site_label_1
_geom_bond_atom_site_label_2
_ccdc_geom_bond_type
C2    C22   A    
C3    H6    S    
C8    C22   S    
Cu1   Cu2   S    
C17   O8    A    
C10   C24   S    
C6    C7    S    
Cu2   O6    S    
Cu1   O1    S    
C21   C23   S    
C19   H3    S    
O10   H10   S    
C14   C15   S    
C1    O2    A    
C15   C28   S    
C20   C21   D    
C12   O4    A    
C11   N2    A    
Cu2   O2    S    
C9    C15   S    
C7    C8    S    
C10   N1    A    
C18   H5    S    
C15   C27   S    
C14   H2    S    
C8    H1    S    
O14   H12   S    
C11   C25   S    
C14   C26   S    
Cu1   O7    S    
C16   O5    A    
C5    C6    A    
C16   O6    A    
C25   N5    T    
C19   C21   S    
C28   O12   S    
C13   N2    A    
Cu1   N2    S    
C8    H9    S    
C12   O3    A    
C9    N1    A    
C4    H7    S    
C10   C11   A    
C3    C4    A    
Cu1   O3    S    
C7    C29   S    
C4    C5    A    
Cu2   O4    S    
C27   O9    D    
C29   O14   S    
C1    C2    S    
C24   N4    T    
C12   C18   S    
C28   O11   D    
Cu2   O8    S    
C9    C13   A    
C17   O7    A    
C18   C19   D    
C5    C16   S    
C2    C3    A    
C7    H8    S    
C20   H4    S    
C26   N6    T    
O12   H11   S    
C13   C14   S    
C17   C20   S    
Cu2   N1    S    
C23   N3    T    
Cu1   O5    S    
C1    O1    A    
C27   O10   S    
C29   O13   D    
C6    C22   A    
