data_mof_unit_64060.cif
_audit_creation_date              2012-12-10T18:24:49-0500
_audit_creation_method            fapswitch 2.2
_symmetry_space_group_name_H-M    P1
_symmetry_Int_Tables_number       1
_space_group_crystal_system       triclinic
_cell_length_a                    16.052662
_cell_length_b                    16.042661
_cell_length_c                    19.513493
_cell_angle_alpha                 95.428996
_cell_angle_beta                  90.641266
_cell_angle_gamma                 84.102374
_cell_volume                      4976.23265884

loop_
_atom_site_label
_atom_site_type_symbol
_atom_type_description
_atom_site_fract_x
_atom_site_fract_y
_atom_site_fract_z
_atom_type_partial_charge
C1    C     C_R   0.275780 0.510868 0.490986 0.506745
C2    C     C_2   0.505041 0.557981 0.983977 -0.018555
C3    C     C_2   0.504650 0.488463 0.017537 -0.130524
C4    C     C_R   0.724088 0.489231 0.508998 0.505103
C5    C     C_R   0.511691 0.487008 0.236028 0.034738
C6    C     C_1   0.186283 0.516133 0.486603 0.005747
C7    C     C_2   0.021010 0.525872 0.476871 0.003916
C8    C     C_2   0.978961 0.478620 0.515222 -0.104590
C9    C     C_1   0.888858 0.481475 0.513982 -0.050121
C10   C     C_1   0.111075 0.520571 0.482403 -0.042466
C11   C     C_1   0.813600 0.484699 0.512116 0.010248
C12   C     C_R   0.501984 0.548579 0.908092 -0.005524
C13   C     C_1   0.516259 0.184838 0.487031 0.020320
C14   C     C_2   0.524489 0.018776 0.480277 -0.117923
C15   C     C_2   0.474910 0.981281 0.519645 -0.117775
C16   C     C_R   0.511682 0.274862 0.490851 0.505487
C17   C     C_1   0.479408 0.890882 0.516054 -0.039275
C18   C     C_1   0.520056 0.109175 0.483899 -0.039124
C19   C     C_1   0.483335 0.815214 0.512941 0.019704
C20   C     C_R   0.488182 0.725181 0.509128 0.506982
C21   C     C_R   0.509924 0.489815 0.311300 0.509021
C22   C     C_R   0.490506 0.510621 0.688716 0.511293
C23   C     C_R   0.431266 0.582942 0.872728 -0.013962
C24   C     C_R   0.492716 0.521285 0.764111 0.008652
C25   C     C_R   0.562771 0.487058 0.799176 -0.128173
C26   C     C_R   0.568188 0.500868 0.870556 -0.018373
C27   C     C_3   0.977686 0.586874 0.430026 -0.231921
C28   C     C_3   0.950806 0.671919 0.470305 -0.292128
C29   C     C_3   0.906244 0.733576 0.423691 -0.443939
C30   C     C_1   0.360896 0.630071 0.908904 0.207748
C31   C     C_1   0.503876 0.641700 0.019316 0.226417
C32   C     C_1   0.643051 0.466649 0.904146 0.195266
C33   C     C_R   0.427390 0.569511 0.801086 -0.129496
C34   C     C_R   0.455118 0.440461 0.124886 -0.110525
C35   C     C_R   0.456276 0.440142 0.196167 -0.117822
C36   C     C_R   0.567613 0.532119 0.203399 -0.119302
C37   C     C_R   0.566592 0.532060 0.132062 -0.085810
C38   C     C_R   0.508569 0.488184 0.092722 0.040308
H1    H     H_    0.614239 0.450897 0.770820 0.146145
H2    H     H_    0.373044 0.596221 0.774165 0.143191
H3    H     H_    0.948472 0.744714 0.381512 0.159036
H4    H     H_    0.848956 0.708455 0.401207 0.164505
H5    H     H_    0.887737 0.794545 0.454175 0.152623
H6    H     H_    0.907692 0.663139 0.512637 0.176837
H7    H     H_    0.006830 0.699196 0.493317 0.171916
H8    H     H_    0.021124 0.596208 0.388025 0.146185
H9    H     H_    0.922350 0.560451 0.404958 0.155535
H10   H     H_    0.611217 0.565990 0.107699 0.134159
H11   H     H_    0.012917 0.436541 0.548759 0.126874
H12   H     H_    0.430552 0.018328 0.554917 0.139986
H13   H     H_    0.568855 0.981723 0.445014 0.139456
H14   H     H_    0.413012 0.404186 0.220061 0.140572
H15   H     H_    0.611934 0.567533 0.232932 0.137708
H16   H     H_    0.497414 0.428635 0.987976 0.125052
H17   H     H_    0.411286 0.404858 0.094885 0.117496
N1    N     N_1   0.304515 0.667803 0.937876 -0.270221
N2    N     N_1   0.502867 0.708625 0.047441 -0.276710
N3    N     N_1   0.702957 0.439275 0.931073 -0.284758
O1    O     O_3   0.500000 0.500000 0.500000 -0.439736
O2    O     O_R   0.462330 0.445560 0.340470 -0.545242
O3    O     O_R   0.440930 0.559110 0.655640 -0.542286
O4    O     O_R   0.554010 0.538050 0.348260 -0.544292
O5    O     O_R   0.542730 0.457290 0.655630 -0.542937
O6    O     O_R   0.555880 0.314540 0.535300 -0.533802
O7    O     O_R   0.439840 0.689760 0.546310 -0.534193
O8    O     O_R   0.320170 0.458170 0.449830 -0.535131
O9    O     O_R   0.684110 0.537530 0.468570 -0.541776
O10   O     O_R   0.310830 0.559620 0.535340 -0.535662
O11   O     O_R   0.684890 0.444680 0.546270 -0.533421
O12   O     O_R   0.463420 0.314900 0.449800 -0.535667
O13   O     O_R   0.540870 0.680800 0.468590 -0.537010
Zn1   Zn    Zn3+2 0.569660 0.430340 0.558290 0.950942
Zn2   Zn    Zn3+2 0.437560 0.430860 0.436130 0.949303
Zn3   Zn    Zn3+2 0.568560 0.563000 0.447270 0.943526
Zn4   Zn    Zn3+2 0.424220 0.575810 0.558310 0.951433

loop_
_geom_bond_atom_site_label_1
_geom_bond_atom_site_label_2
_ccdc_geom_bond_type
C6    C10   T    
O11   Zn1   S    
C5    C36   A    
C20   O13   A    
C26   C32   S    
C37   C38   A    
C8    C9    S    
C24   C33   A    
C29   H4    S    
O13   Zn3   S    
O5    Zn1   S    
C14   C18   S    
C19   C20   S    
O7    Zn4   S    
C32   N3    T    
O1    Zn1   S    
C29   H5    S    
C25   C26   A    
C2    C12   S    
C31   N2    T    
O12   Zn2   S    
C1    O8    A    
C13   C16   S    
C16   O12   A    
C34   H17   S    
O9    Zn3   S    
O3    Zn4   S    
C22   O3    A    
C9    C11   T    
C12   C23   A    
C28   C29   S    
C21   O4    A    
O10   Zn4   S    
C13   C18   T    
C35   H14   S    
C5    C35   A    
C27   H8    S    
C4    O11   A    
C17   C19   T    
C2    C3    D    
C4    O9    A    
O6    Zn1   S    
C4    C11   S    
C3    H16   S    
C22   C24   S    
C28   H7    S    
C15   H12   S    
C33   H2    S    
O1    Zn3   S    
C1    C6    S    
C23   C30   S    
O1    Zn4   S    
O2    Zn2   S    
C7    C8    D    
C1    O10   A    
C7    C27   S    
C24   C25   A    
C20   O7    A    
C21   O2    A    
C36   C37   A    
C34   C35   A    
C7    C10   S    
C27   H9    S    
C27   C28   S    
C15   C17   S    
O1    Zn2   S    
C14   C15   D    
O4    Zn3   S    
C36   H15   S    
C16   O6    A    
C29   H3    S    
C22   O5    A    
C34   C38   A    
O8    Zn2   S    
C30   N1    T    
C8    H11   S    
C28   H6    S    
C25   H1    S    
C23   C33   A    
C14   H13   S    
C3    C38   S    
C12   C26   A    
C2    C31   S    
C37   H10   S    
C5    C21   S    
