data_mof_unit_40909.cif
_audit_creation_date              2012-12-11T16:20:24-0500
_audit_creation_method            fapswitch 2.2
_symmetry_space_group_name_H-M    P1
_symmetry_Int_Tables_number       1
_space_group_crystal_system       triclinic
_cell_length_a                    6.925073
_cell_length_b                    34.295761
_cell_length_c                    38.373564
_cell_angle_alpha                 99.565433
_cell_angle_beta                  89.691922
_cell_angle_gamma                 90.262589
_cell_volume                      8986.84027314

loop_
_atom_site_label
_atom_site_type_symbol
_atom_type_description
_atom_site_fract_x
_atom_site_fract_y
_atom_site_fract_z
_atom_type_partial_charge
O1    O     O_R   0.494320 0.461440 0.460990 -0.540450
O2    O     O_R   0.821450 0.462560 0.532500 -0.541193
O3    O     O_R   0.994330 0.538560 0.539010 -0.537243
C1    C     C_R   0.652178 0.453902 0.543752 0.711744
O4    O     O_R   0.823870 0.456770 0.460860 -0.536534
O5    O     O_R   0.996760 0.532730 0.466860 -0.540798
C2    C     C_R   0.655763 0.446699 0.447373 0.716871
O6    O     O_R   0.491880 0.467270 0.533140 -0.537383
O7    O     O_3   0.661650 0.524930 0.502050 -0.367787
V1    V     V_3+5 0.935500 0.495380 0.499620 1.403583
O8    O     O_R   0.326630 0.537440 0.467500 -0.536846
C3    C     C_R   0.158689 0.545581 0.455661 0.715694
O9    O     O_R   0.324210 0.543230 0.539140 -0.540739
C4    C     C_R   0.155132 0.553842 0.552127 0.709897
V2    V     V_3+5 0.435810 0.504620 0.500380 1.403333
O10   O     O_3   0.159790 0.475070 0.497950 -0.367047
C5    C     C_R   0.901850 0.820160 0.800016 0.573741
N1    N     N_R   0.044255 0.823476 0.825201 -0.554671
C6    C     C_R   0.199075 0.798103 0.821145 0.584970
C7    C     C_R   0.216348 0.768714 0.790914 -0.026884
C8    C     C_R   0.070560 0.764896 0.765144 -0.020939
C9    C     C_R   0.911209 0.790609 0.769762 -0.029686
C10   C     C_R   0.375474 0.743010 0.785926 -0.142600
C11   C     C_R   0.388861 0.713819 0.755895 -0.147803
C12   C     C_R   0.243525 0.709582 0.730062 -0.031589
C13   C     C_R   0.084184 0.735296 0.734677 -0.021070
C14   C     C_R   0.938392 0.731477 0.708908 -0.025064
C15   C     C_R   0.779280 0.757184 0.713894 -0.145189
C16   C     C_R   0.765889 0.786375 0.743926 -0.151945
C17   C     C_R   0.252842 0.680019 0.699816 0.578327
N2    N     N_R   0.110410 0.676694 0.674636 -0.554863
C18   C     C_R   0.955630 0.702077 0.678684 0.582766
O11   O     O_2   0.752731 0.845720 0.803861 -0.529143
O12   O     O_2   0.335250 0.800895 0.846463 -0.527925
H1    H     H_    0.490610 0.745405 0.805165 0.169866
H2    H     H_    0.513802 0.694649 0.752980 0.171773
O13   O     O_2   0.401938 0.654453 0.695977 -0.525834
O14   O     O_2   0.819451 0.699283 0.653367 -0.529557
H3    H     H_    0.664146 0.754790 0.694655 0.168655
H4    H     H_    0.640947 0.805545 0.746841 0.169893
C19   C     C_R   0.968775 0.619091 0.635192 -0.085994
H5    H     H_    0.841173 0.620970 0.651816 0.157190
C20   C     C_R   0.978788 0.589603 0.605271 -0.202104
H6    H     H_    0.857761 0.569501 0.599440 0.134567
C21   C     C_R   0.144328 0.585628 0.583560 -0.059911
C22   C     C_R   0.298907 0.612151 0.592349 -0.204387
H7    H     H_    0.428099 0.610016 0.576121 0.140047
C23   C     C_R   0.287066 0.642203 0.621887 -0.084461
H8    H     H_    0.406511 0.662699 0.627689 0.164740
C24   C     C_R   0.122199 0.645910 0.643769 0.353973
C25   C     C_R   0.185677 0.881062 0.864697 -0.090413
H9    H     H_    0.313272 0.879229 0.848074 0.155415
C26   C     C_R   0.175585 0.910503 0.894653 -0.202891
H10   H     H_    0.296537 0.930621 0.900507 0.133465
C27   C     C_R   0.010061 0.914412 0.916369 -0.058901
C28   C     C_R   0.855557 0.887879 0.907545 -0.204322
H11   H     H_    0.726367 0.889968 0.923772 0.140991
C29   C     C_R   0.867477 0.857874 0.877971 -0.082765
H12   H     H_    0.748101 0.837365 0.872143 0.165702
C30   C     C_R   0.032346 0.854226 0.856090 0.354155
C31   C     C_R   0.113758 0.864692 0.180487 0.575752
O15   O     O_2   0.189160 0.901521 0.186819 -0.521206
N3    N     N_R   0.028194 0.851038 0.148574 -0.555984
C32   C     C_R   0.951247 0.813604 0.141691 0.575514
C33   C     C_R   0.841596 0.888189 0.110099 -0.081302
C34   C     C_R   0.833505 0.913072 0.084642 -0.194450
C35   C     C_R   0.182826 0.914506 0.082205 -0.193216
C36   C     C_R   0.190580 0.889542 0.107592 -0.082534
C37   C     C_R   0.020120 0.876276 0.121879 0.372869
C38   C     C_R   0.037650 0.802794 0.200715 -0.059658
C39   C     C_R   0.122311 0.840666 0.206904 -0.031395
C40   C     C_R   0.213840 0.853618 0.239257 -0.125661
C41   C     C_R   0.954649 0.788853 0.167585 -0.034496
C42   C     C_R   0.004103 0.926706 0.070412 -0.058682
H13   H     H_    0.317121 0.924281 0.071868 0.130685
H14   H     H_    0.329609 0.880504 0.116193 0.123278
H15   H     H_    0.278196 0.882811 0.245013 0.171524
C43   C     C_R   0.149319 0.572808 0.429080 -0.067335
C44   C     C_R   0.170446 0.763301 0.282525 0.009675
C45   C     C_R   0.923226 0.719904 0.250624 -0.031903
C46   C     C_R   0.051279 0.729212 0.279667 0.055598
C47   C     C_R   0.316877 0.768462 0.308073 -0.180537
C48   C     C_R   0.342333 0.742124 0.331853 0.157538
C49   C     C_R   0.209925 0.710185 0.331800 -0.039898
C50   C     C_R   0.063547 0.704007 0.305525 -0.114971
C51   C     C_R   0.929387 0.672699 0.305135 -0.057525
C52   C     C_R   0.956514 0.645762 0.329065 0.585558
N4    N     N_R   0.095728 0.652273 0.354479 -0.548293
C53   C     C_R   0.218615 0.683880 0.356741 0.563136
C54   C     C_R   0.965219 0.621903 0.403787 -0.097718
C55   C     C_R   0.983043 0.596155 0.428247 -0.245166
C56   C     C_R   0.299468 0.575665 0.404082 0.106237
C57   C     C_R   0.279461 0.601971 0.379744 -0.082982
C58   C     C_R   0.113452 0.625179 0.379481 0.344620
O16   O     O_2   0.347111 0.689681 0.383357 -0.534318
C59   C     C_R   0.145753 0.790470 0.258680 0.034179
C60   C     C_R   0.040013 0.778453 0.227368 0.060378
C61   C     C_R   0.944819 0.741339 0.221740 0.033552
C62   C     C_R   0.227559 0.828845 0.264527 -0.191537
H16   H     H_    0.866579 0.594874 0.446967 0.143525
H17   H     H_    0.836128 0.639639 0.403929 0.145170
H18   H     H_    0.421133 0.792045 0.308557 0.123215
H19   H     H_    0.298271 0.840836 0.289005 0.129104
O17   O     O_2   0.873091 0.800175 0.109800 -0.524465
C63   C     C_R   0.884994 0.749945 0.160607 -0.151471
H20   H     H_    0.693387 0.921865 0.076341 0.129325
H21   H     H_    0.708627 0.878422 0.120932 0.125317
H22   H     H_    0.831761 0.737383 0.134657 0.172499
C64   C     C_R   0.774954 0.691074 0.252591 -0.007225
C65   C     C_R   0.771529 0.669586 0.281251 0.119956
O18   O     O_2   0.850421 0.612319 0.326197 -0.532315
C66   C     C_R   0.885686 0.726290 0.186879 -0.190738
H23   H     H_    0.392771 0.604371 0.360618 0.137355
H24   H     H_    0.844543 0.695724 0.179133 0.148375
C67   C     C_R   0.461663 0.324039 0.646877 0.585839
O19   O     O_2   0.320759 0.323073 0.622585 -0.527973
N5    N     N_R   0.616027 0.349213 0.646475 -0.554461
C68   C     C_R   0.762436 0.349774 0.670540 0.581110
C69   C     C_R   0.785541 0.375145 0.598017 -0.083178
C70   C     C_R   0.795101 0.400804 0.573277 -0.202642
C71   C     C_R   0.479377 0.426486 0.592054 -0.203183
C72   C     C_R   0.471803 0.401423 0.617323 -0.084039
C73   C     C_R   0.624451 0.375365 0.620486 0.353148
C74   C     C_R   0.599944 0.298490 0.696735 -0.050052
C75   C     C_R   0.449883 0.298678 0.672170 -0.033753
C76   C     C_R   0.290693 0.273760 0.673447 -0.131631
C77   C     C_R   0.757929 0.324227 0.695746 -0.037190
C78   C     C_R   0.641753 0.426649 0.569916 -0.058891
H25   H     H_    0.359570 0.446241 0.590270 0.134915
H26   H     H_    0.347053 0.402413 0.634580 0.158752
H27   H     H_    0.170553 0.274038 0.655516 0.169328
C79   C     C_R   0.512540 0.073083 0.929845 -0.056493
C80   C     C_R   0.430088 0.219150 0.746716 0.021794
C81   C     C_R   0.728548 0.249018 0.773969 0.027714
C82   C     C_R   0.572857 0.221630 0.773276 0.052050
C83   C     C_R   0.291922 0.188546 0.744509 -0.216132
C84   C     C_R   0.282648 0.162614 0.769050 -0.000065
C85   C     C_R   0.412015 0.167645 0.798075 -0.076277
C86   C     C_R   0.560892 0.196319 0.799252 -0.069133
C87   C     C_R   0.699936 0.199477 0.826298 -0.024686
C88   C     C_R   0.686661 0.175048 0.852180 0.592402
N6    N     N_R   0.538192 0.148514 0.851717 -0.551905
C89   C     C_R   0.399342 0.145196 0.826016 0.568465
C90   C     C_R   0.683942 0.097922 0.882402 -0.095427
C91   C     C_R   0.676341 0.073370 0.908063 -0.204631
C92   C     C_R   0.357931 0.098389 0.925771 -0.210707
C93   C     C_R   0.367407 0.123540 0.900590 -0.081675
C94   C     C_R   0.529754 0.123291 0.878432 0.355904
O20   O     O_2   0.248520 0.120661 0.827920 -0.527559
C95   C     C_R   0.433381 0.246266 0.722326 0.036018
C96   C     C_R   0.591842 0.272666 0.722264 0.063406
C97   C     C_R   0.742206 0.273522 0.747424 0.030752
C98   C     C_R   0.281534 0.248341 0.698131 -0.184207
H28   H     H_    0.797242 0.054058 0.910393 0.134150
H29   H     H_    0.809789 0.097056 0.865413 0.156926
H30   H     H_    0.194190 0.182629 0.722473 0.123432
H31   H     H_    0.149975 0.231449 0.698196 0.129351
O21   O     O_2   0.911124 0.375338 0.670476 -0.526387
C99   C     C_R   0.908074 0.323978 0.719896 -0.132032
H32   H     H_    0.921674 0.400070 0.556480 0.140910
H33   H     H_    0.903925 0.355028 0.599688 0.163530
H34   H     H_    0.033183 0.342965 0.719363 0.170684
C100  C     C_R   0.865349 0.250976 0.801435 -0.183749
C101  C     C_R   0.850850 0.226789 0.826974 -0.132315
O22   O     O_2   0.819919 0.178317 0.878062 -0.530730
C102  C     C_R   0.901164 0.299123 0.745086 -0.180296
H35   H     H_    0.984691 0.271444 0.804493 0.128334
H36   H     H_    0.230234 0.099016 0.942272 0.138436
H37   H     H_    0.959841 0.229655 0.847405 0.169539
H38   H     H_    0.247854 0.143168 0.898249 0.162528
H39   H     H_    0.025348 0.300357 0.761983 0.128855
C103  C     C_R   0.563426 0.166740 0.207384 0.552979
N7    N     N_R   0.546873 0.177114 0.174457 -0.553539
C104  C     C_R   0.541257 0.216239 0.170614 0.577660
C105  C     C_R   0.546337 0.246415 0.200415 -0.038386
C106  C     C_R   0.563464 0.236107 0.234261 -0.022877
C107  C     C_R   0.572979 0.195977 0.237860 -0.035462
C108  C     C_R   0.536671 0.286586 0.197127 -0.173404
C109  C     C_R   0.545558 0.316081 0.226994 -0.142146
C110  C     C_R   0.564177 0.306158 0.260927 -0.026717
C111  C     C_R   0.572468 0.266012 0.264564 -0.017230
C112  C     C_R   0.590584 0.255711 0.298422 -0.032694
C113  C     C_R   0.599187 0.215524 0.301704 -0.140914
C114  C     C_R   0.590466 0.186041 0.271811 -0.140065
C115  C     C_R   0.575392 0.335398 0.291382 0.568164
N8    N     N_R   0.594298 0.324978 0.324223 -0.555471
C116  C     C_R   0.601240 0.285949 0.328148 0.577184
O23   O     O_2   0.567806 0.128217 0.210738 -0.519415
O24   O     O_2   0.532069 0.225996 0.138028 -0.535767
H40   H     H_    0.522917 0.295397 0.171432 0.163582
H41   H     H_    0.538435 0.346690 0.223372 0.169198
O25   O     O_2   0.566662 0.373931 0.288177 -0.522397
O26   O     O_2   0.620756 0.276380 0.360651 -0.518510
H42   H     H_    0.613123 0.206694 0.327388 0.172935
H43   H     H_    0.597775 0.155430 0.275420 0.174278
C117  C     C_R   0.464294 0.361329 0.380462 -0.091963
H44   H     H_    0.335892 0.342971 0.377194 0.137982
C118  C     C_R   0.481378 0.390865 0.410191 -0.242568
H45   H     H_    0.365291 0.394363 0.429467 0.142966
C119  C     C_R   0.646381 0.415305 0.415354 -0.067989
C120  C     C_R   0.795636 0.409654 0.389318 0.108606
C121  C     C_R   0.775825 0.379756 0.359551 -0.085499
H46   H     H_    0.888796 0.375124 0.339661 0.127974
C122  C     C_R   0.611352 0.355520 0.354965 0.339049
C123  C     C_R   0.361148 0.141738 0.122635 0.032897
C124  C     C_R   0.351820 0.111425 0.092986 -0.244602
H47   H     H_    0.222629 0.108297 0.076926 0.131276
C125  C     C_R   0.508636 0.085785 0.083607 -0.062816
C126  C     C_R   0.675924 0.090892 0.104481 -0.200620
H48   H     H_    0.799197 0.071673 0.098034 0.135893
C127  C     C_R   0.685876 0.120523 0.134212 -0.091287
H49   H     H_    0.816167 0.123642 0.149889 0.138217
C128  C     C_R   0.530427 0.146293 0.143684 0.348409
O27   O     O_R   0.662230 0.032770 0.966890 -0.538201
O28   O     O_R   0.330090 0.043230 0.039150 -0.541238
O29   O     O_R   0.157350 0.967260 0.033130 -0.538022
C129  C     C_R   0.498720 0.053899 0.052169 0.713201
O30   O     O_R   0.332650 0.037450 0.967510 -0.542904
O31   O     O_R   0.159930 0.961430 0.960980 -0.537232
C130  C     C_R   0.501935 0.046096 0.956240 0.705443
O32   O     O_R   0.659640 0.038600 0.039040 -0.538953
O33   O     O_3   0.492510 0.975090 0.997960 -0.366895
V3    V     V_3+5 0.218600 0.004620 0.000380 1.409437
O34   O     O_R   0.830050 0.956730 0.960830 -0.541605
C131  C     C_R   0.999164 0.946154 0.947837 0.707902
O35   O     O_R   0.827490 0.962520 0.032470 -0.542298
C132  C     C_R   0.995830 0.953851 0.043861 0.710206
V4    V     V_3+5 0.718310 0.995320 0.999580 1.410101
O36   O     O_3   0.994270 0.024900 0.002040 -0.367447
C133  C     C_3   0.515400 0.749028 0.356043 -0.667455
H50   H     H_    0.608905 0.773534 0.350128 0.178344
H51   H     H_    0.467216 0.757182 0.383920 0.239307
H52   H     H_    0.607070 0.722176 0.352686 0.223464
C134  C     C_R   0.615348 0.684542 0.226312 0.088050
C135  C     C_R   0.503070 0.716305 0.219173 -0.110115
C136  C     C_R   0.373386 0.710690 0.191021 -0.105062
C137  C     C_R   0.342467 0.672981 0.171704 -0.095037
C138  C     C_R   0.446476 0.640871 0.179728 -0.118459
C139  C     C_R   0.584448 0.646643 0.206551 -0.147069
H53   H     H_    0.525285 0.745766 0.233873 0.124559
H54   H     H_    0.299808 0.735727 0.183658 0.134282
H55   H     H_    0.239818 0.668759 0.150223 0.116696
H56   H     H_    0.423838 0.611686 0.164557 0.120580
H57   H     H_    0.670317 0.621804 0.211410 0.126699
C140  C     C_3   0.478219 0.550389 0.401883 -0.725627
H58   H     H_    0.570496 0.554184 0.378900 0.217723
H59   H     H_    0.566437 0.558777 0.426010 0.213564
H60   H     H_    0.437099 0.518673 0.398920 0.200034
C141  C     C_3   0.590593 0.646683 0.288282 -0.680305
H61   H     H_    0.561211 0.650045 0.317077 0.221584
H62   H     H_    0.458712 0.658122 0.277253 0.194073
H63   H     H_    0.606928 0.614943 0.276876 0.231849
C142  C     C_R   0.141628 0.129501 0.761574 0.154370
C143  C     C_R   0.945236 0.137531 0.757404 -0.128111
C144  C     C_R   0.812121 0.106679 0.749355 -0.122737
C145  C     C_R   0.874187 0.067466 0.744977 -0.095253
C146  C     C_R   0.070050 0.059108 0.748173 -0.102023
C147  C     C_R   0.203824 0.089954 0.756062 -0.056248
H64   H     H_    0.896090 0.167718 0.760045 0.125267
H65   H     H_    0.661297 0.113239 0.746198 0.112590
H66   H     H_    0.770857 0.043582 0.738756 0.112214
H67   H     H_    0.118375 0.028723 0.744393 0.114580
H68   H     H_    0.355160 0.083030 0.758202 0.093072
C148  C     C_3   0.973290 0.435589 0.391828 -0.730847
H69   H     H_    0.930795 0.467189 0.395233 0.203242
H70   H     H_    0.063511 0.430427 0.414405 0.212718
H71   H     H_    0.064198 0.429178 0.367627 0.207004
C149  C     C_R   0.201214 0.170580 0.129633 0.101711
C150  C     C_R   0.124475 0.181137 0.163890 -0.150868
C151  C     C_R   0.011592 0.215038 0.172314 -0.129468
C152  C     C_R   0.967984 0.237694 0.146327 -0.035361
C153  C     C_R   0.030636 0.225635 0.111591 -0.067651
C154  C     C_R   0.147112 0.192213 0.103200 -0.079056
H72   H     H_    0.161220 0.164480 0.184525 0.133711
H73   H     H_    0.960974 0.224123 0.199145 0.120414
H74   H     H_    0.884092 0.264437 0.153019 0.122991
H75   H     H_    0.994392 0.242947 0.091414 0.115738
H76   H     H_    0.204788 0.184719 0.076651 0.109676

loop_
_geom_bond_atom_site_label_1
_geom_bond_atom_site_label_2
_ccdc_geom_bond_type
C103  C107  A    
C62   H19   S    
C27   C28   A    
C53   O16   S    
C57   C58   A    
C9    C16   A    
C45   C46   A    
N5    C68   A    
C120  C121  A    
C144  H65   S    
C32   C41   A    
C100  H35   S    
C147  H68   S    
C120  C148  S    
C1    O6    A    
C33   H21   S    
O34   C131  A    
C69   H33   S    
C66   H24   S    
C108  C109  A    
C54   C55   A    
O30   V3    S    
C26   H10   S    
C28   H11   S    
C82   C86   A    
O32   V4    S    
C141  H61   S    
C125  C126  A    
C121  C122  A    
C150  H72   S    
C48   C49   A    
C79   C91   A    
C143  H64   S    
C8    C9    A    
C15   C16   A    
C51   C65   A    
C103  O23   S    
C146  C147  A    
N4    C53   A    
C85   C89   A    
O28   C129  A    
C50   C51   A    
C17   N2    A    
C83   H30   S    
C124  C125  A    
C52   O18   S    
C29   C30   A    
C67   O19   S    
C34   C42   A    
C59   C62   A    
C111  C112  A    
C33   C37   A    
C12   C17   A    
C113  H42   S    
C136  C137  A    
C133  H52   S    
N1    C6    A    
C19   H5    S    
C87   C101  A    
C2    C119  S    
C31   N3    A    
C89   O20   S    
C104  C105  A    
C92   H36   S    
C93   C94   A    
O1    C2    A    
C36   C37   A    
O8    V2    S    
C142  C147  A    
N6    C89   A    
C100  C101  A    
C146  H67   S    
C148  H69   S    
C67   N5    A    
C95   C98   A    
C3    C43   S    
C45   C64   A    
C80   C83   A    
C79   C130  S    
C135  C136  A    
C7    C10   A    
C118  C119  A    
C54   C58   A    
C118  H45   S    
O1    V2    S    
C18   O14   S    
C55   H16   S    
C4    C21   S    
O27   V4    S    
O7    V1    S    
C64   C65   A    
C93   H38   S    
C90   C94   A    
C112  C116  A    
C145  H66   S    
C64   C134  S    
C31   C39   A    
C23   C24   A    
C152  C153  A    
C123  C128  A    
C102  H39   S    
N7    C104  A    
C137  C138  A    
C59   C60   A    
C80   C82   A    
C68   C77   A    
C19   C20   A    
C101  H37   S    
C106  C111  A    
C5    O11   S    
C34   H20   S    
O34   V4    S    
V4    O36   S    
C12   C13   A    
C8    C13   A    
C46   C50   A    
C60   C61   A    
C105  C108  A    
N4    C58   S    
C26   C27   A    
C65   C141  S    
C129  O32   A    
C152  H74   S    
C63   H22   S    
C22   C23   A    
C141  H62   S    
O29   C132  A    
C61   C66   A    
C121  H46   S    
C1    C78   S    
N3    C32   A    
C25   H9    S    
O8    C3    A    
N3    C37   S    
C11   C12   A    
C71   C78   A    
C117  C118  A    
C110  C115  A    
C44   C46   A    
C140  H58   S    
C124  H47   S    
C119  C120  A    
C70   H32   S    
C74   C75   A    
C104  O24   S    
C15   H3    S    
C43   C56   A    
C29   H12   S    
C21   C22   A    
C138  H56   S    
C47   C48   A    
C133  H50   S    
O31   C131  A    
C35   C36   A    
C17   O13   S    
C81   C100  A    
C136  H54   S    
C149  C154  A    
O2    C1    A    
C20   H6    S    
C54   H17   S    
C143  C144  A    
N6    C94   S    
C44   C47   A    
C41   C63   A    
C127  H49   S    
C123  C149  S    
O33   V4    S    
C109  H41   S    
C96   C97   A    
C81   C97   A    
C145  C146  A    
C38   C41   A    
C70   C78   A    
C5    N1    A    
C47   H18   S    
C99   H34   S    
N8    C122  S    
C35   C42   A    
C57   H23   S    
C49   C50   A    
C69   C70   A    
C133  H51   S    
C20   C21   A    
C71   C72   A    
C139  H57   S    
O3    C4    A    
C51   C52   A    
C108  H40   S    
C91   H28   S    
C137  H55   S    
N1    C30   S    
C23   H8    S    
C127  C128  A    
C63   C66   A    
C33   C34   A    
O6    V2    S    
O35   V4    S    
C140  H59   S    
C13   C14   A    
C75   C76   A    
N7    C128  S    
O9    C4    A    
C68   O21   S    
C117  C122  A    
C49   C53   A    
C153  C154  A    
N2    C24   S    
C153  H75   S    
C144  C145  A    
O2    V1    S    
C77   C99   A    
C19   C24   A    
C38   C39   A    
C103  N7    A    
C86   C87   A    
C115  O25   S    
O4    C2    A    
C92   C93   A    
C125  C129  S    
C32   O17   S    
C123  C124  A    
C138  C139  A    
C106  C107  A    
C141  H63   S    
C126  H48   S    
C42   C132  S    
C45   C61   A    
C14   C18   A    
C151  C152  A    
C88   O22   S    
C151  H73   S    
C74   C96   A    
N2    C18   A    
C80   C95   A    
C154  H76   S    
C71   H25   S    
C117  H44   S    
C6    O12   S    
O28   V3    S    
V2    O10   S    
O5    V1    S    
C40   H15   S    
C97   C102  A    
C56   C140  S    
C38   C60   A    
C72   C73   A    
C81   C82   A    
C48   C133  S    
C69   C73   A    
C43   C55   A    
C36   H14   S    
C107  C114  A    
C84   C85   A    
C10   H1    S    
C5    C9    A    
C67   C75   A    
C99   C102  A    
O30   C130  A    
C90   C91   A    
C79   C92   A    
C39   C40   A    
C27   C131  S    
C6    C7    A    
O9    V2    S    
N5    C73   S    
O29   V3    S    
O4    V1    S    
C105  C106  A    
O27   C130  A    
C88   N6    A    
O5    C3    A    
C115  N8    A    
C142  C143  A    
C76   H27   S    
C90   H29   S    
C148  H71   S    
C87   C88   A    
C11   H2    S    
C16   H4    S    
C56   C57   A    
C126  C127  A    
C28   C29   A    
C114  H43   S    
C134  C139  A    
C98   H31   S    
C31   O15   S    
C113  C114  A    
C84   C142  S    
C22   H7    S    
C85   C86   A    
C10   C11   A    
O31   V3    S    
C109  C110  A    
C76   C98   A    
V3    O36   S    
C44   C59   A    
C35   H13   S    
C7    C8    A    
C52   N4    A    
C148  H70   S    
O35   C132  A    
C134  C135  A    
C140  H60   S    
C74   C77   A    
C14   C15   A    
O3    V1    S    
C95   C96   A    
C83   C84   A    
V1    O10   S    
C25   C30   A    
C25   C26   A    
N8    C116  A    
C150  C151  A    
O33   V3    S    
C72   H26   S    
C135  H53   S    
C116  O26   S    
C110  C111  A    
C112  C113  A    
O7    V2    S    
C149  C150  A    
C40   C62   A    
