data_mof_unit_15415.cif
_audit_creation_date              2012-12-11T16:49:03-0500
_audit_creation_method            fapswitch 2.2
_symmetry_space_group_name_H-M    P1
_symmetry_Int_Tables_number       1
_space_group_crystal_system       triclinic
_cell_length_a                    6.928228
_cell_length_b                    25.987677
_cell_length_c                    28.87901
_cell_angle_alpha                 89.730228
_cell_angle_beta                  89.622191
_cell_angle_gamma                 89.565535
_cell_volume                      5199.30497106

loop_
_atom_site_label
_atom_site_type_symbol
_atom_type_description
_atom_site_fract_x
_atom_site_fract_y
_atom_site_fract_z
_atom_type_partial_charge
O1    O     O_R   0.601010 0.796750 0.202520 -0.539766
O2    O     O_R   0.398990 0.203250 0.797480 -0.537012
O3    O     O_R   0.271260 0.802890 0.297300 -0.541915
O4    O     O_R   0.728740 0.197110 0.702700 -0.541176
O5    O     O_R   0.100940 0.703200 0.297630 -0.536947
O6    O     O_R   0.899060 0.296800 0.702370 -0.536417
C1    C     C_R   0.439565 0.815575 0.313225 0.693291
C2    C     C_R   0.560436 0.184431 0.686770 0.696145
O7    O     O_R   0.271300 0.802890 0.202860 -0.542034
O8    O     O_R   0.728700 0.197110 0.797140 -0.540523
O9    O     O_R   0.100980 0.703210 0.202520 -0.539358
O10   O     O_R   0.899020 0.296790 0.797480 -0.538600
C3    C     C_R   0.440233 0.816094 0.187332 0.704610
C4    C     C_R   0.559917 0.184505 0.813165 0.699556
O11   O     O_R   0.600970 0.796740 0.297640 -0.537756
O12   O     O_R   0.399030 0.203260 0.702360 -0.536871
O13   O     O_3   0.434500 0.717270 0.250080 -0.369637
O14   O     O_3   0.565500 0.282730 0.749920 -0.373099
V1    V     V_3+5 0.159650 0.756040 0.250080 1.386696
V2    V     V_3+5 0.840350 0.243960 0.749920 1.389676
O15   O     O_R   0.771260 0.697060 0.202850 -0.542627
O16   O     O_R   0.228740 0.302940 0.797150 -0.543942
C5    C     C_R   0.941789 0.684634 0.186483 0.684596
C6    C     C_R   0.058076 0.316171 0.812700 0.685930
O17   O     O_R   0.771230 0.697050 0.297300 -0.540006
O18   O     O_R   0.228770 0.302950 0.702700 -0.543225
C7    C     C_R   0.940261 0.684345 0.313422 0.695674
C8    C     C_R   0.059629 0.315968 0.686853 0.685530
V3    V     V_3+5 0.659640 0.743910 0.250080 1.384537
V4    V     V_3+5 0.340360 0.256090 0.749920 1.376684
O19   O     O_3   0.934660 0.782680 0.250080 -0.366601
O20   O     O_3   0.065340 0.217320 0.749920 -0.363825
C9    C     C_R   0.131232 0.630387 0.369998 -0.158633
C10   C     C_R   0.868134 0.371615 0.631746 -0.160337
H1    H     H_    0.263993 0.646091 0.356131 0.120635
H2    H     H_    0.735347 0.356268 0.645938 0.122211
C11   C     C_R   0.142727 0.594770 0.406505 -0.135382
C12   C     C_R   0.856419 0.407761 0.595670 -0.137009
H3    H     H_    0.283852 0.584202 0.419494 0.131940
H4    H     H_    0.715115 0.419017 0.583254 0.131774
C13   C     C_R   0.974817 0.573309 0.426043 0.019226
C14   C     C_R   0.024367 0.428829 0.575790 0.020022
C15   C     C_R   0.794923 0.588411 0.407787 -0.132037
C16   C     C_R   0.204495 0.412974 0.593412 -0.131474
H5    H     H_    0.662379 0.572766 0.421816 0.137371
H6    H     H_    0.337057 0.428361 0.579157 0.137127
C17   C     C_R   0.783383 0.624060 0.371206 -0.160869
C18   C     C_R   0.216268 0.376782 0.629546 -0.162254
H7    H     H_    0.642366 0.634818 0.358261 0.118125
H8    H     H_    0.357450 0.365415 0.641985 0.117425
C19   C     C_R   0.951436 0.645665 0.351817 -0.054232
C20   C     C_R   0.048212 0.355342 0.649072 -0.051939
N1    N     N_R   0.825755 0.515183 0.484544 -0.277393
N2    N     N_R   0.173299 0.487202 0.517485 -0.277449
N3    N     N_R   0.837420 0.481557 0.519508 -0.282430
N4    N     N_R   0.161633 0.520833 0.482528 -0.282412
C21   C     C_R   0.011453 0.466757 0.536822 0.511125
C22   C     C_R   0.987612 0.535613 0.465197 0.511269
C23   C     C_R   0.125442 0.632277 0.123865 0.078738
C24   C     C_R   0.876125 0.381479 0.864607 0.073634
C25   C     C_R   0.130714 0.588338 0.095252 -0.156717
C26   C     C_R   0.871735 0.408969 0.906812 -0.169877
H9    H     H_    0.259983 0.581314 0.075095 0.109912
H10   H     H_    0.741382 0.429890 0.915568 0.111550
C27   C     C_R   0.970941 0.555599 0.090154 0.102771
C28   C     C_R   0.033899 0.411815 0.936160 0.117572
C29   C     C_R   0.797578 0.571425 0.111933 -0.161902
C30   C     C_R   0.207198 0.390316 0.918784 -0.141558
H11   H     H_    0.662742 0.552327 0.106472 0.154813
H12   H     H_    0.344502 0.396167 0.934498 0.163942
C31   C     C_R   0.792594 0.612727 0.142707 -0.221715
C32   C     C_R   0.210485 0.359723 0.879330 -0.233972
H13   H     H_    0.658787 0.620386 0.161009 0.129838
H14   H     H_    0.344339 0.340442 0.870370 0.124874
C33   C     C_R   0.955506 0.643283 0.150384 -0.063449
C34   C     C_R   0.045865 0.353229 0.852198 -0.058045
C35   C     C_R   0.824980 0.479450 0.044231 0.467930
C36   C     C_R   0.183994 0.451363 0.010247 0.435897
C37   C     C_R   0.840189 0.451250 0.002897 -0.287871
C38   C     C_R   0.167771 0.489121 0.044773 -0.270956
H15   H     H_    0.710560 0.434406 0.989577 0.189068
H16   H     H_    0.297591 0.500193 0.062477 0.184717
C39   C     C_R   0.021144 0.439671 0.982535 -0.098888
C40   C     C_R   0.986176 0.508343 0.059212 -0.097969
C41   C     C_R   0.370758 0.127119 0.634231 -0.158195
C42   C     C_R   0.629246 0.872905 0.365748 -0.158519
H17   H     H_    0.238060 0.139941 0.650660 0.122511
H18   H     H_    0.761941 0.860082 0.349317 0.122259
C43   C     C_R   0.359313 0.091490 0.598203 -0.143292
C44   C     C_R   0.640695 0.908540 0.401770 -0.143453
H19   H     H_    0.218580 0.077548 0.588409 0.100055
H20   H     H_    0.781429 0.922486 0.411559 0.100001
C45   C     C_R   0.527050 0.073548 0.575608 0.094615
C46   C     C_R   0.472963 0.926482 0.424366 0.094629
C47   C     C_R   0.707003 0.091958 0.590433 -0.139240
C48   C     C_R   0.293008 0.908068 0.409547 -0.139271
H21   H     H_    0.839090 0.079568 0.573481 0.099215
H22   H     H_    0.160924 0.920460 0.426500 0.099282
C49   C     C_R   0.718571 0.127527 0.626669 -0.160576
C50   C     C_R   0.281436 0.872492 0.373316 -0.160734
H23   H     H_    0.859268 0.141167 0.636852 0.117833
H24   H     H_    0.140738 0.858849 0.363138 0.117718
C51   C     C_R   0.550412 0.145752 0.648938 -0.056773
C52   C     C_R   0.449592 0.854263 0.351048 -0.055974
C53   C     C_R   0.651864 0.996420 0.531484 -0.150731
C54   C     C_R   0.348157 0.003613 0.468487 -0.150948
H25   H     H_    0.768987 0.992235 0.555878 0.110972
H26   H     H_    0.231032 0.007798 0.444094 0.110739
C55   C     C_R   0.638346 0.961006 0.495253 -0.150049
C56   C     C_R   0.361675 0.039028 0.504719 -0.150227
H27   H     H_    0.745643 0.930619 0.492830 0.110454
H28   H     H_    0.254377 0.069415 0.507142 0.110259
C57   C     C_R   0.486356 0.964100 0.463203 0.080747
C58   C     C_R   0.513664 0.035934 0.536768 0.080736
C59   C     C_R   0.384180 0.141551 0.878899 -0.169774
C60   C     C_R   0.618041 0.861328 0.123141 -0.178170
H29   H     H_    0.260650 0.166493 0.873083 0.126544
H30   H     H_    0.742973 0.836943 0.129124 0.125227
C61   C     C_R   0.376281 0.105770 0.915105 -0.181723
C62   C     C_R   0.625294 0.897413 0.087195 -0.182547
H31   H     H_    0.247116 0.103964 0.936401 0.119081
H32   H     H_    0.755279 0.899959 0.066261 0.119630
C63   C     C_R   0.533149 0.072817 0.924223 0.063448
C64   C     C_R   0.466733 0.929687 0.077837 0.063128
C65   C     C_R   0.699691 0.075325 0.895410 0.106475
C66   C     C_R   0.299265 0.926249 0.106249 0.105728
C67   C     C_R   0.707469 0.112542 0.859795 -0.191957
C68   C     C_R   0.291525 0.888385 0.141308 -0.193357
H33   H     H_    0.834462 0.114514 0.837769 0.122602
H34   H     H_    0.163399 0.885513 0.162860 0.121525
C69   C     C_R   0.550514 0.145780 0.851148 -0.074212
C70   C     C_R   0.449953 0.855701 0.150077 -0.069136
C71   C     C_R   0.640135 0.039675 0.001900 -0.144863
C72   C     C_R   0.358816 0.963084 0.000308 -0.145182
H35   H     H_    0.748317 0.069490 0.003233 0.104946
H36   H     H_    0.250871 0.933211 0.998929 0.104739
C73   C     C_R   0.623626 0.004905 0.038848 -0.183231
C74   C     C_R   0.375259 0.997868 0.963366 -0.183215
H37   H     H_    0.719718 0.008035 0.067998 0.122174
H38   H     H_    0.279262 0.994705 0.934191 0.122023
C75   C     C_R   0.481730 0.966672 0.038615 0.092218
C76   C     C_R   0.517308 0.036060 0.963586 0.091974
C77   C     C_3   0.864220 0.036834 0.899543 -0.389690
C78   C     C_3   0.806028 0.984580 0.879627 -0.282684
C79   C     C_3   0.967485 0.944782 0.884646 -0.775082
H39   H     H_    0.100060 0.958050 0.866500 0.225904
H40   H     H_    0.999186 0.937952 0.921834 0.226650
H41   H     H_    0.921867 0.907872 0.869073 0.221037
H42   H     H_    0.675691 0.969831 0.897712 0.204127
H43   H     H_    0.771336 0.989204 0.842292 0.193549
H44   H     H_    0.909581 0.032619 0.936109 0.176128
H45   H     H_    0.993127 0.050814 0.880212 0.172274
C80   C     C_3   0.134153 0.964612 0.102499 -0.389852
C81   C     C_3   0.191718 0.016625 0.123042 -0.281098
C82   C     C_3   0.030015 0.056412 0.118453 -0.777492
H46   H     H_    0.998782 0.063864 0.081336 0.226731
H47   H     H_    0.897342 0.042774 0.136326 0.226131
H48   H     H_    0.075158 0.093077 0.134564 0.220223
H49   H     H_    0.226272 0.011483 0.160333 0.193335
H50   H     H_    0.322024 0.031720 0.105178 0.203758
H51   H     H_    0.088843 0.969313 0.065977 0.175882
H52   H     H_    0.005439 0.950263 0.121672 0.172341
C83   C     C_3   0.300289 0.667163 0.121958 -0.363515
C84   C     C_3   0.253831 0.718084 0.097099 -0.299118
C85   C     C_3   0.438119 0.745274 0.081724 -0.762841
H53   H     H_    0.537059 0.749904 0.111456 0.223112
H54   H     H_    0.513298 0.722563 0.054460 0.227049
H55   H     H_    0.401439 0.783766 0.067280 0.225574
H56   H     H_    0.165342 0.710690 0.065863 0.196439
H57   H     H_    0.169938 0.743860 0.120402 0.191144
H58   H     H_    0.360058 0.673927 0.156851 0.192400
H59   H     H_    0.419514 0.647883 0.102588 0.171435
C86   C     C_3   0.700383 0.385528 0.833556 -0.366895
C87   C     C_3   0.746434 0.414168 0.788202 -0.280255
C88   C     C_3   0.565901 0.421285 0.758726 -0.743694
H60   H     H_    0.502928 0.383448 0.750002 0.243503
H61   H     H_    0.456217 0.444666 0.777588 0.221755
H62   H     H_    0.604230 0.441471 0.725997 0.211795
H63   H     H_    0.805940 0.452695 0.796262 0.192946
H64   H     H_    0.856110 0.392728 0.767629 0.184460
H65   H     H_    0.640365 0.346967 0.826669 0.196464
H66   H     H_    0.582882 0.407207 0.851399 0.166468
O21   O     O_3   0.658582 0.473090 0.070528 -0.575778
C89   C     C_3   0.702693 0.450885 0.114466 0.052453
H67   H     H_    0.572731 0.455225 0.136887 0.132637
H68   H     H_    0.820150 0.471345 0.132604 0.127706
C90   C     C_3   0.752931 0.393339 0.111480 -0.322898
H69   H     H_    0.621895 0.371726 0.102401 0.201234
H70   H     H_    0.865778 0.386389 0.084689 0.185367
C91   C     C_3   0.826653 0.372748 0.157708 -0.836560
H71   H     H_    0.962197 0.392461 0.167370 0.231858
H72   H     H_    0.856936 0.330864 0.154772 0.233174
H73   H     H_    0.716549 0.378822 0.185321 0.233519
O22   O     O_3   0.354044 0.423461 0.007694 -0.575374
C92   C     C_3   0.324546 0.374805 0.029013 0.079537
H74   H     H_    0.185550 0.356906 0.018618 0.110798
H75   H     H_    0.322440 0.379487 0.067273 0.131091
C93   C     C_3   0.486766 0.337474 0.014942 -0.316122
H76   H     H_    0.483629 0.330959 0.977007 0.186877
H77   H     H_    0.629287 0.353914 0.023373 0.197539
C94   C     C_3   0.465754 0.285598 0.039381 -0.840146
H78   H     H_    0.470357 0.290447 0.077534 0.228444
H79   H     H_    0.586029 0.259663 0.028753 0.233879
H80   H     H_    0.327077 0.267446 0.029805 0.233898

loop_
_geom_bond_atom_site_label_1
_geom_bond_atom_site_label_2
_ccdc_geom_bond_type
C28   C30   A    
C71   C73   A    
C85   H53   S    
C44   C46   A    
C87   H64   S    
C82   H47   S    
O13   V3    S    
C94   H78   S    
C49   C51   A    
C83   C84   S    
O4    C2    A    
V1    O19   S    
C79   H39   S    
C17   H7    S    
C59   C69   A    
C86   C87   S    
C73   H37   S    
O9    V1    S    
C71   C76   A    
C91   H71   S    
C54   H26   S    
C11   C13   A    
C64   C66   A    
C84   C85   S    
C13   C22   S    
C12   C14   A    
O3    C1    A    
C55   H27   S    
V2    O20   S    
C36   C38   A    
C63   C65   A    
C47   C49   A    
O12   V4    S    
C77   C78   S    
C50   C52   A    
C42   H18   S    
C89   H67   S    
C88   H61   S    
C24   C26   A    
C36   O22   S    
C71   H35   S    
C25   H9    S    
O7    C3    A    
C87   C88   S    
C90   C91   S    
C26   H10   S    
C91   H73   S    
C35   O21   S    
C28   C39   S    
O5    C7    A    
C84   H57   S    
C36   C39   A    
O7    V1    S    
O6    C8    A    
O8    V2    S    
C37   C39   A    
C48   H22   S    
C78   H43   S    
O3    V1    S    
C93   H76   S    
O14   V4    S    
N4    C22   A    
C43   H19   S    
C83   H58   S    
C56   C58   A    
O14   V2    S    
C41   C51   A    
C55   C57   A    
C92   C93   S    
C18   H8    S    
O22   C92   S    
C86   H65   S    
C2    O12   A    
C82   H48   S    
V3    O19   S    
C24   C86   S    
C94   H79   S    
C84   H56   S    
C14   C16   A    
C68   C70   A    
C14   C21   S    
O1    V3    S    
C79   H40   S    
C46   C57   S    
C16   H6    S    
O11   V3    S    
C88   H62   S    
C56   H28   S    
C4    C69   S    
N1    N3    A    
O17   V3    S    
N2    N4    A    
C31   C33   A    
C23   C25   A    
C26   C28   A    
C41   H17   S    
C38   C40   A    
V4    O20   S    
C53   C58   A    
C32   H14   S    
C42   C44   A    
C37   H15   S    
C41   C43   A    
C6    C34   S    
C27   C40   S    
C17   C19   A    
C1    O11   A    
C54   C57   A    
C35   C40   A    
C27   C29   A    
O15   V3    S    
C24   C34   A    
C9    C11   A    
C9    C19   A    
C60   C62   A    
C80   H51   S    
C29   H11   S    
O21   C89   S    
C67   H33   S    
C81   H50   S    
C78   H42   S    
C53   H25   S    
C44   H20   S    
C88   H60   S    
C60   C70   A    
C18   C20   A    
C30   C32   A    
O10   V2    S    
C93   C94   S    
C50   H24   S    
C73   C75   A    
C35   C37   A    
C32   C34   A    
C46   C48   A    
C83   H59   S    
C15   H5    S    
C81   C82   S    
C61   H31   S    
C74   H38   S    
C38   H16   S    
C77   H45   S    
C49   H23   S    
C86   H66   S    
O18   V4    S    
C85   H55   S    
C59   C61   A    
C1    C52   S    
N3    C21   A    
C74   C76   A    
C94   H80   S    
O16   C6    A    
C64   C75   S    
O1    C3    A    
O13   V1    S    
C23   C33   A    
C79   H41   S    
C62   H32   S    
C31   H13   S    
C54   C56   A    
C59   H29   S    
C66   C68   A    
C77   H44   S    
O16   V4    S    
C10   C12   A    
O18   C8    A    
C91   H72   S    
C13   C15   A    
C5    C33   S    
C78   C79   S    
C68   H34   S    
C42   C52   A    
C72   C74   A    
C72   H36   S    
N1    C22   A    
C47   H21   S    
O5    V1    S    
C61   C63   A    
O17   C7    A    
O6    V2    S    
O10   C6    A    
C10   C20   A    
C89   H68   S    
C89   C90   S    
C80   H52   S    
O2    V4    S    
O15   C5    A    
C81   H49   S    
C11   H3    S    
C16   C18   A    
C72   C75   A    
C12   H4    S    
C7    C19   S    
C8    C20   S    
C45   C47   A    
C53   C55   A    
C65   C77   S    
C48   C50   A    
C63   C76   S    
O9    C5    A    
C9    H1    S    
C3    C70   S    
C60   H30   S    
C29   C31   A    
C45   C58   S    
C43   C45   A    
O2    C4    A    
C2    C51   S    
C67   C69   A    
C90   H70   S    
C23   C83   S    
C92   H74   S    
O4    V2    S    
C66   C80   S    
C25   C27   A    
C90   H69   S    
C10   H2    S    
C85   H54   S    
C82   H46   S    
C65   C67   A    
C30   H12   S    
C93   H77   S    
C80   C81   S    
C15   C17   A    
C87   H63   S    
C62   C64   A    
O8    C4    A    
C92   H75   S    
N2    C21   A    
