data_mof_unit_56247.cif
_audit_creation_date              2012-12-10T18:10:23-0500
_audit_creation_method            fapswitch 2.2
_symmetry_space_group_name_H-M    P1
_symmetry_Int_Tables_number       1
_space_group_crystal_system       triclinic
_cell_length_a                    10.972336
_cell_length_b                    9.639551
_cell_length_c                    15.856165
_cell_angle_alpha                 90.635192
_cell_angle_beta                  96.508017
_cell_angle_gamma                 88.805534
_cell_volume                      1665.84766599

loop_
_atom_site_label
_atom_site_type_symbol
_atom_type_description
_atom_site_fract_x
_atom_site_fract_y
_atom_site_fract_z
_atom_type_partial_charge
C1    C     C_R   0.261453 0.500644 0.504480 0.854130
C2    C     C_3   0.620985 0.467780 0.963850 -0.348028
C3    C     C_3   0.613014 0.453933 0.060056 -0.479821
C4    C     C_1   0.497584 0.501704 0.824055 0.154793
C5    C     C_1   0.487405 0.495545 0.174667 0.138456
C6    C     C_1   0.492954 0.496644 0.250614 0.058851
C7    C     C_3   0.070307 0.648596 0.517044 -0.210019
C8    C     C_3   0.083339 0.403111 0.576086 -0.216576
C9    C     C_3   0.928254 0.652289 0.509516 -0.296955
C10   C     C_3   0.943509 0.425834 0.581086 -0.242851
C11   C     C_3   0.066375 0.441848 0.419742 -0.436322
C12   C     C_3   0.123578 0.499800 0.506708 -0.126667
C13   C     C_3   0.878172 0.498716 0.497132 -0.124827
C14   C     C_R   0.499007 0.499145 0.340709 0.967289
C15   C     C_3   0.923452 0.433132 0.411168 0.605693
C16   C     C_3   0.622150 0.079397 0.530285 -0.262572
C17   C     C_3   0.623835 0.915310 0.523748 -0.312332
C18   C     C_3   0.415882 0.085385 0.559499 -0.222191
C19   C     C_3   0.423955 0.920478 0.564626 -0.181920
C20   C     C_3   0.457376 0.083698 0.413924 0.230782
C21   C     C_3   0.451416 0.914644 0.415006 0.307555
C22   C     C_R   0.739419 0.499087 0.498064 0.815018
C23   C     C_R   0.501394 0.500651 0.659315 0.775281
C24   C     C_3   0.457901 0.648543 0.046175 0.130199
C25   C     C_3   0.393404 0.386856 0.037105 0.162555
C26   C     C_3   0.397294 0.390510 0.938647 0.117796
C27   C     C_3   0.445665 0.644892 0.947102 0.104166
C28   C     C_1   0.500432 0.502066 0.748759 -0.040405
C29   C     C_3   0.482630 0.497698 0.082005 -0.086577
C30   C     C_3   0.492022 0.500528 0.915910 -0.061054
Cu1   Cu    Cu3+1 0.499860 0.642410 0.500040 1.019091
Cu2   Cu    Cu3+1 0.499860 0.357590 0.500040 1.025580
H1    H     H_    0.347201 0.654265 0.922323 0.161239
H2    H     H_    0.305540 0.423618 0.907536 0.168549
H3    H     H_    0.100057 0.502545 0.368437 0.247187
H4    H     H_    0.105572 0.338504 0.411342 0.229321
H5    H     H_    0.648696 0.109475 0.597440 0.202445
H6    H     H_    0.667897 0.870264 0.584248 0.192729
H7    H     H_    0.692353 0.119837 0.492982 0.254610
H8    H     H_    0.681361 0.884505 0.474446 0.188636
H9    H     H_    0.437311 0.128944 0.624531 0.203783
H10   H     H_    0.462912 0.890946 0.629977 0.171941
H11   H     H_    0.532816 0.104896 0.374749 0.125072
H12   H     H_    0.515019 0.877792 0.369247 0.098996
H13   H     H_    0.319926 0.118419 0.539036 0.164310
H14   H     H_    0.331168 0.877124 0.557136 0.222822
H15   H     H_    0.429305 0.284150 0.060985 0.162714
H16   H     H_    0.542576 0.705716 0.068795 0.184429
H17   H     H_    0.684247 0.519688 0.095461 0.253834
H18   H     H_    0.635585 0.344983 0.079688 0.252212
H19   H     H_    0.685524 0.551614 0.954398 0.245845
H20   H     H_    0.663346 0.373028 0.938710 0.246300
H21   H     H_    0.098375 0.701834 0.462900 0.221679
H22   H     H_    0.102276 0.293600 0.557703 0.176721
H23   H     H_    0.897325 0.695750 0.569192 0.149207
H24   H     H_    0.932837 0.498777 0.634932 0.135898
N1    N     N_3   0.500250 0.143650 0.501830 -0.217909
N2    N     N_3   0.500250 0.856350 0.501830 -0.211536
O1    O     O_R   0.317570 0.620260 0.500050 -0.532522
O2    O     O_R   0.317570 0.379740 0.500050 -0.575551
O3    O     O_R   0.499890 0.620310 0.379470 -0.545269
O4    O     O_R   0.499890 0.379690 0.379470 -0.528987
O5    O     O_R   0.682190 0.620260 0.500020 -0.602312
O6    O     O_R   0.682190 0.379740 0.500020 -0.559218
O7    O     O_R   0.499870 0.620210 0.620600 -0.588251
O8    O     O_R   0.499870 0.379790 0.620600 -0.583137
C31   C     C_1   0.882842 0.756686 0.445261 0.362141
N3    N     N_1   0.851369 0.839999 0.394906 -0.168220
C32   C     C_1   0.890590 0.299984 0.612109 0.389410
N4    N     N_1   0.852894 0.201257 0.639736 -0.258275
S1    S     S_3+6 0.862188 0.523693 0.313070 0.039048
O9    O     O_2   0.739517 0.589176 0.322324 -0.331859
O10   O     O_2   0.946029 0.635968 0.290803 -0.262933
O11   O     O_3   0.843378 0.414386 0.229257 -0.459275
H25   H     H_    0.923070 0.412276 0.205420 0.397220
S2    S     S_3+6 0.882200 0.251910 0.390706 0.023584
O12   O     O_2   0.746485 0.241367 0.366145 -0.260017
O13   O     O_2   0.944659 0.198861 0.316674 -0.200441
O14   O     O_3   0.925684 0.147233 0.473078 -0.604348
H26   H     H_    0.975369 0.071374 0.450832 0.372030
S3    S     S_3+6 0.322944 0.170345 0.346908 0.107569
O15   O     O_2   0.298529 0.323030 0.348056 -0.276370
O16   O     O_2   0.343091 0.138545 0.256426 -0.167907
O17   O     O_3   0.185729 0.113936 0.363791 -0.426644
H27   H     H_    0.180298 0.134349 0.424497 0.327651
S4    S     S_3+6 0.301256 0.843864 0.367795 0.096539
O18   O     O_2   0.266627 0.901223 0.280751 -0.104055
O19   O     O_2   0.291063 0.691121 0.352975 -0.251368
O20   O     O_3   0.193723 0.888972 0.430172 -0.622502
H28   H     H_    0.115469 0.887696 0.392070 0.393952
S5    S     S_3+6 0.337308 0.753264 0.086967 0.124771
O21   O     O_2   0.286237 0.684092 0.159222 -0.135300
O22   O     O_2   0.391156 0.888518 0.119303 -0.230436
O23   O     O_3   0.220285 0.787881 0.011534 -0.428301
H29   H     H_    0.249872 0.861619 0.976516 0.384224
S6    S     S_3+6 0.237115 0.392807 0.063758 0.077574
O24   O     O_2   0.234676 0.405905 0.158057 -0.194108
O25   O     O_2   0.165886 0.511336 0.020094 -0.218194
O26   O     O_3   0.168137 0.244499 0.031244 -0.462524
H30   H     H_    0.084954 0.252568 0.049657 0.397707
S7    S     S_3+6 0.422035 0.218776 0.895462 0.047523
O27   O     O_2   0.403404 0.221644 0.800163 -0.281099
O28   O     O_2   0.549637 0.165773 0.923381 -0.254402
O29   O     O_3   0.320518 0.108839 0.927907 -0.416955
H31   H     H_    0.354996 0.081615 0.985883 0.393889
S8    S     S_3+6 0.516316 0.793710 0.904546 0.032777
O30   O     O_2   0.543213 0.901634 0.972700 -0.201849
O31   O     O_2   0.633772 0.754867 0.868959 -0.295665
O32   O     O_3   0.416937 0.860850 0.826310 -0.485438
H32   H     H_    0.465229 0.927134 0.797033 0.399591
C33   C     C_1   0.122969 0.720928 0.595216 0.283067
N5    N     N_1   0.163722 0.777475 0.656443 -0.221480
C34   C     C_1   0.153752 0.424454 0.660210 0.265064
N6    N     N_1   0.208115 0.441169 0.726285 -0.229273

loop_
_geom_bond_atom_site_label_1
_geom_bond_atom_site_label_2
_ccdc_geom_bond_type
C18   H13   S    
S7    O27   D    
Cu1   O3    S    
C33   N5    T    
S2    O14   S    
S3    O17   S    
S3    O15   D    
C3    H17   S    
C19   H14   S    
C27   H1    S    
C23   O8    A    
C11   H4    S    
S2    O13   D    
C1    O1    A    
C26   S7    S    
C5    C6    T    
S4    O19   D    
S5    O22   D    
S8    O30   D    
C14   O4    A    
S6    O26   S    
Cu1   O7    S    
C18   C19   S    
Cu1   O1    S    
C3    C29   S    
C9    C13   S    
C24   C29   S    
C4    C28   T    
C22   O5    A    
C11   C15   S    
C26   H2    S    
O26   H30   S    
C16   C17   S    
S6    O25   D    
C24   C27   S    
C9    H23   S    
C10   H24   S    
C25   H15   S    
C19   H10   S    
C16   H5    S    
C17   H6    S    
C15   S2    S    
S7    O28   D    
C20   S3    S    
C27   C30   S    
O23   H29   S    
C1    C12   S    
Cu2   N1    S    
O29   H31   S    
S3    O16   D    
C3    H18   S    
C5    C29   S    
C19   N2    S    
C25   C29   S    
C7    C12   S    
O11   H25   S    
C31   N3    T    
C24   H16   S    
Cu1   O5    S    
S2    O12   D    
Cu2   O6    S    
C1    O2    A    
C8    H22   S    
S5    O21   D    
S1    O10   D    
S4    O18   D    
C27   S8    S    
C25   C26   S    
C14   O3    A    
S4    O20   S    
C17   H8    S    
C9    C31   S    
C6    C14   S    
C21   H12   S    
C18   N1    S    
Cu1   Cu2   S    
C8    C12   S    
S6    O24   D    
C23   C28   S    
O17   H27   S    
C2    H20   S    
C8    C34   S    
C26   C30   S    
S7    O29   S    
C13   C15   S    
C18   H9    S    
C7    H21   S    
C24   S5    S    
C20   H11   S    
Cu1   N2    S    
Cu2   O8    S    
C34   N6    T    
C7    C9    S    
C21   S4    S    
C10   C13   S    
S1    O11   S    
C11   C12   S    
C15   S1    S    
C17   N2    S    
C2    C30   S    
C23   O7    A    
C11   H3    S    
C2    C3    S    
O20   H28   S    
Cu2   O4    S    
C21   N2    S    
O32   H32   S    
S5    O23   S    
S8    O31   D    
C7    C33   S    
C13   C22   S    
C16   N1    S    
C32   N4    T    
C2    H19   S    
C16   H7    S    
C22   O6    A    
O14   H26   S    
C10   C32   S    
S1    O9    D    
C20   C21   S    
C25   S6    S    
C8    C10   S    
Cu2   O2    S    
C20   N1    S    
C4    C30   S    
S8    O32   S    
