data_mof_unit_31084.cif
_audit_creation_date              2013-03-05T16:17:36-0500
_audit_creation_method            fapswitch 2.2
_symmetry_space_group_name_H-M    P1
_symmetry_Int_Tables_number       1
_space_group_crystal_system       triclinic
_cell_length_a                    13.048278
_cell_length_b                    13.617751
_cell_length_c                    27.716031
_cell_angle_alpha                 90.007917
_cell_angle_beta                  92.645085
_cell_angle_gamma                 85.09953
_cell_volume                      4901.54581373

loop_
_atom_site_label
_atom_site_type_symbol
_atom_site_description
_atom_site_fract_x
_atom_site_fract_y
_atom_site_fract_z
_atom_type_partial_charge
O1    O     O_R   0.402510 0.634760 0.497160 -0.608701
O2    O     O_R   0.597490 0.365240 0.502840 -0.602879
O3    O     O_R   0.572960 0.644530 0.502140 -0.599248
O4    O     O_R   0.427040 0.355470 0.497860 -0.606080
C1    C     C_R   0.480668 0.685123 0.499606 0.906010
C2    C     C_R   0.519371 0.314915 0.500568 0.902324
O5    O     O_R   0.414790 0.495100 0.568760 -0.616379
O6    O     O_R   0.585210 0.504900 0.431240 -0.605211
O7    O     O_R   0.585240 0.504870 0.573730 -0.603521
O8    O     O_R   0.414760 0.495130 0.426270 -0.612924
C3    C     C_R   0.499619 0.498239 0.594035 0.871793
C4    C     C_R   0.500436 0.501869 0.405960 0.875401
Zn1   Zn    Zn3+2 0.386190 0.493480 0.496680 0.977609
Zn2   Zn    Zn3+2 0.613810 0.506520 0.503320 1.000157
C5    C     C_R   0.513825 0.577746 0.821731 0.541791
C6    C     C_R   0.535901 0.424541 0.179012 0.534765
O9    O     O_2   0.526513 0.659334 0.795730 -0.566015
O10   O     O_2   0.566148 0.343384 0.205722 -0.570517
N1    N     N_R   0.497481 0.491522 0.798760 -0.348490
N2    N     N_R   0.501765 0.509844 0.201131 -0.349270
C7    C     C_R   0.487822 0.406261 0.823488 0.483002
C8    C     C_R   0.474134 0.594820 0.175787 0.481489
C9    C     C_R   0.577903 0.442528 0.724263 -0.153916
C10   C     C_R   0.568004 0.562940 0.279359 -0.161777
C11   C     C_R   0.581010 0.443822 0.674233 -0.040483
C12   C     C_R   0.569509 0.562324 0.329532 -0.034379
C13   C     C_R   0.414119 0.539462 0.669665 -0.295454
C14   C     C_R   0.429129 0.455199 0.326377 -0.277393
C15   C     C_R   0.411020 0.538083 0.719942 0.053096
C16   C     C_R   0.425788 0.457623 0.275991 0.054245
C17   C     C_R   0.494226 0.489587 0.747182 0.266751
C18   C     C_R   0.497316 0.510846 0.252552 0.261453
C19   C     C_R   0.509071 0.494941 0.898675 -0.066332
C20   C     C_R   0.511962 0.507342 0.101618 -0.066604
C21   C     C_R   0.518003 0.581625 0.872047 -0.036163
C22   C     C_R   0.539823 0.421083 0.128848 -0.034599
C23   C     C_R   0.534351 0.669713 0.895995 -0.176908
C24   C     C_R   0.573842 0.333801 0.105745 -0.178789
C25   C     C_R   0.494143 0.405250 0.874462 -0.060265
C26   C     C_R   0.479167 0.596286 0.125034 -0.061188
C27   C     C_R   0.498820 0.493509 0.646635 -0.089374
C28   C     C_R   0.500895 0.506301 0.353326 -0.091740
H1    H     H_    0.350868 0.577477 0.648471 0.165343
H2    H     H_    0.375169 0.413537 0.344687 0.164434
H3    H     H_    0.547503 0.735155 0.875630 0.196758
H4    H     H_    0.601390 0.268885 0.126791 0.195588
C29   C     C_R   0.500530 0.592501 0.023750 0.037812
C30   C     C_R   0.518516 0.409870 0.976522 0.037344
C31   C     C_R   0.536982 0.412677 0.027265 -0.000790
C32   C     C_R   0.517242 0.590188 0.973585 -0.000703
C33   C     C_R   0.516814 0.504225 0.050842 0.065935
C34   C     C_R   0.515189 0.498309 0.949641 0.066249
C35   C     C_R   0.461777 0.678739 0.046917 -0.244818
C36   C     C_R   0.496731 0.322787 0.952357 -0.244228
C37   C     C_R   0.451121 0.681814 0.096670 0.000260
C38   C     C_R   0.484777 0.319322 0.902215 -0.001008
O11   O     O_2   0.441617 0.676728 0.199992 -0.560910
O12   O     O_2   0.472207 0.323518 0.798435 -0.563375
C39   C     C_R   0.535337 0.674774 0.946166 -0.027284
C40   C     C_R   0.573923 0.328856 0.055592 -0.026704
H5    H     H_    0.621706 0.604309 0.260711 0.151081
H6    H     H_    0.641201 0.405661 0.745869 0.150165
H7    H     H_    0.433947 0.743585 0.026130 0.157512
H8    H     H_    0.483297 0.257415 0.972472 0.158745
C41   C     C_1   0.535803 0.211919 0.502031 -0.173645
C42   C     C_1   0.464460 0.788179 0.500786 -0.176811
C43   C     C_2   0.546037 0.020408 0.504707 -0.031909
C44   C     C_2   0.454903 0.979728 0.503771 -0.028680
C45   C     C_1   0.455596 0.875594 0.502146 -0.041241
C46   C     C_1   0.545121 0.124525 0.503445 -0.039117
N3    N     N_1   0.234530 0.484780 0.492250 -0.091588
N4    N     N_1   0.765470 0.515220 0.507750 -0.085062
C47   C     C_2   0.032790 0.482033 0.482388 -0.105488
C48   C     C_2   0.967630 0.513845 0.517754 -0.107430
C49   C     C_1   0.854912 0.514586 0.511443 0.098040
C50   C     C_1   0.145288 0.483578 0.488485 0.084802
C51   C     C_R   0.007596 0.545893 0.565835 0.142586
C52   C     C_R   0.967589 0.635462 0.585576 -0.150646
C53   C     C_R   0.002137 0.664727 0.631410 -0.132959
C54   C     C_R   0.076070 0.604489 0.658115 -0.116161
C55   C     C_R   0.115745 0.514921 0.639110 -0.138389
C56   C     C_R   0.081258 0.485224 0.593320 -0.123161
H9    H     H_    0.909556 0.682521 0.565519 0.131680
H10   H     H_    0.971122 0.733869 0.646343 0.135122
H11   H     H_    0.101776 0.626775 0.693715 0.157003
H12   H     H_    0.172507 0.468083 0.660060 0.142436
H13   H     H_    0.110887 0.414375 0.579666 0.121793
C57   C     C_R   0.993511 0.445516 0.435092 0.136007
C58   C     C_R   0.032723 0.353234 0.418004 -0.154456
C59   C     C_R   0.998529 0.318940 0.373041 -0.135279
C60   C     C_R   0.925845 0.376868 0.344484 -0.102744
C61   C     C_R   0.887578 0.469340 0.360766 -0.118273
C62   C     C_R   0.921270 0.503851 0.405820 -0.128410
H14   H     H_    0.089684 0.307810 0.439526 0.131404
H15   H     H_    0.028747 0.247607 0.360260 0.133251
H16   H     H_    0.899716 0.350421 0.309589 0.139698
H17   H     H_    0.832468 0.514534 0.338216 0.143795
H18   H     H_    0.892250 0.576440 0.417520 0.135289
C63   C     C_R   0.322621 0.590086 0.743605 0.113353
C64   C     C_R   0.297878 0.691358 0.735422 -0.100697
C65   C     C_R   0.217583 0.741751 0.759499 -0.151157
C66   C     C_R   0.160914 0.691313 0.791521 -0.117387
C67   C     C_R   0.184227 0.590334 0.799392 -0.137492
C68   C     C_R   0.264676 0.539746 0.775523 -0.182757
H19   H     H_    0.341859 0.731515 0.711076 0.144491
H20   H     H_    0.199305 0.819895 0.753335 0.142224
H21   H     H_    0.098708 0.730386 0.810082 0.139728
H22   H     H_    0.140017 0.551257 0.824034 0.144008
H23   H     H_    0.281722 0.461498 0.781896 0.158883
C69   C     C_R   0.347731 0.404064 0.248622 0.127289
C70   C     C_R   0.339045 0.303713 0.258007 -0.104058
C71   C     C_R   0.265884 0.252900 0.232086 -0.131638
C72   C     C_R   0.200595 0.301824 0.196795 -0.102939
C73   C     C_R   0.208081 0.401758 0.187497 -0.133103
C74   C     C_R   0.281029 0.452891 0.213371 -0.162536
H24   H     H_    0.389634 0.264616 0.285000 0.137039
H25   H     H_    0.259935 0.175519 0.239307 0.139386
H26   H     H_    0.144039 0.262366 0.176748 0.135207
H27   H     H_    0.157091 0.439725 0.160341 0.140375
H28   H     H_    0.284747 0.530616 0.206220 0.155860
C75   C     C_1   0.638327 0.623633 0.355401 0.174661
N5    N     N_1   0.693229 0.673006 0.376097 -0.240405
C76   C     C_1   0.667998 0.391481 0.652338 0.196179
N6    N     N_1   0.737654 0.349564 0.634819 -0.196268
C77   C     C_1   0.410450 0.774546 0.116561 0.280099
N7    N     N_1   0.377856 0.848942 0.132261 -0.173261
C78   C     C_1   0.462538 0.225749 0.881266 0.280732
N8    N     N_1   0.444746 0.150676 0.864721 -0.168323
C79   C     C_1   0.568933 0.763920 0.967834 0.159999
N9    N     N_1   0.596082 0.835288 0.985019 -0.181651
C80   C     C_1   0.625195 0.240971 0.035329 0.158926
N10   N     N_1   0.666501 0.170628 0.019270 -0.181834
C81   C     C_R   0.353158 0.038108 0.505280 0.144640
C82   C     C_R   0.275756 0.025120 0.469448 -0.143988
C83   C     C_R   0.179814 0.079135 0.470976 -0.144931
C84   C     C_R   0.160090 0.145819 0.508437 -0.125765
C85   C     C_R   0.236190 0.158593 0.544464 -0.121398
C86   C     C_R   0.332102 0.104590 0.543151 -0.131652
H29   H     H_    0.290010 0.973792 0.440170 0.132914
H30   H     H_    0.120706 0.069267 0.443120 0.134279
H31   H     H_    0.085731 0.187353 0.509653 0.129513
H32   H     H_    0.220698 0.210026 0.573546 0.129692
H33   H     H_    0.389766 0.114276 0.571734 0.131398
C87   C     C_R   0.648101 0.962569 0.504930 0.140098
C88   C     C_R   0.721480 0.975073 0.542662 -0.136599
C89   C     C_R   0.818677 0.923092 0.542631 -0.137376
C90   C     C_R   0.843716 0.859097 0.504739 -0.136470
C91   C     C_R   0.771559 0.846761 0.466886 -0.115441
C92   C     C_R   0.674181 0.898459 0.466780 -0.123365
H34   H     H_    0.703220 0.024807 0.572144 0.135537
H35   H     H_    0.874744 0.932716 0.571889 0.134903
H36   H     H_    0.919212 0.819443 0.504564 0.129383
H37   H     H_    0.791545 0.797705 0.437454 0.150032
H38   H     H_    0.619598 0.889269 0.436821 0.137513

loop_
_geom_bond_atom_site_label_1
_geom_bond_atom_site_label_2
_geom_bond_distance
_ccdc_geom_bond_type
C85   H32   1.082507 S    
C65   C66   1.397755 A    
C13   C15   1.396105 A    
C47   C48   1.373030 D    
C90   C91   1.396834 A    
O7    Zn2   2.004087 S    
N1    C17   1.428514 S    
C8    O11   1.348864 S    
C55   C56   1.398191 A    
C76   N6    1.157450 T    
C51   C52   1.406048 A    
C19   C34   1.412087 A    
C5    N1    1.363658 A    
C64   H19   1.083124 S    
C87   C92   1.406506 A    
C31   C40   1.422307 A    
C16   C69   1.483297 S    
O1    C1    1.275977 A    
C32   C39   1.422438 A    
C44   C81   1.490332 S    
N1    C7    1.366340 A    
C10   C12   1.389851 A    
C79   N9    1.157583 T    
C86   H33   1.083049 S    
C68   H23   1.082602 S    
C42   C45   1.186890 T    
C41   C46   1.186391 T    
O4    Zn1   1.909064 S    
C38   C78   1.446525 S    
C14   C28   1.402028 A    
C58   H14   1.082359 S    
C69   C70   1.406153 A    
C61   C62   1.399245 A    
C4    C28   1.460352 S    
C60   H16   1.082475 S    
C52   H9    1.082330 S    
C9    H6    1.084623 S    
C37   C77   1.446571 S    
C44   C45   1.418049 S    
C31   C33   1.417772 A    
C48   C51   1.487570 S    
C32   C34   1.417910 A    
C70   H24   1.083212 S    
C12   C75   1.444274 S    
C88   H34   1.083230 S    
C6    N2    1.363888 A    
C29   C35   1.405503 A    
C63   C68   1.405227 A    
C81   C86   1.407371 A    
C53   H10   1.082521 S    
O2    C2    1.275160 A    
N4    C49   1.166123 T    
C43   C87   1.487966 S    
C40   C80   1.446719 S    
C5    C21   1.394295 A    
C71   C72   1.397373 A    
C2    C41   1.400953 S    
C61   H17   1.081448 S    
C88   C89   1.398665 A    
C29   C32   1.417204 A    
C35   C37   1.392579 A    
C83   H30   1.082437 S    
C36   C38   1.392556 A    
C48   C49   1.472283 S    
C15   C63   1.480611 S    
C43   C44   1.353257 D    
C83   C84   1.397615 A    
C91   C92   1.398905 A    
O4    C2    1.280657 A    
C11   C27   1.411903 A    
C82   H29   1.083137 S    
C52   C53   1.397692 A    
C84   C85   1.396882 A    
C29   C33   1.412786 A    
Zn1   N3    1.990676 S    
C14   H2    1.084646 S    
C72   H26   1.082512 S    
C9    C17   1.396663 A    
C30   C36   1.405501 A    
C92   H38   1.083044 S    
C10   C18   1.398007 A    
C47   C57   1.486507 S    
C54   H11   1.079322 S    
C89   C90   1.397109 A    
O7    C3    1.283864 A    
C13   C27   1.402630 A    
O5    C3    1.286174 A    
C25   C38   1.417465 A    
C7    C25   1.411392 A    
C30   C34   1.412704 A    
O6    C4    1.285488 A    
C26   C37   1.417514 A    
C8    C26   1.411441 A    
C56   H13   1.083139 S    
C20   C33   1.412115 A    
C55   H12   1.082699 S    
C66   H21   1.082263 S    
C19   C25   1.417209 A    
C11   C76   1.445626 S    
C75   N5    1.156946 T    
C23   C39   1.391765 A    
O3    Zn2   1.909066 S    
O8    C4    1.284787 A    
C10   H5    1.084637 S    
C24   C40   1.391719 A    
C30   C31   1.416958 A    
N2    C8    1.366768 A    
C81   C82   1.405534 A    
C47   C50   1.471782 S    
C20   C26   1.417117 A    
C53   C54   1.396578 A    
O1    Zn1   1.953640 S    
C91   H37   1.081405 S    
C23   H3    1.085101 S    
C78   N8    1.157558 T    
N3    C50   1.165821 T    
C60   C61   1.397112 A    
C12   C28   1.410616 A    
C72   C73   1.397524 A    
N2    C18   1.429066 S    
C65   H20   1.082311 S    
C5    O9    1.350470 S    
C57   C62   1.406928 A    
C39   C79   1.446708 S    
O6    Zn2   2.015794 S    
C70   C71   1.398452 A    
C21   C23   1.398364 A    
Zn2   N4    1.990674 S    
C73   H27   1.082406 S    
C54   C55   1.396534 A    
O3    C1    1.280304 A    
O8    Zn1   2.004089 S    
C59   H15   1.082542 S    
C73   C74   1.398297 A    
C82   C83   1.399141 A    
C85   C86   1.398322 A    
C63   C64   1.405280 A    
C71   H25   1.082559 S    
C87   C88   1.405264 A    
C43   C46   1.417292 S    
C22   C24   1.398444 A    
C90   H36   1.082397 S    
C7    O12   1.348778 S    
C15   C17   1.409554 A    
C1    C42   1.401864 S    
C16   C18   1.410695 A    
C35   H7    1.081498 S    
C59   C60   1.396876 A    
C77   N7    1.157565 T    
C36   H8    1.081600 S    
C51   C56   1.408406 A    
C62   H18   1.083027 S    
C14   C16   1.395497 A    
C64   C65   1.398393 A    
C19   C21   1.408331 A    
C84   H31   1.082446 S    
C3    C27   1.459840 S    
C20   C22   1.408376 A    
C9    C11   1.389258 A    
C66   C67   1.397690 A    
O2    Zn2   1.953640 S    
C24   H4    1.085092 S    
C89   H35   1.082398 S    
C13   H1    1.084685 S    
O5    Zn1   2.015791 S    
C57   C58   1.406298 A    
C6    O10   1.350523 S    
C74   H28   1.082425 S    
C67   C68   1.398054 A    
C67   H22   1.082290 S    
C58   C59   1.397965 A    
C69   C74   1.406053 A    
C6    C22   1.394302 A    
C80   N10   1.157586 T    
