data_mof_unit_58540.cif
_audit_creation_date              2013-03-05T16:00:57-0500
_audit_creation_method            fapswitch 2.2
_symmetry_space_group_name_H-M    P1
_symmetry_Int_Tables_number       1
_space_group_crystal_system       triclinic
_cell_length_a                    10.617244
_cell_length_b                    14.698882
_cell_length_c                    14.738699
_cell_angle_alpha                 64.684365
_cell_angle_beta                  103.247868
_cell_angle_gamma                 102.929483
_cell_volume                      2003.14110921

loop_
_atom_site_label
_atom_site_type_symbol
_atom_site_description
_atom_site_fract_x
_atom_site_fract_y
_atom_site_fract_z
_atom_type_partial_charge
O1    O     O_R   0.454850 0.022100 0.338110 -0.600548
O2    O     O_R   0.545150 0.977900 0.661890 -0.602677
O3    O     O_R   0.512700 0.160150 0.379180 -0.554909
O4    O     O_R   0.487300 0.839850 0.620820 -0.520879
C1    C     C_R   0.476728 0.119930 0.312435 0.863145
C2    C     C_R   0.517424 0.879729 0.687909 0.827731
O5    O     O_R   0.287930 0.931000 0.479440 -0.567689
O6    O     O_R   0.712070 0.069000 0.520560 -0.568879
O7    O     O_R   0.345780 0.069050 0.520520 -0.600234
O8    O     O_R   0.654220 0.930950 0.479480 -0.603822
C3    C     C_R   0.259547 0.000382 0.500059 0.785263
C4    C     C_R   0.740465 0.999676 0.499838 0.805303
Cu1   Cu    Cu3+1 0.465750 0.918270 0.475680 0.983602
Cu2   Cu    Cu3+1 0.534250 0.081730 0.524320 0.962840
C5    C     C_3   0.016717 0.011770 0.407676 -0.177908
C6    C     C_3   0.983380 0.988316 0.592116 -0.185865
C7    C     C_3   0.962930 0.088424 0.429850 -0.137716
C8    C     C_3   0.037169 0.911656 0.569948 -0.145028
H1    H     H_    0.929775 0.160741 0.372453 0.187865
H2    H     H_    0.070720 0.839446 0.627340 0.171466
H3    H     H_    0.033753 0.021527 0.332264 0.131212
H4    H     H_    0.966464 0.978620 0.667531 0.132829
C9    C     C_3   0.877209 0.999157 0.499570 0.014630
C10   C     C_3   0.122847 0.000933 0.500227 0.018668
C11   C     C_3   0.928701 0.922434 0.477381 -0.136378
C12   C     C_3   0.071380 0.077644 0.522412 -0.142961
H5    H     H_    0.867660 0.858821 0.458994 0.142593
H6    H     H_    0.132430 0.141258 0.540791 0.148598
C13   C     C_R   0.436666 0.187374 0.207344 -0.135029
C14   C     C_R   0.523266 0.811271 0.796534 -0.151347
C15   C     C_R   0.255052 0.229500 0.070314 -0.178800
C16   C     C_R   0.625455 0.779750 0.969961 -0.187845
C17   C     C_R   0.316139 0.158244 0.156945 -0.259140
C18   C     C_R   0.601678 0.846067 0.868940 -0.248507
C19   C     C_R   0.501288 0.287807 0.165936 0.256543
C20   C     C_R   0.457547 0.709886 0.827996 0.274417
C21   C     C_R   0.429013 0.363427 0.089095 -0.013689
C22   C     C_R   0.476577 0.642867 0.932315 -0.023255
C23   C     C_R   0.308432 0.332274 0.037722 0.117837
C24   C     C_R   0.568750 0.677782 0.001181 0.118960
C25   C     C_R   0.471943 0.469136 0.062406 0.085724
C26   C     C_R   0.414354 0.540040 0.969874 0.072528
C27   C     C_R   0.292996 0.506685 0.922271 -0.120761
C28   C     C_R   0.561937 0.506461 0.129445 -0.129765
C29   C     C_R   0.240438 0.404477 0.956301 -0.198011
C30   C     C_R   0.605961 0.609867 0.100266 -0.203483
H7    H     H_    0.146229 0.381871 0.918514 0.146781
H8    H     H_    0.674370 0.636101 0.153980 0.144294
H9    H     H_    0.651338 0.923557 0.846439 0.166980
H10   H     H_    0.266053 0.081087 0.187333 0.155584
H11   H     H_    0.161856 0.205199 0.032625 0.143346
H12   H     H_    0.692582 0.807443 0.023143 0.142132
H13   H     H_    0.233006 0.559364 0.862495 0.190082
H14   H     H_    0.595021 0.456583 0.206439 0.170241
N1    N     N_R   0.585750 0.204560 0.560800 -0.176821
N2    N     N_R   0.414250 0.795440 0.439200 -0.179074
C31   C     C_R   0.722721 0.286569 0.664346 -0.301459
C32   C     C_R   0.278437 0.714056 0.334679 -0.308675
C33   C     C_R   0.686311 0.203935 0.636665 0.091166
C34   C     C_R   0.313711 0.796090 0.363311 0.094584
C35   C     C_R   0.517975 0.285052 0.509594 0.026712
C36   C     C_R   0.483063 0.715497 0.489510 0.086230
C37   C     C_R   0.550160 0.371947 0.533949 -0.023552
C38   C     C_R   0.451947 0.629166 0.464269 -0.019235
C39   C     C_R   0.654914 0.370583 0.613592 0.157150
C40   C     C_R   0.347268 0.630572 0.384573 0.156397
C41   C     C_R   0.482436 0.458933 0.483247 0.072904
C42   C     C_R   0.520414 0.542571 0.514356 0.077672
C43   C     C_R   0.625333 0.536710 0.594448 -0.187158
C44   C     C_R   0.378236 0.465167 0.402581 -0.227734
C45   C     C_R   0.691093 0.452618 0.642549 -0.175613
C46   C     C_R   0.312193 0.549116 0.354714 -0.179934
H15   H     H_    0.771097 0.451671 0.703609 0.150780
H16   H     H_    0.232617 0.550290 0.293315 0.149596
H17   H     H_    0.561808 0.721870 0.548054 0.129183
H18   H     H_    0.439124 0.278655 0.451116 0.119305
H19   H     H_    0.261283 0.860921 0.324535 0.116355
H20   H     H_    0.738095 0.138777 0.675977 0.118358
H21   H     H_    0.803093 0.284649 0.725346 0.139836
H22   H     H_    0.198147 0.716036 0.273612 0.140002
H23   H     H_    0.659538 0.596103 0.622284 0.145824
H24   H     H_    0.344903 0.406212 0.374074 0.133761
N3    N     N_R   0.384689 0.672737 0.752769 0.106980
O9    O     O_R   0.426440 0.604428 0.737483 -0.364666
O10   O     O_R   0.278662 0.709266 0.697476 -0.395305
N4    N     N_R   0.642240 0.308839 0.187307 0.100921
O11   O     O_R   0.707824 0.368568 0.113533 -0.351605
O12   O     O_R   0.707147 0.259047 0.275047 -0.388951

loop_
_geom_bond_atom_site_label_1
_geom_bond_atom_site_label_2
_geom_bond_distance
_ccdc_geom_bond_type
C37   C39   1.416596 A    
N1    C33   1.355991 A    
C25   C26   1.416837 A    
C31   H21   1.083854 S    
C24   C30   1.396650 A    
C4    C9    1.454487 S    
C7    C9    1.532008 S    
O1    C1    1.300166 A    
C7    C12   1.545596 S    
C38   C42   1.434599 A    
C19   C21   1.419071 A    
C10   C12   1.532926 S    
C22   C26   1.425694 A    
C19   N4    1.447260 S    
N4    O12   1.300267 A    
C5    C11   1.546035 S    
C20   N3    1.435796 S    
C32   C34   1.390304 A    
C13   C17   1.401354 A    
C3    C10   1.453787 S    
C35   C37   1.420401 A    
O4    Cu1   1.934431 S    
C43   C45   1.388459 A    
C16   H12   1.083994 S    
C36   C38   1.420435 A    
C27   H13   1.077751 S    
C40   C46   1.393510 A    
C28   C30   1.388833 A    
C42   C43   1.412465 A    
O6    Cu2   1.953812 S    
C15   C17   1.388775 A    
C32   H22   1.083823 S    
C23   C29   1.394346 A    
Cu1   N2    2.025199 S    
C9    C11   1.533279 S    
Cu2   N1    2.025199 S    
Cu1   Cu2   2.695895 S    
O2    C2    1.305516 A    
C8    C11   1.545763 S    
O2    Cu2   1.943929 S    
C33   H20   1.081824 S    
C32   C40   1.401405 A    
C1    C13   1.461628 S    
C29   H7    1.084108 S    
C35   H18   1.075157 S    
C6    C12   1.545874 S    
C37   C41   1.434672 A    
C34   H19   1.081849 S    
C14   C18   1.400914 A    
C41   C42   1.435172 A    
C43   H23   1.076334 S    
C46   H16   1.084331 S    
C15   H11   1.083904 S    
C45   H15   1.084357 S    
N4    O11   1.301911 A    
C17   H10   1.083741 S    
C39   C45   1.393356 A    
N2    C34   1.356020 A    
C16   C18   1.388312 A    
O5    C3    1.291420 A    
O7    Cu2   1.957720 S    
O7    C3    1.291587 A    
N3    O9    1.301455 A    
O5    Cu1   1.953811 S    
O6    C4    1.291635 A    
C27   C29   1.388773 A    
N2    C36   1.362034 A    
O3    Cu2   1.934432 S    
O8    C4    1.291651 A    
O4    C2    1.300182 A    
C5    C10   1.531602 S    
N3    O10   1.302102 A    
C6    C9    1.531778 S    
C25   C28   1.409450 A    
C8    C10   1.531823 S    
C36   H17   1.075044 S    
O1    Cu1   1.943929 S    
C26   C27   1.410666 A    
C5    C7    1.546242 S    
C18   H9    1.083369 S    
C6    H4    1.110234 S    
C2    C14   1.477921 S    
C31   C39   1.401382 A    
O3    C1    1.298934 A    
O8    Cu1   1.957720 S    
C11   H5    1.110306 S    
C13   C19   1.410918 A    
C12   H6    1.110303 S    
C14   C20   1.419415 A    
C41   C44   1.412508 A    
C20   C22   1.423583 A    
C21   C23   1.418410 A    
C22   C24   1.420135 A    
N1    C35   1.362229 A    
C7    H1    1.109694 S    
C15   C23   1.398249 A    
C8    H2    1.110077 S    
C16   C24   1.397854 A    
C21   C25   1.421031 A    
C44   H24   1.076425 S    
C31   C33   1.390181 A    
C30   H8    1.084054 S    
C28   H14   1.081520 S    
C5    H3    1.110353 S    
C6    C8    1.546273 S    
C44   C46   1.388541 A    
C38   C40   1.416532 A    
