data_mof_unit_65396.cif
_audit_creation_date              2013-03-05T16:17:34-0500
_audit_creation_method            fapswitch 2.2
_symmetry_space_group_name_H-M    P1
_symmetry_Int_Tables_number       1
_space_group_crystal_system       triclinic
_cell_length_a                    38.999476
_cell_length_b                    39.028612
_cell_length_c                    39.012548
_cell_angle_alpha                 90.05482
_cell_angle_beta                  89.988768
_cell_angle_gamma                 90.104918
_cell_volume                      59380.6926592

loop_
_atom_site_label
_atom_site_type_symbol
_atom_site_description
_atom_site_fract_x
_atom_site_fract_y
_atom_site_fract_z
_atom_type_partial_charge
O1    O     O_R   0.971060 0.549890 0.500000 -0.541323
O2    O     O_R   0.971060 0.500000 0.549890 -0.541982
O3    O     O_R   0.971060 0.450110 0.500000 -0.541168
O4    O     O_R   0.971060 0.500000 0.450110 -0.541644
O5    O     O_R   0.028940 0.450110 0.500000 -0.546726
O6    O     O_R   0.028940 0.500000 0.549890 -0.541319
O7    O     O_R   0.028940 0.549890 0.500000 -0.541178
O8    O     O_R   0.028940 0.500000 0.450110 -0.541226
O9    O     O_R   0.549890 0.500000 0.028940 -0.542233
O10   O     O_R   0.500000 0.450110 0.028940 -0.541077
O11   O     O_R   0.450110 0.500000 0.028940 -0.546721
O12   O     O_R   0.500000 0.549890 0.028940 -0.545830
O13   O     O_R   0.450110 0.500000 0.971060 -0.543963
O14   O     O_R   0.500000 0.450110 0.971060 -0.542051
O15   O     O_R   0.549890 0.500000 0.971060 -0.547971
O16   O     O_R   0.500000 0.549890 0.971060 -0.545101
O17   O     O_R   0.500000 0.971060 0.450110 -0.541998
O18   O     O_R   0.450110 0.971060 0.500000 -0.543782
O19   O     O_R   0.500000 0.971060 0.549890 -0.544534
O20   O     O_R   0.549890 0.971060 0.500000 -0.541473
O21   O     O_R   0.500000 0.028940 0.549890 -0.543493
O22   O     O_R   0.450110 0.028940 0.500000 -0.546378
O23   O     O_R   0.500000 0.028940 0.450110 -0.537901
O24   O     O_R   0.549890 0.028940 0.500000 -0.539798
O25   O     O_R   0.471060 0.049890 0.000000 -0.557766
O26   O     O_R   0.471060 0.000000 0.049890 -0.542224
O27   O     O_R   0.471060 0.950110 0.000000 -0.521954
O28   O     O_R   0.471060 0.000000 0.950110 -0.552569
O29   O     O_R   0.528940 0.950110 0.000000 -0.552900
O30   O     O_R   0.528940 0.000000 0.049890 -0.543208
O31   O     O_R   0.528940 0.049890 0.000000 -0.520994
O32   O     O_R   0.528940 0.000000 0.950110 -0.551184
O33   O     O_R   0.049890 0.000000 0.528940 -0.541587
O34   O     O_R   1.000000 0.950110 0.528940 -0.547166
O35   O     O_R   0.950110 0.000000 0.528940 -0.544543
O36   O     O_R   1.000000 0.049890 0.528940 -0.543419
O37   O     O_R   0.950110 0.000000 0.471060 -0.544464
O38   O     O_R   1.000000 0.950110 0.471060 -0.543052
O39   O     O_R   0.049890 0.000000 0.471060 -0.541310
O40   O     O_R   1.000000 0.049890 0.471060 -0.546835
O41   O     O_R   1.000000 0.471060 0.950110 -0.545233
O42   O     O_R   0.950110 0.471060 0.000000 -0.540799
O43   O     O_R   1.000000 0.471060 0.049890 -0.544760
O44   O     O_R   0.049890 0.471060 0.000000 -0.540743
O45   O     O_R   1.000000 0.528940 0.049890 -0.550222
O46   O     O_R   0.950110 0.528940 0.000000 -0.540054
O47   O     O_R   1.000000 0.528940 0.950110 -0.544696
O48   O     O_R   0.049890 0.528940 0.000000 -0.540039
C1    C     C_R   0.000033 0.566184 0.500007 0.906896
C2    C     C_R   0.999992 0.499996 0.566182 0.905934
C3    C     C_R   0.999984 0.433832 0.500000 0.896820
C4    C     C_R   0.000013 0.499930 0.433817 0.894190
C5    C     C_R   0.566169 0.499957 0.999983 0.924852
C6    C     C_R   0.499849 0.433849 0.999987 0.915260
C7    C     C_R   0.433829 0.499953 0.000016 0.923329
C8    C     C_R   0.500251 0.566110 0.000032 0.931467
C9    C     C_R   0.500027 0.999981 0.433810 0.912089
C10   C     C_R   0.433835 0.999960 0.499977 0.907970
C11   C     C_R   0.499505 0.000036 0.566042 0.898547
C12   C     C_R   0.566213 0.000078 0.499888 0.902406
C13   C     C_R   0.500074 0.066370 0.001133 0.893113
C14   C     C_R   0.499997 0.000001 0.066119 0.915540
C15   C     C_R   0.499901 0.933635 0.000930 0.891467
C16   C     C_R   0.500011 0.000055 0.933818 0.882193
C17   C     C_R   0.066178 0.000019 0.499998 0.914882
C18   C     C_R   0.000017 0.933833 0.499991 0.923292
C19   C     C_R   0.933843 0.999891 0.499997 0.929099
C20   C     C_R   0.999997 0.066172 0.500008 0.922715
C21   C     C_R   0.000001 0.499991 0.933840 0.918519
C22   C     C_R   0.933821 0.499967 0.000002 0.916394
C23   C     C_R   0.999990 0.500022 0.066147 0.909412
C24   C     C_R   0.066171 0.500031 0.000024 0.905057
Cu1   Cu    Cu3+1 0.965740 0.500000 0.500000 1.251788
Cu2   Cu    Cu3+1 0.034260 0.500000 0.500000 1.252571
Cu3   Cu    Cu3+1 0.500000 0.500000 0.034260 1.244500
Cu4   Cu    Cu3+1 0.500000 0.500000 0.965740 1.242154
Cu5   Cu    Cu3+1 0.500000 0.965740 0.500000 1.243467
Cu6   Cu    Cu3+1 0.500000 0.034260 0.500000 1.248001
Cu7   Cu    Cu3+1 0.465740 0.000000 0.000000 1.239949
Cu8   Cu    Cu3+1 0.534260 0.000000 0.000000 1.244264
Cu9   Cu    Cu3+1 1.000000 0.000000 0.534260 1.244759
Cu10  Cu    Cu3+1 1.000000 0.000000 0.465740 1.245148
Cu11  Cu    Cu3+1 0.000000 0.465740 0.000000 1.246296
Cu12  Cu    Cu3+1 1.000000 0.534260 0.000000 1.246312
C25   C     C_R   0.021154 0.523148 0.877802 0.224688
C26   C     C_R   0.021008 0.122275 0.523297 0.223834
C27   C     C_R   0.021963 0.477642 0.122054 0.222980
C28   C     C_R   0.021231 0.877880 0.476747 0.223666
C29   C     C_R   0.978709 0.476816 0.877851 0.223819
C30   C     C_R   0.978979 0.877745 0.523198 0.226047
C31   C     C_R   0.978062 0.522421 0.122182 0.225467
C32   C     C_R   0.978912 0.122140 0.476730 0.225864
C33   C     C_R   0.529528 0.123915 0.993578 0.226572
C34   C     C_R   0.122106 0.475917 0.979936 0.234789
C35   C     C_R   0.470206 0.876176 0.993655 0.231077
C36   C     C_R   0.877758 0.524470 0.980701 0.231647
C37   C     C_R   0.469845 0.122295 0.012984 0.214823
C38   C     C_R   0.877781 0.475247 0.019399 0.232292
C39   C     C_R   0.529513 0.877778 0.014072 0.224297
C40   C     C_R   0.122270 0.523462 0.020740 0.230755
C41   C     C_R   0.122212 0.019716 0.475574 0.231483
C42   C     C_R   0.523996 0.020297 0.877788 0.209199
C43   C     C_R   0.877640 0.020478 0.523161 0.224450
C44   C     C_R   0.520516 0.023781 0.121978 0.216206
C45   C     C_R   0.122210 0.980525 0.524414 0.231609
C46   C     C_R   0.479477 0.976248 0.121954 0.217212
C47   C     C_R   0.878055 0.978157 0.476746 0.224828
C48   C     C_R   0.476218 0.979703 0.877759 0.209189
C49   C     C_R   0.519480 0.024578 0.377757 0.228753
C50   C     C_R   0.523555 0.621352 0.022746 0.222993
C51   C     C_R   0.525421 0.982302 0.621445 0.231644
C52   C     C_R   0.518286 0.377580 0.975353 0.231504
C53   C     C_R   0.480721 0.975286 0.377698 0.231227
C54   C     C_R   0.479107 0.378239 0.024283 0.231424
C55   C     C_R   0.473106 0.016709 0.621882 0.230748
C56   C     C_R   0.479500 0.622569 0.977976 0.221697
C57   C     C_R   0.024630 0.622214 0.480471 0.230813
C58   C     C_R   0.622003 0.974890 0.480598 0.231180
C59   C     C_R   0.976160 0.377824 0.479572 0.229348
C60   C     C_R   0.377909 0.023287 0.478939 0.225366
C61   C     C_R   0.975657 0.622232 0.519580 0.230544
C62   C     C_R   0.377686 0.976343 0.520581 0.224913
C63   C     C_R   0.023786 0.377875 0.520289 0.231261
C64   C     C_R   0.622742 0.025079 0.518174 0.236230
C65   C     C_R   0.622334 0.520548 0.976448 0.227631
C66   C     C_R   0.975913 0.519837 0.377794 0.233794
C67   C     C_R   0.377755 0.520479 0.023643 0.226627
C68   C     C_R   0.024426 0.519583 0.622251 0.230414
C69   C     C_R   0.622072 0.478904 0.023387 0.222830
C70   C     C_R   0.975485 0.480361 0.622182 0.231248
C71   C     C_R   0.377827 0.478749 0.976708 0.224056
C72   C     C_R   0.023422 0.479102 0.377785 0.229066
C73   C     C_R   0.021186 0.523018 0.841711 0.234749
C74   C     C_R   0.020940 0.158362 0.523315 0.235067
C75   C     C_R   0.021754 0.477388 0.158147 0.235890
C76   C     C_R   0.021263 0.841797 0.476729 0.235235
C77   C     C_R   0.978705 0.476784 0.841759 0.235068
C78   C     C_R   0.978969 0.841664 0.523076 0.234634
C79   C     C_R   0.977903 0.522178 0.158279 0.234588
C80   C     C_R   0.978858 0.158223 0.476796 0.234468
C81   C     C_R   0.527716 0.159850 0.991272 0.230653
C82   C     C_R   0.158159 0.475717 0.980028 0.229187
C83   C     C_R   0.471448 0.840160 0.993012 0.228221
C84   C     C_R   0.841705 0.524222 0.980439 0.228598
C85   C     C_R   0.468242 0.158240 0.010679 0.233770
C86   C     C_R   0.841733 0.475484 0.019892 0.228322
C87   C     C_R   0.530267 0.841764 0.014402 0.227277
C88   C     C_R   0.158319 0.522734 0.021615 0.236010
C89   C     C_R   0.158265 0.020139 0.475799 0.228403
C90   C     C_R   0.524688 0.019523 0.841732 0.230329
C91   C     C_R   0.841548 0.020174 0.523009 0.234687
C92   C     C_R   0.520608 0.023726 0.158078 0.234461
C93   C     C_R   0.158263 0.980226 0.524171 0.228100
C94   C     C_R   0.479407 0.976307 0.158056 0.234571
C95   C     C_R   0.841969 0.977737 0.476776 0.235840
C96   C     C_R   0.475726 0.980204 0.841716 0.230287
C97   C     C_R   0.519675 0.024483 0.341697 0.228689
C98   C     C_R   0.524488 0.657380 0.022896 0.238051
C99   C     C_R   0.525972 0.982517 0.657459 0.233566
C100  C     C_R   0.517652 0.341565 0.975317 0.228569
C101  C     C_R   0.480461 0.975449 0.341640 0.228266
C102  C     C_R   0.477841 0.342247 0.023847 0.229833
C103  C     C_R   0.472522 0.015401 0.657922 0.240031
C104  C     C_R   0.479959 0.658624 0.978698 0.236973
C105  C     C_R   0.024400 0.658251 0.480045 0.228348
C106  C     C_R   0.658054 0.974369 0.480649 0.230176
C107  C     C_R   0.976247 0.341776 0.479348 0.229903
C108  C     C_R   0.341816 0.023366 0.478946 0.234996
C109  C     C_R   0.975870 0.658273 0.519842 0.228612
C110  C     C_R   0.341588 0.976582 0.520671 0.236519
C111  C     C_R   0.023477 0.341837 0.520671 0.228339
C112  C     C_R   0.658784 0.024062 0.518923 0.235036
C113  C     C_R   0.658427 0.520581 0.976656 0.234752
C114  C     C_R   0.975665 0.519552 0.341738 0.229303
C115  C     C_R   0.341662 0.520294 0.023665 0.234294
C116  C     C_R   0.024236 0.519840 0.658302 0.228480
C117  C     C_R   0.658166 0.478867 0.023457 0.235556
C118  C     C_R   0.975731 0.479943 0.658228 0.228445
C119  C     C_R   0.341727 0.478556 0.976806 0.235686
C120  C     C_R   0.022739 0.478151 0.341740 0.236197
C121  C     C_R   0.999968 0.499848 0.823756 -0.235761
C122  C     C_R   0.999860 0.176284 0.500081 -0.234890
C123  C     C_R   0.999692 0.499617 0.176214 -0.234586
C124  C     C_R   0.000108 0.823752 0.499857 -0.235764
C125  C     C_R   0.496907 0.176825 0.999099 -0.240048
C126  C     C_R   0.176282 0.499104 0.000913 -0.227803
C127  C     C_R   0.501442 0.822961 0.003356 -0.223893
C128  C     C_R   0.823679 0.499854 0.000225 -0.222607
C129  C     C_R   0.176304 0.000209 0.499977 -0.222793
C130  C     C_R   0.500279 0.999763 0.823617 -0.224197
C131  C     C_R   0.823805 0.998793 0.499842 -0.237722
C132  C     C_R   0.500014 0.000017 0.176093 -0.233202
C133  C     C_R   0.500049 0.999988 0.323638 -0.224450
C134  C     C_R   0.502514 0.675885 0.001081 -0.244098
C135  C     C_R   0.499371 0.998910 0.675812 -0.223162
C136  C     C_R   0.497292 0.323912 0.999475 -0.223513
C137  C     C_R   0.000121 0.676306 0.499894 -0.222266
C138  C     C_R   0.676446 0.998870 0.499921 -0.227208
C139  C     C_R   0.999802 0.323763 0.500051 -0.222971
C140  C     C_R   0.323733 0.000083 0.499871 -0.236383
C141  C     C_R   0.676262 0.499760 0.000156 -0.236718
C142  C     C_R   0.999089 0.498711 0.323698 -0.228126
C143  C     C_R   0.323716 0.499354 0.000248 -0.235911
C144  C     C_R   0.000001 0.499850 0.676306 -0.222669
C145  C     C_R   0.999969 0.499977 0.895978 -0.305778
C146  C     C_R   0.999964 0.104048 0.500019 -0.304538
C147  C     C_R   0.000007 0.500050 0.103991 -0.308958
C148  C     C_R   0.000064 0.895968 0.499973 -0.303852
C149  C     C_R   0.500053 0.104606 0.002991 -0.309217
C150  C     C_R   0.104046 0.500038 0.999985 -0.300437
C151  C     C_R   0.499736 0.895437 0.003005 -0.311190
C152  C     C_R   0.895927 0.499885 0.000025 -0.297579
C153  C     C_R   0.104063 0.000081 0.499992 -0.297504
C154  C     C_R   0.500054 0.000053 0.895913 -0.329232
C155  C     C_R   0.895995 0.999519 0.499967 -0.303710
C156  C     C_R   0.499994 0.000011 0.103900 -0.312736
C157  C     C_R   0.500081 0.999940 0.395894 -0.298860
C158  C     C_R   0.501112 0.603861 0.000208 -0.304507
C159  C     C_R   0.499545 0.000096 0.603687 -0.308187
C160  C     C_R   0.499172 0.396024 0.999941 -0.297646
C161  C     C_R   0.000113 0.604072 0.500023 -0.300271
C162  C     C_R   0.604160 0.000231 0.499348 -0.300349
C163  C     C_R   0.999967 0.395973 0.499965 -0.303178
C164  C     C_R   0.395961 0.999865 0.499861 -0.309429
C165  C     C_R   0.604041 0.499827 0.999944 -0.303407
C166  C     C_R   0.000005 0.499867 0.395934 -0.302868
C167  C     C_R   0.395953 0.499770 0.000087 -0.304406
C168  C     C_R   0.999967 0.499980 0.604068 -0.300248
C169  C     C_R   0.971031 0.511157 0.767988 -0.048448
C170  C     C_R   0.970607 0.232040 0.510751 -0.048584
C171  C     C_R   0.970459 0.487864 0.231845 -0.049069
C172  C     C_R   0.971170 0.767905 0.488476 -0.048709
C173  C     C_R   0.028904 0.488437 0.767969 -0.048520
C174  C     C_R   0.029097 0.768044 0.511146 -0.048318
C175  C     C_R   0.028390 0.510641 0.232246 -0.047065
C176  C     C_R   0.029027 0.232146 0.489361 -0.048441
C177  C     C_R   0.508224 0.232324 0.028112 -0.077769
C178  C     C_R   0.232138 0.528244 0.989718 -0.049489
C179  C     C_R   0.526796 0.767613 0.983722 -0.054580
C180  C     C_R   0.767734 0.470915 0.988723 -0.047536
C181  C     C_R   0.484288 0.232461 0.970689 -0.015658
C182  C     C_R   0.767787 0.528663 0.011858 -0.047750
C183  C     C_R   0.478352 0.766538 0.022798 -0.043180
C184  C     C_R   0.232225 0.470013 0.011486 -0.045974
C185  C     C_R   0.232267 0.011607 0.528881 -0.047666
C186  C     C_R   0.503012 0.968518 0.767712 -0.051844
C187  C     C_R   0.768031 0.970064 0.511873 -0.048844
C188  C     C_R   0.513032 0.971796 0.231936 -0.049365
C189  C     C_R   0.232177 0.988866 0.470958 -0.047647
C190  C     C_R   0.487048 0.028233 0.232013 -0.049982
C191  C     C_R   0.768154 0.027108 0.487165 -0.047723
C192  C     C_R   0.497634 0.030398 0.767450 -0.050488
C193  C     C_R   0.513024 0.971781 0.267695 -0.048179
C194  C     C_R   0.478324 0.730859 0.021842 -0.047610
C195  C     C_R   0.497986 0.030228 0.731736 -0.049430
C196  C     C_R   0.508487 0.268030 0.028171 -0.046598
C197  C     C_R   0.487079 0.028237 0.267772 -0.048094
C198  C     C_R   0.484439 0.268191 0.970777 -0.051168
C199  C     C_R   0.502159 0.968251 0.732002 -0.046692
C200  C     C_R   0.527161 0.731890 0.983284 -0.046105
C201  C     C_R   0.971198 0.732164 0.488412 -0.047969
C202  C     C_R   0.732418 0.027056 0.487022 -0.049340
C203  C     C_R   0.028985 0.267888 0.489275 -0.047726
C204  C     C_R   0.268022 0.011495 0.528884 -0.047935
C205  C     C_R   0.029068 0.732304 0.511247 -0.047696
C206  C     C_R   0.267929 0.988933 0.470899 -0.048451
C207  C     C_R   0.970601 0.267786 0.510776 -0.047889
C208  C     C_R   0.732271 0.970107 0.511969 -0.046024
C209  C     C_R   0.731982 0.470851 0.988818 -0.048238
C210  C     C_R   0.028231 0.510427 0.267993 -0.049843
C211  C     C_R   0.267985 0.470040 0.011209 -0.048662
C212  C     C_R   0.971072 0.511247 0.732240 -0.047943
C213  C     C_R   0.732034 0.528670 0.011754 -0.048563
C214  C     C_R   0.028890 0.488372 0.732218 -0.047558
C215  C     C_R   0.267889 0.528317 0.989577 -0.047678
C216  C     C_R   0.970314 0.487603 0.267604 -0.045656
H1    H     H_    0.948585 0.520075 0.781679 0.179176
H2    H     H_    0.947950 0.218329 0.519160 0.179473
H3    H     H_    0.948043 0.479018 0.218015 0.179653
H4    H     H_    0.948696 0.781528 0.479587 0.179198
H5    H     H_    0.051349 0.479532 0.781645 0.179344
H6    H     H_    0.051563 0.781774 0.520043 0.179410
H7    H     H_    0.050918 0.519686 0.218737 0.179778
H8    H     H_    0.051698 0.218519 0.480962 0.179408
H9    H     H_    0.517610 0.218557 0.050296 0.181285
H10   H     H_    0.218458 0.550811 0.981195 0.178864
H11   H     H_    0.545379 0.781632 0.968568 0.177440
H12   H     H_    0.781348 0.448538 0.979568 0.180584
H13   H     H_    0.475081 0.218794 0.948325 0.178077
H14   H     H_    0.781445 0.551070 0.020993 0.180577
H15   H     H_    0.459545 0.779708 0.038398 0.182945
H16   H     H_    0.218614 0.447409 0.020157 0.180766
H17   H     H_    0.218665 0.020595 0.551357 0.180657
H18   H     H_    0.505437 0.944497 0.781369 0.180242
H19   H     H_    0.781691 0.947963 0.521569 0.178987
H20   H     H_    0.523232 0.949911 0.218248 0.178482
H21   H     H_    0.218505 0.979877 0.448511 0.180403
H22   H     H_    0.476839 0.050121 0.218384 0.178125
H23   H     H_    0.781900 0.049234 0.477525 0.178719
H24   H     H_    0.495338 0.054577 0.780894 0.179536
H25   H     H_    0.523231 0.949885 0.281314 0.179548
H26   H     H_    0.459473 0.716741 0.036574 0.179268
H27   H     H_    0.496544 0.054336 0.718091 0.180769
H28   H     H_    0.518126 0.281601 0.050414 0.181015
H29   H     H_    0.476878 0.050126 0.281451 0.179699
H30   H     H_    0.475154 0.281899 0.948517 0.178784
H31   H     H_    0.503403 0.943986 0.718572 0.182994
H32   H     H_    0.546101 0.718562 0.967982 0.178147
H33   H     H_    0.948749 0.718487 0.479396 0.180411
H34   H     H_    0.718837 0.049148 0.477197 0.179271
H35   H     H_    0.051630 0.281553 0.480763 0.180359
H36   H     H_    0.281753 0.020316 0.551363 0.180425
H37   H     H_    0.051512 0.718736 0.520290 0.180501
H38   H     H_    0.281586 0.980065 0.448407 0.179135
H39   H     H_    0.947944 0.281374 0.519274 0.180506
H40   H     H_    0.718576 0.948052 0.521835 0.181208
H41   H     H_    0.718266 0.448427 0.979810 0.179314
H42   H     H_    0.050637 0.519349 0.281791 0.178628
H43   H     H_    0.281713 0.447466 0.019634 0.179379
H44   H     H_    0.948655 0.520298 0.718617 0.180262
H45   H     H_    0.718358 0.551086 0.020722 0.179396
H46   H     H_    0.051320 0.479340 0.718577 0.180531
H47   H     H_    0.281538 0.550945 0.981029 0.179369
H48   H     H_    0.947789 0.478531 0.281097 0.180872
C217  C     C_R   0.999989 0.499819 0.714170 0.168505
C218  C     C_R   0.999786 0.285898 0.500022 0.168401
C219  C     C_R   0.999207 0.498877 0.285846 0.168800
C220  C     C_R   0.000131 0.714172 0.499844 0.168549
C221  C     C_R   0.496637 0.286127 0.999490 0.169149
C222  C     C_R   0.285932 0.499213 0.000305 0.168930
C223  C     C_R   0.502711 0.713489 0.002084 0.168045
C224  C     C_R   0.714026 0.499750 0.000275 0.169097
C225  C     C_R   0.285962 0.000195 0.499879 0.168457
C226  C     C_R   0.499841 0.999123 0.713747 0.165008
C227  C     C_R   0.714295 0.998631 0.499589 0.167832
C228  C     C_R   0.500054 0.000004 0.285782 0.169818
C229  C     C_R   0.500031 0.000015 0.213936 0.169080
C230  C     C_R   0.502318 0.785129 0.003410 0.167224
C231  C     C_R   0.500375 0.999563 0.785693 0.164700
C232  C     C_R   0.496159 0.214476 0.999375 0.162142
C233  C     C_R   0.000132 0.785971 0.499807 0.169051
C234  C     C_R   0.786062 0.998626 0.499603 0.169431
C235  C     C_R   0.999833 0.214084 0.500079 0.168768
C236  C     C_R   0.214166 0.000238 0.499937 0.168715
C237  C     C_R   0.785817 0.499808 0.000282 0.168739
C238  C     C_R   0.999507 0.499363 0.214028 0.168217
C239  C     C_R   0.214133 0.499117 0.000738 0.169138
C240  C     C_R   0.999962 0.499795 0.785974 0.168856
N1    N     N_R   0.042668 0.547023 0.895856 0.179663
O49   O     O_R   0.040615 0.579660 0.889417 -0.212810
O50   O     O_R   0.065397 0.536112 0.917650 -0.293704
N2    N     N_R   0.042606 0.104259 0.547018 0.179109
O51   O     O_R   0.040515 0.110504 0.579718 -0.212534
O52   O     O_R   0.065446 0.082687 0.535889 -0.297967
N3    N     N_R   0.044698 0.455139 0.103831 0.178932
O53   O     O_R   0.044269 0.422364 0.109888 -0.211959
O54   O     O_R   0.066761 0.467499 0.082067 -0.311157
N4    N     N_R   0.042850 0.896033 0.453081 0.179087
O55   O     O_R   0.040895 0.889747 0.420379 -0.212651
O56   O     O_R   0.065597 0.917753 0.464264 -0.298466
N5    N     N_R   0.956955 0.453246 0.895975 0.179147
O57   O     O_R   0.958733 0.420549 0.889702 -0.212454
O58   O     O_R   0.934274 0.464519 0.917670 -0.298634
N6    N     N_R   0.957532 0.895742 0.547115 0.178904
O59   O     O_R   0.959765 0.889382 0.579770 -0.214441
O60   O     O_R   0.934621 0.917327 0.536218 -0.297584
N7    N     N_R   0.955909 0.545587 0.104124 0.179298
O61   O     O_R   0.956866 0.578253 0.110758 -0.213385
O62   O     O_R   0.933765 0.533967 0.082032 -0.300056
N8    N     N_R   0.957521 0.104003 0.452820 0.178909
O63   O     O_R   0.959846 0.110265 0.420149 -0.214113
O64   O     O_R   0.934577 0.082375 0.463738 -0.297044
N9    N     N_R   0.561569 0.107459 0.986267 0.187560
O65   O     O_R   0.579738 0.095291 0.011425 -0.213077
O66   O     O_R   0.575947 0.111623 0.956462 -0.185757
N10   N     N_R   0.103933 0.452953 0.957695 0.175607
O67   O     O_R   0.100031 0.421000 0.966321 -0.219757
O68   O     O_R   0.087926 0.464765 0.930972 -0.289075
N11   N     N_R   0.438715 0.892765 0.984520 0.187788
O69   O     O_R   0.425656 0.887899 0.954218 -0.181348
O70   O     O_R   0.419347 0.905254 0.008632 -0.215351
N12   N     N_R   0.895836 0.548222 0.959273 0.176257
O71   O     O_R   0.899901 0.579808 0.969154 -0.218708
O72   O     O_R   0.911594 0.537390 0.931960 -0.287802
N13   N     N_R   0.440859 0.104046 0.026494 0.182183
O73   O     O_R   0.410793 0.107412 0.012455 -0.228853
O74   O     O_R   0.443943 0.086295 0.054544 -0.267981
N14   N     N_R   0.895892 0.451367 0.040570 0.176426
O75   O     O_R   0.900264 0.419986 0.030224 -0.219302
O76   O     O_R   0.911180 0.461890 0.068281 -0.284110
N15   N     N_R   0.558120 0.896183 0.028020 0.182698
O77   O     O_R   0.585621 0.900812 0.009716 -0.231051
O78   O     O_R   0.555585 0.910708 0.057939 -0.268324
N16   N     N_R   0.104191 0.546332 0.043056 0.165789
O79   O     O_R   0.102518 0.539812 0.075701 -0.247381
O80   O     O_R   0.093850 0.575876 0.031673 -0.231340
N17   N     N_R   0.104103 0.041259 0.452020 0.176117
O81   O     O_R   0.099969 0.031570 0.420378 -0.219026
O82   O     O_R   0.088365 0.068458 0.463096 -0.288465
N18   N     N_R   0.547298 0.042230 0.895966 0.184728
O83   O     O_R   0.535469 0.065815 0.916332 -0.311860
O84   O     O_R   0.580223 0.039472 0.891375 -0.198469
N19   N     N_R   0.895512 0.042173 0.546999 0.178635
O85   O     O_R   0.917077 0.065147 0.536022 -0.297256
O86   O     O_R   0.889048 0.040102 0.579654 -0.213778
N20   N     N_R   0.541263 0.048148 0.103730 0.178796
O87   O     O_R   0.573953 0.050499 0.109982 -0.202394
O88   O     O_R   0.527316 0.068865 0.081678 -0.313868
N21   N     N_R   0.104099 0.958948 0.548003 0.176255
O89   O     O_R   0.099985 0.968654 0.579640 -0.218829
O90   O     O_R   0.088363 0.931674 0.536975 -0.287977
N22   N     N_R   0.458709 0.951886 0.103683 0.178703
O91   O     O_R   0.426024 0.949542 0.109972 -0.203895
O92   O     O_R   0.472630 0.931169 0.081570 -0.314992
N23   N     N_R   0.896347 0.956832 0.452946 0.178442
O93   O     O_R   0.890010 0.958856 0.420268 -0.214784
O94   O     O_R   0.918131 0.934179 0.463979 -0.298808
N24   N     N_R   0.453005 0.957714 0.895914 0.184771
O95   O     O_R   0.464975 0.934131 0.916139 -0.308883
O96   O     O_R   0.420068 0.960315 0.891339 -0.198705
N25   N     N_R   0.541102 0.048169 0.395875 0.176625
O97   O     O_R   0.531636 0.079883 0.399688 -0.215399
O98   O     O_R   0.567953 0.037027 0.412167 -0.288901
N26   N     N_R   0.545390 0.602680 0.045745 0.177611
O99   O     O_R   0.544913 0.609325 0.078431 -0.218070
O100  O     O_R   0.567078 0.580314 0.033926 -0.303237
N27   N     N_R   0.552299 0.965491 0.602872 0.171346
O101  O     O_R   0.552414 0.932258 0.600373 -0.225844
O102  O     O_R   0.573680 0.983362 0.584569 -0.317597
N28   N     N_R   0.540352 0.395291 0.951894 0.176209
O103  O     O_R   0.531117 0.399186 0.920104 -0.218998
O104  O     O_R   0.567523 0.411043 0.963177 -0.288774
N29   N     N_R   0.459273 0.951530 0.395759 0.176332
O105  O     O_R   0.469198 0.920009 0.399921 -0.218823
O106  O     O_R   0.431957 0.962353 0.411509 -0.288043
N30   N     N_R   0.457960 0.396709 0.047961 0.176233
O107  O     O_R   0.468009 0.400984 0.079468 -0.220089
O108  O     O_R   0.430703 0.412492 0.037114 -0.289871
N31   N     N_R   0.445469 0.032897 0.603811 0.158004
O109  O     O_R   0.450864 0.061325 0.587284 -0.261628
O110  O     O_R   0.414126 0.022378 0.608380 -0.225145
N32   N     N_R   0.456946 0.605123 0.954608 0.178119
O111  O     O_R   0.457514 0.612538 0.922103 -0.217181
O112  O     O_R   0.434612 0.583076 0.965936 -0.297957
N33   N     N_R   0.048353 0.604106 0.459062 0.177093
O113  O     O_R   0.079953 0.600128 0.468921 -0.217310
O114  O     O_R   0.037462 0.588177 0.431854 -0.283220
N34   N     N_R   0.603643 0.951213 0.459261 0.176485
O115  O     O_R   0.600380 0.919391 0.468598 -0.217115
O116  O     O_R   0.586843 0.962278 0.432693 -0.291592
N35   N     N_R   0.953600 0.395940 0.456974 0.176000
O117  O     O_R   0.921356 0.399264 0.464798 -0.216493
O118  O     O_R   0.966081 0.412864 0.431097 -0.301350
N36   N     N_R   0.396116 0.047005 0.457431 0.179495
O119  O     O_R   0.390059 0.079705 0.459641 -0.214383
O120  O     O_R   0.417610 0.035862 0.434495 -0.297562
N37   N     N_R   0.952115 0.604151 0.541256 0.176630
O121  O     O_R   0.920328 0.600371 0.531882 -0.217352
O122  O     O_R   0.963335 0.587921 0.568101 -0.288551
N38   N     N_R   0.395609 0.951878 0.541417 0.181912
O123  O     O_R   0.388719 0.919356 0.538705 -0.213109
O124  O     O_R   0.417890 0.962085 0.564054 -0.300052
N39   N     N_R   0.046848 0.396043 0.542425 0.176793
O125  O     O_R   0.078783 0.399958 0.533617 -0.219035
O126  O     O_R   0.035077 0.412236 0.569085 -0.288285
N40   N     N_R   0.605153 0.050395 0.538161 0.170944
O127  O     O_R   0.606801 0.049272 0.571441 -0.218750
O128  O     O_R   0.594024 0.078098 0.523391 -0.232813
N41   N     N_R   0.604423 0.541501 0.952079 0.179174
O129  O     O_R   0.610897 0.538574 0.919490 -0.216914
O130  O     O_R   0.582911 0.564731 0.962470 -0.294407
N42   N     N_R   0.953118 0.542262 0.395877 0.176080
O131  O     O_R   0.920908 0.534189 0.399108 -0.217270
O132  O     O_R   0.965281 0.568414 0.412645 -0.290774
N43   N     N_R   0.395782 0.541693 0.047794 0.179136
O133  O     O_R   0.417260 0.564899 0.037143 -0.293437
O134  O     O_R   0.389540 0.538952 0.080441 -0.215280
N44   N     N_R   0.047939 0.541304 0.604183 0.176647
O135  O     O_R   0.079726 0.531999 0.600416 -0.216754
O136  O     O_R   0.036691 0.568120 0.587950 -0.288541
N45   N     N_R   0.603848 0.457475 0.047161 0.179039
O137  O     O_R   0.609994 0.459725 0.079866 -0.212906
O138  O     O_R   0.582250 0.434567 0.036070 -0.296889
N46   N     N_R   0.951790 0.458880 0.604037 0.176854
O139  O     O_R   0.920149 0.468587 0.600100 -0.218237
O140  O     O_R   0.962742 0.431793 0.588003 -0.285683
N47   N     N_R   0.395958 0.457403 0.952807 0.178988
O141  O     O_R   0.389689 0.459663 0.920132 -0.214257
O142  O     O_R   0.417585 0.434553 0.963751 -0.299600
N48   N     N_R   0.046269 0.456879 0.395941 0.165649
O143  O     O_R   0.039517 0.424298 0.397960 -0.247335
O144  O     O_R   0.075914 0.468269 0.406192 -0.229566
N49   N     N_R   0.043213 0.546185 0.823322 0.169413
O145  O     O_R   0.030862 0.565725 0.799319 -0.250161
O146  O     O_R   0.075716 0.547934 0.830651 -0.217771
N50   N     N_R   0.042732 0.176785 0.546695 0.168909
O147  O     O_R   0.030151 0.200664 0.566282 -0.249585
O148  O     O_R   0.075262 0.169672 0.548531 -0.219111
N51   N     N_R   0.044370 0.454808 0.176431 0.168220
O149  O     O_R   0.032444 0.434480 0.200031 -0.248989
O150  O     O_R   0.077004 0.454474 0.169495 -0.218161
N52   N     N_R   0.043250 0.823507 0.453479 0.169541
O151  O     O_R   0.030869 0.799511 0.433858 -0.250165
O152  O     O_R   0.075760 0.830870 0.451790 -0.218083
N53   N     N_R   0.956638 0.453592 0.823415 0.169436
O153  O     O_R   0.968960 0.433934 0.799453 -0.250027
O154  O     O_R   0.924112 0.451999 0.830687 -0.218285
N54   N     N_R   0.957041 0.823241 0.546307 0.169479
O155  O     O_R   0.969477 0.799269 0.565821 -0.250438
O156  O     O_R   0.924544 0.830509 0.548140 -0.220298
N55   N     N_R   0.955207 0.544621 0.176690 0.168362
O157  O     O_R   0.966965 0.564497 0.200788 -0.249374
O158  O     O_R   0.922685 0.545367 0.169294 -0.219141
N56   N     N_R   0.957050 0.176497 0.453409 0.168896
O159  O     O_R   0.969596 0.200436 0.433863 -0.249764
O160  O     O_R   0.924556 0.169128 0.451466 -0.220317
N57   N     N_R   0.557755 0.179242 0.982160 0.175194
O161  O     O_R   0.586289 0.174965 0.998894 -0.207233
O162  O     O_R   0.556646 0.201396 0.957282 -0.252427
N58   N     N_R   0.176341 0.452990 0.957443 0.159700
O163  O     O_R   0.171026 0.420110 0.958748 -0.219657
O164  O     O_R   0.198821 0.465062 0.935940 -0.251542
N59   N     N_R   0.442028 0.821033 0.981616 0.161263
O165  O     O_R   0.412276 0.825717 0.995956 -0.217715
O166  O     O_R   0.444933 0.798787 0.956923 -0.245469
N60   N     N_R   0.823453 0.547574 0.958601 0.159092
O167  O     O_R   0.828846 0.580399 0.960785 -0.219997
O168  O     O_R   0.800930 0.536107 0.936800 -0.251167
N61   N     N_R   0.438034 0.175984 0.022070 0.178597
O169  O     O_R   0.422423 0.197375 0.001867 -0.269336
O170  O     O_R   0.425867 0.170574 0.052651 -0.210022
N62   N     N_R   0.823529 0.452066 0.041786 0.159239
O171  O     O_R   0.829111 0.419281 0.039786 -0.218362
O172  O     O_R   0.800981 0.463443 0.063574 -0.250719
N63   N     N_R   0.559745 0.824312 0.027901 0.159396
O173  O     O_R   0.590006 0.829790 0.014981 -0.228106
O174  O     O_R   0.556279 0.802194 0.052604 -0.249811
N64   N     N_R   0.176578 0.545538 0.044179 0.164198
O175  O     O_R   0.169212 0.578028 0.044945 -0.214323
O176  O     O_R   0.200140 0.533776 0.064619 -0.249245
N65   N     N_R   0.176498 0.042247 0.452612 0.159314
O177  O     O_R   0.171027 0.040444 0.419774 -0.219291
O178  O     O_R   0.199056 0.063942 0.464240 -0.251505
N66   N     N_R   0.550173 0.039000 0.823565 0.159796
O179  O     O_R   0.553722 0.071655 0.829348 -0.229823
O180  O     O_R   0.569921 0.024132 0.801174 -0.251782
N67   N     N_R   0.822937 0.042104 0.546060 0.170796
O181  O     O_R   0.798829 0.029659 0.565492 -0.249430
O182  O     O_R   0.830116 0.074633 0.547758 -0.218399
N68   N     N_R   0.541346 0.048110 0.176412 0.167388
O183  O     O_R   0.562418 0.037919 0.200149 -0.248865
O184  O     O_R   0.539281 0.080619 0.169359 -0.224765
N69   N     N_R   0.176491 0.958180 0.547350 0.159496
O185  O     O_R   0.171051 0.959993 0.580193 -0.218145
O186  O     O_R   0.199001 0.936522 0.535707 -0.250315
N70   N     N_R   0.458680 0.951925 0.176367 0.167323
O187  O     O_R   0.437630 0.962118 0.200150 -0.249475
O188  O     O_R   0.460736 0.919416 0.169248 -0.223481
N71   N     N_R   0.823806 0.955459 0.453645 0.170362
O189  O     O_R   0.799699 0.967470 0.434007 -0.251891
O190  O     O_R   0.831477 0.923067 0.452001 -0.219435
N72   N     N_R   0.450309 0.960621 0.823538 0.159589
O191  O     O_R   0.446783 0.927986 0.829382 -0.227942
O192  O     O_R   0.430618 0.975374 0.801056 -0.251922
N73   N     N_R   0.541264 0.048151 0.323457 0.161208
O193  O     O_R   0.538600 0.080943 0.328754 -0.218277
O194  O     O_R   0.563135 0.037026 0.300863 -0.251959
N74   N     N_R   0.548471 0.675099 0.044634 0.175598
O195  O     O_R   0.538096 0.699140 0.065283 -0.259905
O196  O     O_R   0.580765 0.666789 0.044275 -0.215196
N75   N     N_R   0.554793 0.968115 0.675276 0.154497
O197  O     O_R   0.563323 0.936256 0.670569 -0.229394
O198  O     O_R   0.572342 0.986762 0.696691 -0.253020
N76   N     N_R   0.539181 0.322931 0.951933 0.159827
O199  O     O_R   0.536963 0.328154 0.919090 -0.220976
O200  O     O_R   0.560585 0.300107 0.963377 -0.249271
N77   N     N_R   0.458890 0.951762 0.323355 0.160884
O201  O     O_R   0.461315 0.918994 0.328853 -0.218207
O202  O     O_R   0.437128 0.962854 0.300670 -0.252759
N78   N     N_R   0.455452 0.324406 0.047089 0.158879
O203  O     O_R   0.457218 0.330051 0.079904 -0.221552
O204  O     O_R   0.433449 0.302112 0.035530 -0.255018
N79   N     N_R   0.444399 0.030592 0.676264 0.160052
O205  O     O_R   0.435118 0.061946 0.669859 -0.230020
O206  O     O_R   0.427542 0.012888 0.698969 -0.250265
N80   N     N_R   0.456634 0.677652 0.957465 0.176696
O207  O     O_R   0.467826 0.702147 0.937799 -0.259780
O208  O     O_R   0.424076 0.670307 0.957507 -0.211844
N81   N     N_R   0.047689 0.676446 0.458002 0.159549
O209  O     O_R   0.080535 0.671080 0.459948 -0.218823
O210  O     O_R   0.036146 0.698882 0.436237 -0.250040
N82   N     N_R   0.675975 0.950190 0.459426 0.160055
O211  O     O_R   0.671177 0.917457 0.463457 -0.221849
O212  O     O_R   0.698089 0.960812 0.436810 -0.250539
N83   N     N_R   0.953692 0.323512 0.456600 0.160526
O213  O     O_R   0.920752 0.328493 0.457868 -0.219607
O214  O     O_R   0.965960 0.301143 0.435120 -0.249476
N84   N     N_R   0.323548 0.046820 0.457215 0.169495
O215  O     O_R   0.299668 0.066377 0.469815 -0.251293
O216  O     O_R   0.330790 0.048735 0.424714 -0.219140
N85   N     N_R   0.952632 0.676511 0.541862 0.159580
O217  O     O_R   0.919758 0.671263 0.539766 -0.220089
O218  O     O_R   0.964243 0.698985 0.563638 -0.250222
N86   N     N_R   0.323091 0.953189 0.542357 0.169797
O219  O     O_R   0.298928 0.933900 0.529758 -0.250894
O220  O     O_R   0.330513 0.950958 0.574794 -0.210101
N87   N     N_R   0.046032 0.323653 0.543398 0.159930
O221  O     O_R   0.078934 0.329070 0.542463 -0.219156
O222  O     O_R   0.033777 0.301140 0.564739 -0.250288
N88   N     N_R   0.677387 0.048436 0.539466 0.164640
O223  O     O_R   0.670865 0.081024 0.537037 -0.216058
O224  O     O_R   0.700584 0.038087 0.561059 -0.243989
N89   N     N_R   0.676939 0.542213 0.953224 0.169830
O225  O     O_R   0.701052 0.529577 0.933955 -0.251735
O226  O     O_R   0.669572 0.574632 0.950918 -0.219491
N90   N     N_R   0.952899 0.541955 0.323461 0.160815
O227  O     O_R   0.919948 0.540090 0.328263 -0.219235
O228  O     O_R   0.964987 0.563609 0.301160 -0.250409
N91   N     N_R   0.323255 0.541808 0.047265 0.169215
O229  O     O_R   0.299369 0.528994 0.066731 -0.249971
O230  O     O_R   0.330465 0.574298 0.049497 -0.218743
N92   N     N_R   0.047479 0.541892 0.676577 0.159800
O231  O     O_R   0.080350 0.539871 0.671347 -0.218989
O232  O     O_R   0.035878 0.563627 0.699058 -0.249954
N93   N     N_R   0.676419 0.457114 0.046907 0.169967
O233  O     O_R   0.700399 0.469664 0.066442 -0.250729
O234  O     O_R   0.669055 0.424644 0.048847 -0.217198
N94   N     N_R   0.952470 0.457857 0.676412 0.159750
O235  O     O_R   0.919616 0.459762 0.671050 -0.219114
O236  O     O_R   0.964045 0.436125 0.698864 -0.249864
N95   N     N_R   0.323386 0.456774 0.953351 0.169121
O237  O     O_R   0.299344 0.469273 0.933940 -0.250766
O238  O     O_R   0.330742 0.424333 0.951268 -0.219260
N96   N     N_R   0.045624 0.455672 0.323561 0.164971
O239  O     O_R   0.078117 0.455009 0.331072 -0.213626
O240  O     O_R   0.033943 0.435241 0.299892 -0.249232

loop_
_geom_bond_atom_site_label_1
_geom_bond_atom_site_label_2
_geom_bond_distance
_ccdc_geom_bond_type
C79   N55   1.438069 S    
N27   O101  1.300593 A    
N69   O185  1.300593 A    
C54   N30   1.433068 S    
C2    C168  1.478042 S    
C192  H24   1.083056 S    
C33   C81   1.407353 A    
C193  H25   1.083162 S    
C8    C158  1.473664 S    
C36   N12   1.433226 S    
C138  C227  1.476180 S    
N41   O129  1.301136 A    
C87   C127  1.408726 A    
C59   C163  1.411937 A    
N89   O225  1.301263 A    
C40   N16   1.432596 S    
C200  H32   1.083161 S    
C97   C133  1.411504 A    
C201  H33   1.083141 S    
N19   O86   1.301133 A    
C202  H34   1.083183 S    
O21   C11   1.292765 A    
C46   N22   1.436748 S    
N17   O82   1.300636 A    
C118  N94   1.437813 S    
C181  H13   1.083150 S    
C88   C126  1.412225 A    
N74   O195  1.301078 A    
C113  C141  1.410119 A    
N37   O121  1.300672 A    
O5    Cu2   1.957786 S    
C116  C144  1.411900 A    
N92   O231  1.300562 A    
C39   C87   1.406021 A    
C183  C230  1.403716 A    
C5    C165  1.477003 S    
N38   O124  1.300755 A    
C81   N57   1.438307 S    
C26   C74   1.408436 A    
C29   C145  1.414548 A    
C41   C153  1.412392 A    
N78   O203  1.300616 A    
C62   C110  1.407851 A    
C215  H47   1.083198 S    
N36   O120  1.301075 A    
C192  C231  1.402981 A    
C83   C127  1.409007 A    
C177  C232  1.400365 A    
C78   C124  1.410520 A    
C91   N67   1.438293 S    
C66   C114  1.406677 A    
C100  C136  1.411503 A    
C23   C147  1.476363 S    
C179  C230  1.403472 A    
C30   N6    1.436715 S    
N89   O226  1.301187 A    
C62   C164  1.415271 A    
N91   O230  1.301185 A    
C66   C166  1.412499 A    
C41   N17   1.433187 S    
C28   C148  1.414699 A    
C207  H39   1.083138 S    
N90   O227  1.300504 A    
N70   O188  1.301178 A    
C123  C238  1.475260 S    
C83   N59   1.438002 S    
C183  H15   1.083119 S    
N52   O152  1.301178 A    
C176  C235  1.401953 A    
O9    Cu3   1.956682 S    
C171  C238  1.402292 A    
C76   N52   1.438136 S    
N39   O125  1.300674 A    
N11   O69   1.300914 A    
O22   Cu6   1.956357 S    
C187  C234  1.401520 A    
C172  C201  1.394924 A    
C191  C234  1.401017 A    
C69   N45   1.436638 S    
N57   O162  1.301216 A    
C199  H31   1.083029 S    
N84   O215  1.301257 A    
C116  N92   1.437677 S    
N81   O209  1.300587 A    
C63   C163  1.412149 A    
C186  H18   1.083055 S    
C175  H7    1.083189 S    
O14   Cu4   1.958369 S    
C185  C236  1.403035 A    
Cu3   Cu4   2.673136 S    
C106  C138  1.410853 A    
C17   C153  1.477493 S    
N76   O199  1.300545 A    
N40   O128  1.300932 A    
C36   C84   1.406107 A    
C126  C239  1.476214 S    
N3    O53   1.301132 A    
C64   C112  1.406566 A    
C209  C224  1.401437 A    
C67   N43   1.436727 S    
N35   O118  1.300873 A    
N2    O51   1.301131 A    
N86   O220  1.301196 A    
N72   O191  1.301207 A    
N47   O142  1.301036 A    
C103  N79   1.437974 S    
C26   N2    1.436671 S    
O46   Cu12  1.956357 S    
N82   O212  1.301234 A    
C64   C162  1.414670 A    
N88   O224  1.301339 A    
N49   O146  1.301186 A    
N20   O88   1.301090 A    
N48   O143  1.300556 A    
C56   C158  1.414063 A    
C178  C215  1.394258 A    
C59   C107  1.406940 A    
N30   O107  1.300709 A    
C60   C108  1.407617 A    
O41   C21   1.295850 A    
C62   N38   1.437100 S    
C179  H11   1.083112 S    
O43   C23   1.295587 A    
C52   C100  1.405783 A    
C50   N26   1.437073 S    
C215  C222  1.401611 A    
O42   Cu11  1.957113 S    
C181  C232  1.400857 A    
C54   C160  1.412444 A    
O22   C10   1.295964 A    
C137  C220  1.477872 S    
C117  N93   1.438184 S    
O36   C20   1.295823 A    
C86   N62   1.437978 S    
C46   C156  1.412387 A    
C193  C228  1.402674 A    
C89   C129  1.411850 A    
C171  H3    1.083167 S    
N66   O179  1.301205 A    
C44   C92   1.408370 A    
C92   C132  1.411919 A    
N34   O115  1.300643 A    
C172  H4    1.083179 S    
C111  N87   1.437807 S    
O29   Cu8   1.957786 S    
C82   N58   1.437514 S    
C173  C214  1.394710 A    
C169  H1    1.083188 S    
O44   C24   1.295775 A    
C55   C103  1.407154 A    
N33   O113  1.300689 A    
N28   O104  1.300706 A    
C196  H28   1.083200 S    
C190  H22   1.083167 S    
C182  H14   1.083155 S    
N16   O79   1.300589 A    
C53   C101  1.406777 A    
C208  H40   1.083134 S    
C45   N21   1.433184 S    
C209  H41   1.083193 S    
N62   O171  1.300613 A    
C176  C203  1.394948 A    
N58   O164  1.301260 A    
N40   O127  1.300707 A    
O12   Cu3   1.958365 S    
C68   N44   1.433350 S    
C197  C228  1.402659 A    
C211  H43   1.083179 S    
O5    C3    1.294676 A    
N85   O217  1.300562 A    
N37   O122  1.300726 A    
C199  C226  1.403273 A    
C56   N32   1.437129 S    
C47   C95   1.407405 A    
N13   O74   1.301419 A    
C45   C93   1.406136 A    
N1    O49   1.301143 A    
O45   C23   1.295164 A    
O43   Cu11  1.957182 S    
C210  C219  1.402835 A    
C177  C196  1.393582 A    
C52   N28   1.433413 S    
N87   O221  1.300576 A    
C203  H35   1.083150 S    
O44   Cu11  1.956353 S    
C49   C97   1.406828 A    
O34   C18   1.295231 A    
N8    O63   1.301129 A    
C39   N15   1.432942 S    
C39   C151  1.419069 A    
N73   O193  1.300541 A    
C99   C135  1.414027 A    
N27   O102  1.300094 A    
O8    Cu2   1.957408 S    
N80   O208  1.301196 A    
C170  H2    1.083172 S    
N22   O91   1.301115 A    
N31   O110  1.301042 A    
N68   O183  1.301272 A    
C104  C134  1.409661 A    
C77   C121  1.410477 A    
O42   C22   1.295771 A    
N6    O59   1.301134 A    
C7    C167  1.477162 S    
C188  C229  1.402452 A    
O47   C21   1.295367 A    
C186  C199  1.393602 A    
O2    C2    1.295145 A    
C19   C155  1.476109 S    
C89   N65   1.437863 S    
N83   O213  1.300529 A    
N94   O236  1.301287 A    
N14   O75   1.300708 A    
C77   N53   1.438132 S    
N23   O94   1.300884 A    
C216  C219  1.402738 A    
C112  C138  1.411250 A    
N36   O119  1.301131 A    
C38   C152  1.412612 A    
O8    C4    1.294979 A    
C104  N80   1.438431 S    
C127  C230  1.477015 S    
C60   C164  1.414733 A    
C195  H27   1.083052 S    
C9    C157  1.479208 S    
C51   C159  1.408688 A    
C74   C122  1.410782 A    
N46   O139  1.300685 A    
C30   C78   1.408194 A    
C143  C222  1.473546 S    
O18   C10   1.295266 A    
N61   O169  1.300810 A    
N24   O96   1.301086 A    
N95   O238  1.301182 A    
N53   O154  1.301180 A    
O46   C22   1.295978 A    
C181  C198  1.394491 A    
C101  C133  1.411538 A    
C34   C82   1.406120 A    
O40   Cu10  1.957970 S    
N42   O131  1.300631 A    
O32   C16   1.295046 A    
C206  C225  1.401526 A    
C3    C163  1.477602 S    
C188  C193  1.395043 A    
C174  C205  1.394890 A    
C73   N49   1.438178 S    
O19   C11   1.294258 A    
C32   N8    1.436652 S    
C80   C122  1.410649 A    
C85   C125  1.406231 A    
C180  C209  1.394307 A    
O16   C8    1.294980 A    
N65   O177  1.300592 A    
C72   C166  1.411911 A    
O10   Cu3   1.957974 S    
C47   N23   1.436725 S    
Cu11  Cu12  2.674237 S    
O35   C19   1.295237 A    
O36   Cu9   1.958365 S    
C68   C168  1.412445 A    
N50   O148  1.301178 A    
N45   O137  1.301133 A    
C52   C160  1.412235 A    
C107  N83   1.437453 S    
O23   Cu6   1.957186 S    
O6    C2    1.295467 A    
N4    O56   1.301006 A    
C135  C226  1.480077 S    
O4    Cu1   1.957327 S    
N93   O233  1.301257 A    
O2    Cu1   1.957404 S    
C80   N56   1.438127 S    
C72   C120  1.406909 A    
C192  C195  1.393353 A    
C30   C148  1.414835 A    
C4    C166  1.477920 S    
N26   O99   1.301153 A    
N3    O54   1.301132 A    
C195  C226  1.403620 A    
C119  C143  1.410353 A    
C34   C150  1.412410 A    
C110  N86   1.438227 S    
C20   C146  1.478246 S    
C117  C141  1.410080 A    
N96   O240  1.301340 A    
N55   O157  1.301273 A    
C139  C218  1.477848 S    
C109  C137  1.412006 A    
C85   N61   1.437753 S    
C31   N7    1.436824 S    
N15   O78   1.300941 A    
C94   C132  1.411951 A    
C1    C161  1.478709 S    
O16   Cu4   1.957970 S    
C65   N41   1.436756 S    
C216  H48   1.083142 S    
C212  C217  1.403069 A    
C182  C213  1.394367 A    
C15   C151  1.493091 S    
N82   O211  1.300508 A    
N29   O105  1.300689 A    
C31   C147  1.414114 A    
N59   O165  1.301150 A    
C73   C121  1.410461 A    
C174  H6    1.083180 S    
C21   C145  1.477121 S    
N71   O189  1.301250 A    
C35   C151  1.421585 A    
N56   O159  1.301268 A    
N21   O89   1.300689 A    
C70   N46   1.433244 S    
C29   N5    1.436712 S    
N17   O81   1.300688 A    
C90   N66   1.437371 S    
O37   C19   1.294853 A    
N74   O196  1.301189 A    
C171  C216  1.395107 A    
C205  H37   1.083143 S    
N63   O174  1.301281 A    
C131  C234  1.472007 S    
N44   O135  1.300671 A    
O3    Cu1   1.958542 S    
N92   O232  1.301279 A    
C49   C157  1.412805 A    
C70   C168  1.412557 A    
N35   O117  1.300631 A    
C81   C125  1.406501 A    
N78   O204  1.301302 A    
C69   C165  1.414726 A    
N47   O141  1.301126 A    
C107  C139  1.412151 A    
C98   N74   1.438423 S    
C212  H44   1.083151 S    
N93   O234  1.301178 A    
N32   O111  1.301150 A    
N49   O145  1.301263 A    
C197  H29   1.083157 S    
C48   C154  1.411731 A    
N54   O155  1.301264 A    
C119  N95   1.438131 S    
O29   C15   1.301793 A    
C35   C83   1.406769 A    
N12   O71   1.300692 A    
C36   C152  1.412521 A    
O39   C17   1.295476 A    
Cu1   Cu2   2.672240 S    
O31   C13   1.298286 A    
N60   O168  1.301287 A    
N67   O181  1.301256 A    
C176  H8    1.083176 S    
C37   C149  1.420828 A    
C177  H9    1.083254 S    
C204  H36   1.083192 S    
N90   O228  1.301234 A    
C63   N39   1.433273 S    
O31   Cu8   1.958538 S    
Cu5   Cu6   2.674237 S    
C97   N73   1.437629 S    
N5    O58   1.301018 A    
N64   O175  1.301004 A    
C98   C134  1.408547 A    
C64   N40   1.433738 S    
O20   Cu5   1.956353 S    
O15   C5    1.294821 A    
C86   C128  1.411799 A    
C172  C233  1.401794 A    
C201  C220  1.403186 A    
C120  C142  1.412102 A    
C144  C217  1.477200 S    
N9    O66   1.300976 A    
N57   O161  1.301382 A    
N84   O216  1.301179 A    
C132  C229  1.476333 S    
C54   C102  1.405581 A    
C58   C162  1.413653 A    
O32   Cu8   1.957408 S    
C210  H42   1.083180 S    
C114  C142  1.411684 A    
C22   C152  1.477848 S    
O23   C9    1.296308 A    
O28   Cu7   1.957327 S    
C51   C99   1.405175 A    
N76   O200  1.301272 A    
C70   C118  1.406383 A    
C74   N50   1.438087 S    
C42   C154  1.412190 A    
N7    O61   1.301137 A    
C48   N24   1.433777 S    
C57   C105  1.406645 A    
N77   O202  1.301275 A    
N2    O52   1.301030 A    
O21   Cu6   1.957577 S    
C213  C224  1.401452 A    
N72   O192  1.301269 A    
C75   C123  1.411049 A    
O20   C12   1.298179 A    
C190  C197  1.395066 A    
C115  N91   1.438227 S    
C50   C98   1.406530 A    
C43   C91   1.407599 A    
N81   O210  1.301286 A    
O15   Cu4   1.956763 S    
C37   N13   1.435458 S    
N75   O197  1.300561 A    
C128  C237  1.476582 S    
O38   Cu10  1.958369 S    
C67   C167  1.414900 A    
N69   O186  1.301288 A    
N51   O150  1.301179 A    
C14   C156  1.473925 S    
C65   C165  1.415067 A    
C110  C140  1.410195 A    
N30   O108  1.300616 A    
O6    Cu2   1.957323 S    
O7    Cu2   1.958538 S    
C59   N35   1.433532 S    
C196  C221  1.402612 A    
N41   O130  1.300821 A    
C67   C115  1.407613 A    
C122  C235  1.475276 S    
C68   C116  1.406478 A    
C25   C145  1.414746 A    
C180  H12   1.083156 S    
C179  C200  1.394371 A    
C142  C219  1.476734 S    
C28   C76   1.408272 A    
C71   N47   1.436626 S    
N79   O206  1.301327 A    
C10   C164  1.477064 S    
N18   O83   1.300562 A    
C93   C129  1.411868 A    
C99   N75   1.437309 S    
C69   C117  1.407669 A    
C191  H23   1.083217 S    
C186  C231  1.403388 A    
C184  C239  1.402836 A    
N66   O180  1.301266 A    
C53   N29   1.433149 S    
N31   O109  1.300552 A    
C27   C75   1.408127 A    
C18   C148  1.477834 S    
C170  C235  1.402067 A    
C60   N36   1.436651 S    
C48   C96   1.406443 A    
C103  C135  1.414702 A    
C76   C124  1.410527 A    
O17   Cu5   1.957581 S    
C124  C233  1.474526 S    
C43   N19   1.436767 S    
N7    O62   1.300923 A    
C71   C167  1.414674 A    
C13   C149  1.493987 S    
O47   Cu12  1.957186 S    
N16   O80   1.300818 A    
C25   N1    1.436811 S    
C178  C239  1.402871 A    
C44   C156  1.412395 A    
C88   N64   1.438948 S    
C42   C90   1.407163 A    
C31   C79   1.408289 A    
O28   C16   1.295552 A    
O24   Cu6   1.957109 S    
N83   O214  1.301265 A    
O33   Cu9   1.956682 S    
C29   C77   1.408029 A    
O30   C14   1.294080 A    
C37   C85   1.407368 A    
O37   Cu10  1.956686 S    
O9    C5    1.295734 A    
O48   C24   1.295677 A    
C95   N71   1.438259 S    
C32   C80   1.408275 A    
C43   C155  1.414476 A    
O11   C7    1.294875 A    
N70   O187  1.301274 A    
N13   O73   1.301168 A    
C75   N51   1.437971 S    
N52   O151  1.301262 A    
C108  N84   1.438164 S    
O3    C3    1.295640 A    
C108  C140  1.410076 A    
N67   O182  1.301186 A    
C130  C231  1.479541 S    
C34   N10   1.433444 S    
C12   C162  1.480079 S    
C49   N25   1.433357 S    
N8    O64   1.300933 A    
N95   O237  1.301264 A    
N87   O222  1.301285 A    
C140  C225  1.473060 S    
C129  C236  1.476593 S    
C194  C223  1.399756 A    
O27   Cu7   1.958542 S    
O26   Cu7   1.957404 S    
O1    Cu1   1.957782 S    
C121  C240  1.473983 S    
N22   O92   1.301093 A    
C125  C232  1.469846 S    
C115  C143  1.410319 A    
N68   O184  1.301178 A    
N59   O166  1.301307 A    
C33   N9    1.434499 S    
O18   Cu5   1.957113 S    
C40   C150  1.411718 A    
N86   O219  1.301264 A    
N6    O60   1.300910 A    
N25   O97   1.300669 A    
C141  C224  1.472781 S    
C32   C146  1.414846 A    
C94   N70   1.437889 S    
C72   N48   1.432523 S    
N38   O123  1.301157 A    
N14   O76   1.300547 A    
N88   O223  1.301067 A    
O40   C20   1.295318 A    
C102  C136  1.411350 A    
C61   C161  1.412553 A    
N20   O87   1.301117 A    
O11   Cu3   1.956766 S    
C120  N96   1.438998 S    
O34   Cu9   1.957974 S    
C63   C111  1.406656 A    
C25   C73   1.407991 A    
O13   C7    1.295746 A    
C96   C130  1.412891 A    
C189  H21   1.083155 S    
N55   O158  1.301185 A    
C118  C144  1.411869 A    
C184  C211  1.394648 A    
C57   C161  1.412643 A    
N19   O85   1.300945 A    
C113  N89   1.438299 S    
C205  C220  1.403198 A    
C213  H45   1.083192 S    
C65   C113  1.407627 A    
C26   C146  1.414662 A    
C203  C218  1.403118 A    
N46   O140  1.300615 A    
Cu9   Cu10  2.673136 S    
O35   Cu9   1.956766 S    
C207  C218  1.403072 A    
O33   C17   1.295413 A    
N15   O77   1.300817 A    
N71   O190  1.301182 A    
N94   O235  1.300582 A    
C175  C210  1.394635 A    
C57   N33   1.433189 S    
N53   O153  1.301263 A    
C183  C194  1.392960 A    
C66   N42   1.433685 S    
O4    C4    1.295671 A    
C134  C223  1.468149 S    
C16   C154  1.478771 S    
C206  H38   1.083196 S    
N42   O132  1.300668 A    
C105  C137  1.411995 A    
C169  C212  1.394633 A    
N11   O70   1.301241 A    
C90   C130  1.413148 A    
C61   C109  1.406690 A    
C35   N11   1.434591 S    
N51   O149  1.301267 A    
O41   Cu11  1.957581 S    
C208  C227  1.402894 A    
C187  H19   1.083180 S    
C188  H20   1.083168 S    
O19   Cu5   1.957182 S    
C102  N78   1.438102 S    
N33   O114  1.300600 A    
N28   O103  1.300668 A    
C200  C223  1.400386 A    
C111  C139  1.412107 A    
C93   N69   1.437842 S    
C198  H30   1.083146 S    
N45   O138  1.301041 A    
C114  N90   1.437188 S    
C184  H16   1.083149 S    
C24   C150  1.477105 S    
O38   C18   1.295709 A    
C185  H17   1.083154 S    
N58   O163  1.300548 A    
O1    C1    1.295584 A    
C28   N4    1.436685 S    
N63   O173  1.300590 A    
N21   O90   1.300625 A    
C46   C94   1.408402 A    
C27   N3    1.436774 S    
C178  H10   1.083180 S    
O30   Cu8   1.957323 S    
C214  C217  1.403057 A    
N26   O100  1.300683 A    
C61   N37   1.433344 S    
N25   O98   1.300798 A    
C55   C159  1.410248 A    
C105  N81   1.437818 S    
C50   C158  1.414986 A    
C95   C131  1.409752 A    
C53   C157  1.412832 A    
C51   N27   1.433757 S    
C170  C207  1.395121 A    
N73   O194  1.301263 A    
C82   C126  1.411708 A    
N75   O198  1.301262 A    
C45   C153  1.412383 A    
N80   O207  1.301081 A    
C189  C236  1.402980 A    
O7    C1    1.295367 A    
N18   O84   1.301096 A    
N43   O133  1.300873 A    
C71   C119  1.407900 A    
O25   C13   1.301271 A    
C38   C86   1.406040 A    
C58   C106  1.406164 A    
O48   Cu12  1.957109 S    
N10   O68   1.300532 A    
C189  C206  1.394336 A    
N56   O160  1.301180 A    
C87   N63   1.437607 S    
N23   O93   1.301133 A    
O13   Cu4   1.956686 S    
O24   C12   1.294875 A    
C173  C240  1.401735 A    
C91   C131  1.410220 A    
C190  C229  1.402475 A    
C100  N76   1.437585 S    
C133  C228  1.476875 S    
C38   N14   1.433054 S    
N44   O136  1.300718 A    
C27   C147  1.413811 A    
O12   C8    1.293866 A    
C198  C221  1.403052 A    
O27   C15   1.297161 A    
C187  C208  1.394634 A    
O14   C6    1.295253 A    
N77   O201  1.300571 A    
N48   O144  1.300826 A    
C33   C149  1.421762 A    
C204  C225  1.401522 A    
O45   Cu12  1.957577 S    
N85   O218  1.301280 A    
C182  C237  1.403036 A    
N32   O112  1.300871 A    
C175  C238  1.402006 A    
C79   C123  1.411069 A    
N10   O67   1.300669 A    
N54   O156  1.301183 A    
N24   O95   1.300297 A    
C84   C128  1.411831 A    
C174  C233  1.401783 A    
N12   O72   1.300653 A    
O39   Cu10  1.956763 S    
C136  C221  1.474883 S    
O25   Cu7   1.957782 S    
C58   N34   1.433830 S    
C56   C104  1.407481 A    
C180  C237  1.403041 A    
N62   O172  1.301299 A    
N64   O176  1.301340 A    
C47   C155  1.414890 A    
C194  H26   1.083235 S    
C109  N85   1.437656 S    
C6    C160  1.476429 S    
C214  H46   1.083148 S    
N29   O106  1.300687 A    
N5    O57   1.301136 A    
C78   N54   1.438179 S    
N43   O134  1.301139 A    
O26   C14   1.294116 A    
C101  N77   1.437826 S    
N79   O205  1.301210 A    
N65   O178  1.301289 A    
C11   C159  1.468609 S    
N9    O65   1.301274 A    
C106  N82   1.437057 S    
C169  C240  1.401698 A    
C202  C227  1.403101 A    
C112  N88   1.438700 S    
C55   N31   1.435808 S    
C40   C88   1.406637 A    
C41   C89   1.406132 A    
N50   O147  1.301267 A    
N61   O170  1.301151 A    
N4    O55   1.301130 A    
O10   C6    1.295104 A    
N34   O116  1.300868 A    
C84   N60   1.437795 S    
C191  C202  1.393730 A    
Cu7   Cu8   2.672240 S    
C211  C222  1.401811 A    
N1    O50   1.300906 A    
C92   N68   1.437885 S    
N39   O126  1.300604 A    
N60   O167  1.300583 A    
C42   N18   1.434476 S    
N91   O229  1.301272 A    
C173  H5    1.083184 S    
N96   O239  1.300995 A    
O17   C9    1.296083 A    
C185  C204  1.394441 A    
C96   N72   1.437391 S    
C44   N20   1.436732 S    
