data_mof_unit_61699.cif
_audit_creation_date              2012-12-10T20:56:41-0500
_audit_creation_method            fapswitch 2.2
_symmetry_space_group_name_H-M    P1
_symmetry_Int_Tables_number       1
_space_group_crystal_system       triclinic
_cell_length_a                    26.369892
_cell_length_b                    33.025637
_cell_length_c                    21.158
_cell_angle_alpha                 89.999252
_cell_angle_beta                  128.696297
_cell_angle_gamma                 90.000427
_cell_volume                      14381.0578897

loop_
_atom_site_label
_atom_site_type_symbol
_atom_type_description
_atom_site_fract_x
_atom_site_fract_y
_atom_site_fract_z
_atom_type_partial_charge
C1    C     C_R   0.500000 0.145581 0.500000 0.802111
C2    C     C_R   0.500000 0.854419 0.500000 0.802399
C3    C     C_R   1.000000 0.645581 0.500000 0.802110
C4    C     C_R   1.000000 0.354419 0.500000 0.802400
C5    C     C_1   0.499999 0.481270 0.500000 -0.012276
C6    C     C_1   0.500000 0.518728 0.500000 -0.012218
C7    C     C_1   0.000001 0.981270 0.499999 -0.012289
C8    C     C_1   0.000001 0.018728 0.499999 -0.012209
C9    C     C_R   0.343932 0.382863 0.491438 -0.124806
C10   C     C_R   0.658153 0.616344 0.510469 -0.126059
C11   C     C_R   0.656313 0.382862 0.509016 -0.124698
C12   C     C_R   0.341771 0.616352 0.489358 -0.126013
C13   C     C_R   0.843977 0.882852 0.491489 -0.124789
C14   C     C_R   0.158212 0.116333 0.510556 -0.126050
C15   C     C_R   0.156011 0.882839 0.508530 -0.124781
C16   C     C_R   0.841498 0.116320 0.488989 -0.126008
C17   C     C_R   0.328073 0.347056 0.510505 -0.186983
C18   C     C_R   0.673211 0.652072 0.490165 -0.180356
C19   C     C_R   0.672103 0.347072 0.489819 -0.186891
C20   C     C_R   0.326731 0.652068 0.509715 -0.180308
C21   C     C_R   0.828115 0.847042 0.510544 -0.186941
C22   C     C_R   0.173247 0.152061 0.490225 -0.180321
C23   C     C_R   0.171892 0.847037 0.489478 -0.186963
C24   C     C_R   0.826521 0.152029 0.509447 -0.180376
C25   C     C_R   0.275404 0.323275 0.449222 0.113213
C26   C     C_R   0.724639 0.676774 0.550753 0.096814
C27   C     C_R   0.724724 0.323233 0.551015 0.113244
C28   C     C_R   0.275316 0.676790 0.449164 0.096810
C29   C     C_R   0.775419 0.823279 0.449257 0.113232
C30   C     C_R   0.224661 0.176778 0.550793 0.096766
C31   C     C_R   0.224591 0.823276 0.550768 0.113270
C32   C     C_R   0.775209 0.176825 0.448963 0.096834
C33   C     C_R   0.237928 0.336011 0.367351 0.220821
C34   C     C_R   0.761624 0.665123 0.633131 0.228967
C35   C     C_R   0.762220 0.335893 0.632930 0.220796
C36   C     C_R   0.238320 0.665170 0.366768 0.228949
C37   C     C_R   0.737924 0.836035 0.367397 0.220778
C38   C     C_R   0.261650 0.165143 0.633179 0.228971
C39   C     C_R   0.262080 0.836029 0.632630 0.220755
C40   C     C_R   0.738260 0.165294 0.366533 0.229067
C41   C     C_R   0.254498 0.372345 0.349473 -0.167801
C42   C     C_R   0.745815 0.628922 0.652306 -0.149952
C43   C     C_R   0.745720 0.372211 0.650941 -0.167832
C44   C     C_R   0.254114 0.628981 0.347540 -0.149924
C45   C     C_R   0.754495 0.872372 0.349532 -0.167832
C46   C     C_R   0.245868 0.128939 0.652383 -0.149896
C47   C     C_R   0.245488 0.872359 0.650492 -0.167856
C48   C     C_R   0.753982 0.129110 0.347198 -0.149921
C49   C     C_R   0.307218 0.395483 0.411094 -0.129527
C50   C     C_R   0.694401 0.604781 0.591376 -0.137909
C51   C     C_R   0.693048 0.395408 0.589406 -0.129547
C52   C     C_R   0.305518 0.604822 0.408434 -0.137911
C53   C     C_R   0.807240 0.895493 0.411156 -0.129529
C54   C     C_R   0.194470 0.104783 0.591471 -0.137962
C55   C     C_R   0.192736 0.895475 0.588865 -0.129478
C56   C     C_R   0.805280 0.104873 0.408027 -0.137950
C57   C     C_R   0.208789 0.283528 0.472340 -0.259840
C58   C     C_R   0.790836 0.716355 0.526915 -0.236602
C59   C     C_R   0.791261 0.283509 0.527756 -0.259866
C60   C     C_R   0.209149 0.716362 0.473058 -0.236630
C61   C     C_R   0.708798 0.783532 0.472361 -0.259803
C62   C     C_R   0.290845 0.216359 0.526934 -0.236627
C63   C     C_R   0.291215 0.783528 0.527668 -0.259689
C64   C     C_R   0.709098 0.216382 0.472957 -0.236623
C65   C     C_R   0.196253 0.248955 0.498920 -0.075092
C66   C     C_R   0.803488 0.750964 0.500574 -0.084243
C67   C     C_R   0.803743 0.248956 0.501072 -0.075152
C68   C     C_R   0.196510 0.750967 0.499423 -0.084332
C69   C     C_R   0.696255 0.748956 0.498923 -0.075104
C70   C     C_R   0.303487 0.250965 0.500574 -0.084206
C71   C     C_R   0.303745 0.748957 0.501078 -0.075120
C72   C     C_R   0.696511 0.250967 0.499425 -0.084225
C73   C     C_R   0.237553 0.214897 0.526106 -0.006885
C74   C     C_R   0.761883 0.784941 0.472738 0.020115
C75   C     C_R   0.762388 0.214921 0.473783 -0.006888
C76   C     C_R   0.238127 0.784940 0.527283 0.020141
C77   C     C_R   0.737546 0.714895 0.526092 -0.006851
C78   C     C_R   0.261875 0.284939 0.472719 0.020105
C79   C     C_R   0.262437 0.714903 0.473878 -0.006879
C80   C     C_R   0.738180 0.284918 0.527383 0.020111
C81   C     C_R   0.500000 0.354472 0.500000 0.805839
C82   C     C_R   0.500000 0.645527 0.500000 0.806161
C83   C     C_R   1.000000 0.854472 0.500000 0.805853
C84   C     C_R   0.000000 0.145527 0.500000 0.806157
C85   C     C_1   0.500000 0.100506 0.500000 -0.171248
C86   C     C_1   0.500000 0.899495 0.499999 -0.171720
C87   C     C_1   1.000000 0.600506 0.500000 -0.171250
C88   C     C_1   0.000000 0.399495 0.499999 -0.171719
C89   C     C_1   0.500000 0.063040 0.500000 -0.010160
C90   C     C_1   0.500000 0.936961 0.500000 -0.010470
C91   C     C_1   1.000000 0.563040 0.500000 -0.010161
C92   C     C_1   0.000000 0.436961 0.499999 -0.010469
C93   C     C_1   0.500000 0.018733 0.500000 0.001983
C94   C     C_1   0.500000 0.981268 0.500000 0.001857
C95   C     C_1   1.000000 0.518733 0.500000 0.001983
C96   C     C_1   1.000000 0.481268 0.500000 0.001857
C97   C     C_R   0.640871 0.250461 0.499430 0.818106
C98   C     C_R   0.359143 0.749544 0.500601 0.823182
C99   C     C_R   0.359129 0.250460 0.500569 0.818131
C100  C     C_R   0.640857 0.749544 0.499399 0.823198
C101  C     C_R   0.140871 0.750460 0.499430 0.818163
C102  C     C_R   0.859143 0.249543 0.500601 0.823191
C103  C     C_R   0.859128 0.750459 0.500568 0.818121
C104  C     C_R   0.140856 0.249543 0.499398 0.823197
C105  C     C_R   0.395517 0.250038 0.291115 0.800992
C106  C     C_R   0.604469 0.749954 0.708888 0.801324
C107  C     C_R   0.604482 0.250038 0.708885 0.800987
C108  C     C_R   0.395531 0.749954 0.291112 0.801326
C109  C     C_R   0.895517 0.750038 0.291115 0.800990
C110  C     C_R   0.104469 0.249954 0.708888 0.801327
C111  C     C_R   0.104482 0.750038 0.708885 0.800990
C112  C     C_R   0.895531 0.249954 0.291112 0.801320
C113  C     C_1   0.649621 0.250065 0.799015 -0.176066
C114  C     C_1   0.350422 0.749918 0.200977 -0.175130
C115  C     C_1   0.350378 0.250065 0.200985 -0.176049
C116  C     C_1   0.649578 0.749917 0.799023 -0.175124
C117  C     C_1   0.149621 0.750065 0.799015 -0.176044
C118  C     C_1   0.850422 0.249918 0.200977 -0.175151
C119  C     C_1   0.850378 0.750066 0.200985 -0.176044
C120  C     C_1   0.149579 0.249917 0.799023 -0.175129
C121  C     C_1   0.687084 0.250051 0.873936 -0.012664
C122  C     C_1   0.312982 0.749929 0.126054 -0.013239
C123  C     C_1   0.312915 0.250051 0.126064 -0.012660
C124  C     C_1   0.687018 0.749928 0.873946 -0.013237
C125  C     C_1   0.187084 0.750051 0.873936 -0.012658
C126  C     C_1   0.812982 0.249929 0.126054 -0.013249
C127  C     C_1   0.812916 0.750051 0.126064 -0.012663
C128  C     C_1   0.187018 0.249928 0.873946 -0.013238
C129  C     C_1   0.731338 0.250009 0.962534 -0.000203
C130  C     C_1   0.268743 0.749969 0.037455 -0.000460
C131  C     C_1   0.268662 0.250009 0.037466 -0.000199
C132  C     C_1   0.731257 0.749969 0.962545 -0.000460
C133  C     C_1   0.231337 0.750009 0.962534 -0.000198
C134  C     C_1   0.768743 0.249969 0.037455 -0.000466
C135  C     C_1   0.768662 0.750009 0.037466 -0.000199
C136  C     C_1   0.231257 0.249969 0.962545 -0.000460
C137  C     C_1   0.500000 0.399524 0.500000 -0.182215
C138  C     C_1   0.500000 0.600474 0.500000 -0.181884
C139  C     C_1   0.000000 0.899524 0.500000 -0.182213
C140  C     C_1   0.000000 0.100474 0.499999 -0.181864
C141  C     C_1   0.500000 0.436977 0.500001 -0.033595
C142  C     C_1   0.500000 0.563021 0.500000 -0.033214
C143  C     C_1   0.000000 0.936977 0.499999 -0.033622
C144  C     C_1   0.000000 0.063021 0.499999 -0.033181
H1    H     H_    0.319749 0.423215 0.396465 0.136325
H2    H     H_    0.682477 0.577125 0.606969 0.136616
H3    H     H_    0.680570 0.423128 0.604137 0.136299
H4    H     H_    0.317429 0.577174 0.392800 0.136603
H5    H     H_    0.819772 0.923229 0.396536 0.136328
H6    H     H_    0.182564 0.077126 0.607084 0.136615
H7    H     H_    0.180187 0.923204 0.603480 0.136324
H8    H     H_    0.817141 0.077230 0.392315 0.136584
H9    H     H_    0.384884 0.400805 0.539033 0.131779
H10   H     H_    0.618178 0.597646 0.463399 0.132552
H11   H     H_    0.615397 0.400850 0.461489 0.131782
H12   H     H_    0.381737 0.597639 0.536400 0.132546
H13   H     H_    0.884950 0.900781 0.539086 0.131772
H14   H     H_    0.118245 0.097625 0.463499 0.132556
H15   H     H_    0.115035 0.900765 0.460930 0.131760
H16   H     H_    0.881386 0.097549 0.535978 0.132585
H17   H     H_    0.357227 0.337592 0.573217 0.122513
H18   H     H_    0.644439 0.660728 0.427047 0.124421
H19   H     H_    0.642935 0.337664 0.427075 0.122490
H20   H     H_    0.355509 0.660701 0.572844 0.124410
H21   H     H_    0.857285 0.837561 0.573247 0.122489
H22   H     H_    0.144469 0.160706 0.427102 0.124421
H23   H     H_    0.142729 0.837561 0.426773 0.122484
H24   H     H_    0.855266 0.160600 0.572600 0.124472
H25   H     H_    0.226978 0.382621 0.287455 0.128146
H26   H     H_    0.773034 0.619588 0.714837 0.132790
H27   H     H_    0.773257 0.382430 0.712996 0.128156
H28   H     H_    0.226890 0.619671 0.284996 0.132791
H29   H     H_    0.726958 0.882664 0.287522 0.128144
H30   H     H_    0.273090 0.119618 0.714922 0.132800
H31   H     H_    0.273016 0.882648 0.712503 0.128122
H32   H     H_    0.726790 0.119865 0.284627 0.132788
H33   H     H_    0.177899 0.309974 0.452814 0.157222
H34   H     H_    0.821798 0.689948 0.546606 0.163874
H35   H     H_    0.822194 0.309940 0.547368 0.157266
H36   H     H_    0.178175 0.689960 0.453342 0.163907
H37   H     H_    0.677916 0.809982 0.452848 0.157198
H38   H     H_    0.321818 0.189956 0.546648 0.163914
H39   H     H_    0.322108 0.809974 0.547198 0.157183
H40   H     H_    0.678081 0.189995 0.453154 0.163933
O1    O     O_3   0.500000 0.250010 0.500000 -0.435593
O2    O     O_3   0.500000 0.749990 0.500000 -0.435243
O3    O     O_3   0.000000 0.750010 0.500000 -0.435597
O4    O     O_3   1.000000 0.249990 0.500000 -0.435237
O5    O     O_R   0.491650 0.166000 0.544070 -0.626217
O6    O     O_R   0.508350 0.834000 0.455930 -0.626115
O7    O     O_R   0.508350 0.166000 0.455930 -0.626206
O8    O     O_R   0.491650 0.834000 0.544070 -0.626114
O9    O     O_R   0.991650 0.666000 0.544070 -0.626216
O10   O     O_R   0.008350 0.334000 0.455930 -0.626116
O11   O     O_R   0.008350 0.666000 0.455930 -0.626212
O12   O     O_R   0.991650 0.334000 0.544070 -0.626110
O13   O     O_R   0.552380 0.334020 0.544040 -0.618839
O14   O     O_R   0.447620 0.665980 0.455960 -0.620540
O15   O     O_R   0.447620 0.334020 0.455960 -0.618817
O16   O     O_R   0.552380 0.665980 0.544040 -0.620534
O17   O     O_R   0.052380 0.834020 0.544040 -0.618826
O18   O     O_R   0.947620 0.165980 0.455960 -0.620548
O19   O     O_R   0.947620 0.834020 0.455960 -0.618824
O20   O     O_R   0.052380 0.165980 0.544040 -0.620533
O21   O     O_R   0.593780 0.227990 0.455960 -0.643148
O22   O     O_R   0.406220 0.772010 0.544040 -0.643372
O23   O     O_R   0.406220 0.227990 0.544040 -0.643132
O24   O     O_R   0.593780 0.772010 0.455960 -0.643370
O25   O     O_R   0.093780 0.727990 0.455960 -0.643135
O26   O     O_R   0.906220 0.272010 0.544040 -0.643370
O27   O     O_R   0.906220 0.727990 0.544040 -0.643132
O28   O     O_R   0.093780 0.272010 0.455960 -0.643370
O29   O     O_R   0.362170 0.272040 0.455960 -0.628129
O30   O     O_R   0.637830 0.727960 0.544040 -0.635303
O31   O     O_R   0.637830 0.272040 0.544040 -0.628113
O32   O     O_R   0.362170 0.727960 0.455960 -0.635294
O33   O     O_R   0.862170 0.772040 0.455960 -0.628127
O34   O     O_R   0.137830 0.227960 0.544040 -0.635308
O35   O     O_R   0.137830 0.772040 0.544040 -0.628118
O36   O     O_R   0.862170 0.227960 0.455960 -0.635328
O37   O     O_R   0.446360 0.228000 0.332000 -0.623846
O38   O     O_R   0.553640 0.772000 0.668000 -0.625059
O39   O     O_R   0.553640 0.228000 0.668000 -0.623844
O40   O     O_R   0.446360 0.772000 0.332000 -0.625061
O41   O     O_R   0.946360 0.728000 0.332000 -0.623848
O42   O     O_R   0.053640 0.272000 0.668000 -0.625060
O43   O     O_R   0.053640 0.728000 0.668000 -0.623848
O44   O     O_R   0.946360 0.272000 0.332000 -0.625055
O45   O     O_R   0.385640 0.272040 0.331990 -0.630641
O46   O     O_R   0.614360 0.727960 0.668010 -0.628611
O47   O     O_R   0.614360 0.272040 0.668010 -0.630620
O48   O     O_R   0.385640 0.727960 0.331990 -0.628605
O49   O     O_R   0.885640 0.772040 0.331990 -0.630626
O50   O     O_R   0.114360 0.227960 0.668010 -0.628613
O51   O     O_R   0.114360 0.772040 0.668010 -0.630623
O52   O     O_R   0.885640 0.227960 0.331990 -0.628623
Zn1   Zn    Zn3+2 0.574840 0.281480 0.562930 0.983583
Zn2   Zn    Zn3+2 0.425160 0.718520 0.437070 0.982515
Zn3   Zn    Zn3+2 0.425160 0.281480 0.437070 0.983570
Zn4   Zn    Zn3+2 0.574840 0.718520 0.562930 0.982514
Zn5   Zn    Zn3+2 0.074840 0.781480 0.562930 0.983588
Zn6   Zn    Zn3+2 0.925160 0.218520 0.437070 0.982484
Zn7   Zn    Zn3+2 0.925160 0.781480 0.437070 0.983578
Zn8   Zn    Zn3+2 0.074840 0.218520 0.562930 0.982512
Zn9   Zn    Zn3+2 0.511910 0.218550 0.437070 0.977896
Zn10  Zn    Zn3+2 0.488090 0.781450 0.562930 0.977744
Zn11  Zn    Zn3+2 0.488090 0.218550 0.562930 0.977904
Zn12  Zn    Zn3+2 0.511910 0.781450 0.437070 0.977748
Zn13  Zn    Zn3+2 0.011910 0.718550 0.437070 0.977896
Zn14  Zn    Zn3+2 0.988090 0.281450 0.562930 0.977747
Zn15  Zn    Zn3+2 0.988090 0.718550 0.562930 0.977899
Zn16  Zn    Zn3+2 0.011910 0.281450 0.437070 0.977748
C145  C     C_3   0.181552 0.311376 0.298276 -0.459137
C146  C     C_3   0.205090 0.275412 0.277504 -0.799126
H41   H     H_    0.237924 0.285842 0.264708 0.267710
H42   H     H_    0.231126 0.253251 0.327902 0.256595
H43   H     H_    0.162718 0.259891 0.222856 0.237381
H44   H     H_    0.150292 0.300633 0.313212 0.213410
H45   H     H_    0.150125 0.330485 0.243163 0.201301
C147  C     C_3   0.816173 0.690956 0.701631 -0.442829
C148  C     C_3   0.882292 0.672116 0.738972 -0.861493
H46   H     H_    0.886493 0.641878 0.764845 0.255719
H47   H     H_    0.889213 0.668900 0.692562 0.264122
H48   H     H_    0.921338 0.691902 0.788309 0.255454
H49   H     H_    0.815219 0.722087 0.681191 0.218987
H50   H     H_    0.810226 0.694127 0.748982 0.208607
C149  C     C_3   0.818544 0.311190 0.701912 -0.459093
C150  C     C_3   0.794931 0.275208 0.722542 -0.799217
H51   H     H_    0.762115 0.285628 0.735373 0.267706
H52   H     H_    0.768854 0.253095 0.672060 0.256558
H53   H     H_    0.837271 0.259634 0.777131 0.237397
H54   H     H_    0.849787 0.300462 0.686942 0.213400
H55   H     H_    0.850002 0.330248 0.757096 0.201304
C151  C     C_3   0.183776 0.691023 0.298306 -0.442845
C152  C     C_3   0.117652 0.672178 0.260929 -0.861468
H56   H     H_    0.113437 0.641963 0.234972 0.255708
H57   H     H_    0.110737 0.668911 0.307337 0.264117
H58   H     H_    0.078609 0.691988 0.211649 0.255447
H59   H     H_    0.184731 0.722142 0.318792 0.218985
H60   H     H_    0.189727 0.694226 0.250964 0.208603
C153  C     C_3   0.681530 0.811412 0.298318 -0.459116
C154  C     C_3   0.705043 0.775440 0.277530 -0.799117
H61   H     H_    0.737858 0.785864 0.264699 0.267689
H62   H     H_    0.731091 0.753282 0.327934 0.256604
H63   H     H_    0.662658 0.759917 0.222902 0.237389
H64   H     H_    0.650266 0.800681 0.313255 0.213405
H65   H     H_    0.650115 0.830528 0.243214 0.201304
C155  C     C_3   0.316158 0.191004 0.701659 -0.442783
C156  C     C_3   0.382303 0.172168 0.739127 -0.861540
H66   H     H_    0.386513 0.141961 0.765109 0.255703
H67   H     H_    0.389274 0.168885 0.692770 0.264127
H68   H     H_    0.421312 0.191996 0.788399 0.255459
H69   H     H_    0.315218 0.222122 0.681178 0.218980
H70   H     H_    0.310142 0.194211 0.748944 0.208611
C157  C     C_3   0.318489 0.811413 0.701715 -0.459027
C158  C     C_3   0.294998 0.775386 0.722412 -0.799190
H71   H     H_    0.262143 0.785751 0.735217 0.267705
H72   H     H_    0.268998 0.753245 0.671976 0.256586
H73   H     H_    0.337387 0.759860 0.777030 0.237398
H74   H     H_    0.349810 0.800742 0.686828 0.213359
H75   H     H_    0.349846 0.830514 0.756853 0.201298
C159  C     C_3   0.683849 0.191240 0.298154 -0.442800
C160  C     C_3   0.617647 0.172465 0.260581 -0.861549
H76   H     H_    0.613383 0.142265 0.234544 0.255729
H77   H     H_    0.610629 0.169181 0.306897 0.264123
H78   H     H_    0.578706 0.192334 0.211337 0.255461
H79   H     H_    0.684872 0.222341 0.318764 0.218949
H80   H     H_    0.689909 0.194481 0.250913 0.208602

loop_
_geom_bond_atom_site_label_1
_geom_bond_atom_site_label_2
_ccdc_geom_bond_type
C60   C79   A    
C112  O44   A    
C107  O47   A    
O5    Zn11  S    
C34   C42   A    
C64   C72   A    
C10   H10   S    
C32   C75   S    
C100  O24   A    
C160  H77   S    
C4    O10   A    
C100  O30   A    
C154  H61   S    
C14   H14   S    
O43   Zn15  S    
C2    O8    A    
C82   O14   A    
C87   C91   T    
C5    C6    T    
C108  O40   A    
C63   C76   A    
C159  H80   S    
C62   C70   A    
C4    O12   A    
C151  C152  S    
O4    Zn16  S    
C107  C113  S    
C146  H42   S    
C42   H26   S    
O13   Zn1   S    
C145  H44   S    
O49   Zn7   S    
C46   H30   S    
C155  H70   S    
O1    Zn11  S    
C84   O20   A    
C57   C78   A    
C41   C49   A    
C63   H39   S    
C68   C101  S    
C86   C90   T    
C57   C65   A    
C20   C28   A    
C27   C35   A    
C21   C29   A    
C3    O11   A    
C151  H59   S    
C99   O23   A    
C23   C31   A    
O30   Zn4   S    
C24   C32   A    
C45   H29   S    
C149  H54   S    
C101  O35   A    
C160  H76   S    
C12   C20   A    
C13   C21   A    
C23   H23   S    
C158  H71   S    
C63   C71   A    
C131  C136  T    
O7    Zn9   S    
O10   Zn16  S    
C36   C44   A    
C37   C45   A    
C39   C47   A    
C153  H64   S    
C40   C48   A    
C149  H55   S    
C66   C103  S    
C2    O6    A    
O23   Zn11  S    
C59   C80   A    
C55   H7    S    
C61   C74   A    
O6    Zn12  S    
C61   C69   A    
C17   C25   A    
C82   C138  S    
C31   C76   S    
C10   C18   A    
O3    Zn15  S    
C22   H22   S    
C69   C100  S    
C126  C134  S    
C101  O25   A    
O12   Zn14  S    
C98   O22   A    
C35   C149  S    
O50   Zn8   S    
C109  O49   A    
C16   H16   S    
O38   Zn10  S    
C69   C77   A    
C71   C79   A    
C67   C75   A    
C38   C155  S    
C7    C8    T    
C54   H6    S    
C30   C38   A    
C3    O9    A    
C148  H46   S    
C108  C114  S    
C66   C74   A    
C92   C96   S    
O8    Zn10  S    
C124  C132  S    
O51   Zn5   S    
C58   C77   A    
C59   C67   A    
C139  C143  T    
C158  H73   S    
O1    Zn1   S    
C62   C73   A    
O31   Zn1   S    
O34   Zn8   S    
O45   Zn3   S    
C35   C43   A    
C11   H11   S    
C44   C52   A    
C45   C53   A    
C52   H4    S    
C53   H5    S    
C12   H12   S    
C13   H13   S    
C72   C97   S    
C25   C78   S    
C152  H58   S    
C9    C49   A    
C27   C80   S    
C110  O42   A    
C103  O27   A    
C43   H27   S    
C29   C74   S    
C146  H43   S    
O39   Zn11  S    
C15   C55   A    
O3    Zn13  S    
C16   C56   A    
C156  H66   S    
C34   C147  S    
C58   H34   S    
C19   H19   S    
C60   C68   A    
C17   H17   S    
C42   C50   A    
C39   C157  S    
O28   Zn16  S    
C104  O28   A    
C37   C153  S    
O2    Zn10  S    
C70   C99   S    
C108  O48   A    
C22   C30   A    
C105  C115  S    
C147  C148  S    
O15   Zn3   S    
C148  H48   S    
C149  C150  S    
C4    C88   S    
C68   C76   A    
C154  H62   S    
C111  C117  S    
C14   C22   A    
C72   C80   A    
C57   H33   S    
O1    Zn3   S    
C105  O37   A    
C64   C75   A    
C89   C93   S    
C38   C46   A    
C91   C95   S    
C64   H40   S    
C113  C121  T    
C154  H63   S    
C117  C125  T    
O26   Zn14  S    
C47   H31   S    
C25   C33   A    
C48   H32   S    
C119  C127  T    
O4    Zn6   S    
C152  H56   S    
C18   C26   A    
C83   C139  S    
C81   C137  S    
C11   C19   A    
C6    C142  S    
O35   Zn5   S    
O22   Zn10  S    
C127  C135  S    
C128  C136  S    
C81   O13   A    
C125  C133  S    
C20   H20   S    
C156  H68   S    
C21   H21   S    
C36   C151  S    
C28   C79   S    
O14   Zn2   S    
C12   C52   A    
O40   Zn12  S    
C111  O51   A    
C56   H8    S    
C83   O17   A    
C157  H75   S    
C50   H2    S    
C158  H72   S    
C47   C55   A    
O2    Zn12  S    
O20   Zn8   S    
C90   C94   S    
C160  H78   S    
C13   C53   A    
C115  C123  T    
C83   O19   A    
C138  C142  T    
C157  C158  S    
C85   C89   T    
C112  O52   A    
O36   Zn6   S    
C159  H79   S    
C106  C116  S    
C105  O45   A    
O16   Zn4   S    
C15   H15   S    
C146  H41   S    
C62   H38   S    
C145  H45   S    
C46   C54   A    
C49   H1    S    
C155  H69   S    
C40   C159  S    
C104  O34   A    
O2    Zn4   S    
C1    O7    A    
O3    Zn7   S    
O4    Zn8   S    
C130  C133  T    
C10   C50   A    
C109  C119  S    
O42   Zn14  S    
C137  C141  T    
C116  C124  T    
C123  C131  S    
C140  C144  T    
C121  C129  S    
C81   O15   A    
C120  C128  T    
C157  H74   S    
C60   H36   S    
C99   O29   A    
C61   H37   S    
C33   C41   A    
C59   H35   S    
C18   H18   S    
C43   C51   A    
C145  C146  S    
C41   H25   S    
C129  C134  T    
C106  O46   A    
C150  H51   S    
C28   C36   A    
C97   O31   A    
C29   C37   A    
C97   O21   A    
C147  H49   S    
C110  O50   A    
O25   Zn13  S    
O44   Zn16  S    
O18   Zn6   S    
C153  H65   S    
C93   C94   T    
C70   C78   A    
O46   Zn4   S    
C95   C96   T    
O3    Zn5   S    
C44   H28   S    
O17   Zn5   S    
C151  H60   S    
C24   H24   S    
O19   Zn7   S    
C65   C73   A    
O52   Zn6   S    
O2    Zn2   S    
C26   C34   A    
C88   C92   T    
O32   Zn2   S    
C19   C27   A    
C32   C40   A    
C16   C24   A    
O48   Zn2   S    
C58   C66   A    
C107  O39   A    
C1    C85   S    
C71   C98   S    
C26   C77   S    
C3    C87   S    
C110  C120  S    
C148  H47   S    
C30   C73   S    
C109  O41   A    
C102  O26   A    
C153  C154  S    
O33   Zn7   S    
C82   O16   A    
C5    C141  S    
C150  H53   S    
C51   H3    S    
C152  H57   S    
C8    C144  S    
O4    Zn14  S    
O24   Zn12  S    
C103  O33   A    
C9    C17   A    
C14   C54   A    
O1    Zn9   S    
C84   O18   A    
C48   C56   A    
C98   O32   A    
C159  C160  S    
O41   Zn13  S    
C7    C143  S    
C150  H52   S    
O29   Zn3   S    
C102  O36   A    
O47   Zn1   S    
C111  O43   A    
C155  C156  S    
C33   C145  S    
C112  C118  S    
C106  O38   A    
O37   Zn9   S    
C132  C135  T    
O11   Zn13  S    
C15   C23   A    
C156  H67   S    
C31   C39   A    
C2    C86   S    
O9    Zn15  S    
C11   C51   A    
C9    H9    S    
C114  C122  T    
C84   C140  S    
O21   Zn9   S    
C118  C126  T    
C65   C104  S    
O27   Zn15  S    
C147  H50   S    
C122  C130  S    
C67   C102  S    
C1    O5    A    
