data_mof_unit_53087.cif
_audit_creation_date              2012-12-10T20:38:23-0500
_audit_creation_method            fapswitch 2.2
_symmetry_space_group_name_H-M    P1
_symmetry_Int_Tables_number       1
_space_group_crystal_system       triclinic
_cell_length_a                    9.938911
_cell_length_b                    10.700176
_cell_length_c                    16.761395
_cell_angle_alpha                 91.125843
_cell_angle_beta                  81.462204
_cell_angle_gamma                 89.06766
_cell_volume                      1762.11633188

loop_
_atom_site_label
_atom_site_type_symbol
_atom_type_description
_atom_site_fract_x
_atom_site_fract_y
_atom_site_fract_z
_atom_type_partial_charge
C1    C     C_R   0.500034 0.739904 0.497675 0.881845
C2    C     C_R   0.541305 0.492296 0.259411 -0.126370
C3    C     C_R   0.390255 0.937876 0.469907 0.164171
C4    C     C_R   0.477356 0.497594 0.653008 0.844076
C5    C     C_R   0.504812 0.871244 0.485204 -0.103666
C6    C     C_R   0.628548 0.933122 0.484811 -0.218516
C7    C     C_R   0.629395 0.062008 0.485384 -0.243501
C8    C     C_R   0.507074 0.128440 0.484786 -0.110514
C9    C     C_R   0.391615 0.065704 0.469404 0.137649
C10   C     C_3   0.247763 0.078255 0.510208 -0.468586
C11   C     C_3   0.246627 0.936921 0.511403 -0.521054
C12   C     C_R   0.365150 0.540285 0.792250 -0.223569
C13   C     C_R   0.910721 0.542427 0.565886 0.163241
C14   C     C_R   0.948859 0.448427 0.436652 0.187646
C15   C     C_R   0.090911 0.445386 0.439290 -0.211322
C16   C     C_R   0.501564 0.260181 0.497591 0.863638
C17   C     C_R   0.052978 0.542370 0.566102 0.207483
C18   C     C_3   0.042712 0.672176 0.601787 -0.096005
C19   C     C_3   0.889950 0.670701 0.601481 -0.503717
C20   C     C_R   0.522593 0.501323 0.346757 0.908388
C21   C     C_R   0.456829 0.469344 0.737678 -0.011960
C22   C     C_R   0.524465 0.365172 0.763269 -0.208706
C23   C     C_R   0.452805 0.528421 0.135449 -0.253569
C24   C     C_R   0.503052 0.334081 0.844029 -0.162621
C25   C     C_R   0.414223 0.407712 0.899270 0.200568
C26   C     C_R   0.342350 0.508535 0.872928 -0.161574
C27   C     C_3   0.910593 0.400991 0.357585 -0.361505
C28   C     C_3   0.859446 0.267137 0.361461 -0.830212
C29   C     C_3   0.085219 0.685930 0.686167 -0.356251
C30   C     C_3   0.044071 0.577760 0.742994 -0.836207
C31   C     C_3   0.229810 0.621254 0.262473 0.097179
C32   C     C_3   0.151280 0.717035 0.219906 -0.354254
C33   C     C_3   0.999193 0.690471 0.232433 -0.973188
C34   C     C_R   0.451299 0.556989 0.217001 0.471868
C35   C     C_R   0.634895 0.404248 0.219491 -0.306586
C36   C     C_R   0.633952 0.374666 0.138625 -0.164750
C37   C     C_R   0.538717 0.432467 0.097580 0.135863
C38   C     C_2   0.413735 0.396620 0.985525 -0.252525
C39   C     C_2   0.532359 0.395170 0.014196 -0.203434
H1    H     H_    0.593918 0.308470 0.720800 0.143897
H2    H     H_    0.092915 0.739609 0.558616 0.143895
H3    H     H_    0.826120 0.672179 0.661770 0.211331
H4    H     H_    0.855641 0.738113 0.558788 0.182268
H5    H     H_    0.702755 0.352572 0.251695 0.175089
H6    H     H_    0.627796 0.376761 0.974540 0.151802
H7    H     H_    0.275786 0.567465 0.915584 0.123144
H8    H     H_    0.386235 0.580562 0.102105 0.139637
H9    H     H_    0.315971 0.622732 0.773186 0.137545
H10   H     H_    0.318952 0.416523 0.025489 0.149319
H11   H     H_    0.558915 0.255687 0.863894 0.130912
H12   H     H_    0.703214 0.302950 0.109120 0.140338
H13   H     H_    0.904757 0.212969 0.407062 0.244748
H14   H     H_    0.747518 0.266341 0.374471 0.275411
H15   H     H_    0.888562 0.219073 0.301888 0.222850
H16   H     H_    0.845224 0.467785 0.331822 0.227789
H17   H     H_    0.002103 0.399061 0.310379 0.155902
H18   H     H_    0.933163 0.561353 0.749696 0.251580
H19   H     H_    0.100078 0.490521 0.720199 0.267534
H20   H     H_    0.069538 0.600819 0.803773 0.235838
H21   H     H_    0.197318 0.695133 0.678037 0.202935
H22   H     H_    0.040365 0.774569 0.714902 0.200543
H23   H     H_    0.722336 0.883544 0.490433 0.165211
H24   H     H_    0.188605 0.625537 0.327762 0.180233
H25   H     H_    0.210877 0.525034 0.239940 0.103120
H26   H     H_    0.166945 0.812268 0.244191 0.235027
H27   H     H_    0.190109 0.714467 0.154235 0.213707
H28   H     H_    0.980763 0.596735 0.206956 0.261419
H29   H     H_    0.944810 0.761860 0.201362 0.273815
H30   H     H_    0.957651 0.694227 0.297769 0.263217
H31   H     H_    0.722817 0.108415 0.492769 0.175348
H32   H     H_    0.238541 0.122490 0.571443 0.209107
H33   H     H_    0.179560 0.118739 0.470087 0.204462
H34   H     H_    0.238304 0.900170 0.573500 0.195934
H35   H     H_    0.177043 0.896165 0.472123 0.203701
H36   H     H_    0.161184 0.403232 0.390270 0.160735
N1    N     N_R   0.857140 0.500860 0.500530 -0.119001
N2    N     N_R   0.142780 0.500820 0.500530 -0.138734
O1    O     O_R   0.385310 0.683210 0.499990 -0.614883
O2    O     O_R   0.614650 0.683240 0.500000 -0.625280
O3    O     O_R   0.371780 0.500000 0.615800 -0.609957
O4    O     O_R   0.601120 0.500040 0.615800 -0.608732
O5    O     O_R   0.385350 0.316760 0.500000 -0.612344
O6    O     O_R   0.614690 0.316790 0.500010 -0.619204
O7    O     O_R   0.398880 0.499960 0.384200 -0.611543
O8    O     O_R   0.628220 0.500000 0.384200 -0.630421
O9    O     O_3   0.368912 0.653413 0.254408 -0.647299
Zn1   Zn    Zn3+2 0.346870 0.499980 0.499990 0.940591
Zn2   Zn    Zn3+2 0.653130 0.500020 0.500010 0.938014

loop_
_geom_bond_atom_site_label_1
_geom_bond_atom_site_label_2
_ccdc_geom_bond_type
O1    Zn1   S    
C2    C35   A    
C15   H36   S    
C35   C36   A    
O7    Zn1   S    
C12   H9    S    
C7    H31   S    
C7    C8    A    
C38   H10   S    
C15   N2    A    
C1    C5    S    
C36   C37   A    
C4    O3    A    
O3    Zn1   S    
C38   C39   D    
C27   H16   S    
O5    Zn1   S    
C30   H18   S    
C18   C19   S    
C34   O9    S    
C4    O4    A    
C8    C9    A    
C29   H21   S    
C14   C27   S    
C9    C10   S    
N1    Zn2   S    
C19   H3    S    
C33   H30   S    
C39   H6    S    
C10   H32   S    
C2    C34   A    
O6    Zn2   S    
C8    C16   S    
C31   O9    S    
C21   C22   A    
C30   H20   S    
C1    O1    A    
C16   O5    A    
O2    Zn2   S    
C19   H4    S    
C24   H11   S    
C29   H22   S    
C23   H8    S    
C13   C19   S    
C2    C20   S    
C31   H24   S    
C24   C25   A    
C11   H34   S    
C18   H2    S    
C28   H15   S    
C27   H17   S    
C25   C26   A    
C23   C37   A    
C12   C21   A    
C16   O6    A    
C12   C26   A    
C14   N1    A    
C29   C30   S    
C3    C9    A    
C25   C38   S    
C31   C32   S    
C13   N1    A    
C23   C34   A    
C22   H1    S    
C20   O8    A    
C17   N2    A    
C17   C18   S    
C18   C29   S    
C35   H5    S    
C36   H12   S    
C20   O7    A    
C1    O2    A    
C22   C24   A    
C33   H28   S    
C32   H27   S    
O8    Zn2   S    
C31   H25   S    
C3    C5    A    
C11   H35   S    
C28   H14   S    
C6    C7    A    
C13   C17   A    
C32   C33   S    
C6    H23   S    
C37   C39   S    
C4    C21   S    
C28   H13   S    
C5    C6    A    
C30   H19   S    
O4    Zn2   S    
C3    C11   S    
C10   C11   S    
C26   H7    S    
N2    Zn1   S    
C27   C28   S    
C14   C15   A    
C33   H29   S    
C32   H26   S    
C10   H33   S    
