data_mof_unit_18802.cif
_audit_creation_date              2012-12-10T17:22:13-0500
_audit_creation_method            fapswitch 2.2
_symmetry_space_group_name_H-M    P1
_symmetry_Int_Tables_number       1
_space_group_crystal_system       triclinic
_cell_length_a                    15.857471
_cell_length_b                    10.858946
_cell_length_c                    9.612072
_cell_angle_alpha                 90.544454
_cell_angle_beta                  89.440629
_cell_angle_gamma                 95.011856
_cell_volume                      1648.68580519

loop_
_atom_site_label
_atom_site_type_symbol
_atom_type_description
_atom_site_fract_x
_atom_site_fract_y
_atom_site_fract_z
_atom_type_partial_charge
C1    C     C_R   0.505355 0.263396 0.499543 0.813485
C2    C     C_R   0.577141 0.071878 0.865232 0.525707
C3    C     C_R   0.534348 0.955300 0.881107 -0.122556
C4    C     C_R   0.340291 0.499598 0.500634 0.835545
C5    C     C_R   0.497326 0.891310 0.767903 -0.155729
C6    C     C_R   0.504167 0.941061 0.632276 0.070259
C7    C     C_R   0.530699 0.067406 0.621104 0.057546
C8    C     C_R   0.509963 0.129770 0.499361 -0.154220
C9    C     C_R   0.479317 0.062752 0.382876 -0.205777
C10   C     C_R   0.469038 0.934974 0.384465 0.364413
C11   C     C_R   0.485109 0.871415 0.507636 -0.187561
C12   C     C_3   0.944725 0.402444 0.600655 -0.534346
C13   C     C_R   0.619315 0.654366 0.152344 -0.156450
C14   C     C_R   0.688246 0.717661 0.091775 0.324694
C15   C     C_R   0.695596 0.718560 0.950811 -0.202319
C16   C     C_R   0.492715 0.736868 0.501653 0.890864
C17   C     C_R   0.632009 0.661356 0.866464 0.324311
C18   C     C_R   0.562068 0.578796 0.925921 0.016684
C19   C     C_R   0.559703 0.577118 0.076543 0.090745
C20   C     C_R   0.444148 0.425630 0.074459 -0.082348
C21   C     C_R   0.443959 0.425106 0.927285 0.436223
C22   C     C_R   0.659437 0.497586 0.499270 0.852072
C23   C     C_3   0.917003 0.501351 0.498742 0.095364
C24   C     C_3   0.042307 0.410845 0.609957 -0.339496
C25   C     C_3   0.048290 0.461285 0.352358 0.270507
C26   C     C_3   0.950186 0.464687 0.351452 0.126599
C27   C     C_1   0.748958 0.497209 0.498389 -0.087784
C28   C     C_3   0.082651 0.501020 0.498892 0.127606
C29   C     C_3   0.953680 0.846679 0.495427 0.124710
C30   C     C_3   0.876659 0.914062 0.539099 -0.228548
C31   C     C_3   0.901854 0.049360 0.574138 -0.952499
C32   C     C_3   0.642517 0.250527 0.978495 0.072917
C33   C     C_3   0.735190 0.275310 0.932415 -0.404733
C34   C     C_3   0.957798 0.632525 0.545094 0.764007
C35   C     C_3   0.762551 0.413399 0.930020 -0.793966
C36   C     C_3   0.128547 0.333199 0.213652 0.064393
C37   C     C_3   0.084324 0.319168 0.072771 -0.381864
C38   C     C_3   0.147779 0.301930 0.955385 -0.816072
C39   C     C_3   0.056405 0.632486 0.532459 -0.563021
C40   C     C_1   0.824512 0.498125 0.498631 0.088808
C41   C     C_1   0.174998 0.501385 0.501313 -0.023767
C42   C     C_1   0.250596 0.500714 0.501791 -0.145483
C43   C     C_R   0.575637 0.127689 0.732850 -0.236377
Cl1   Cl    Cl    0.427213 0.861170 0.232503 -0.633629
Cl2   Cl    Cl    0.764103 0.803183 0.193963 -0.537414
Cl3   Cl    Cl    0.654681 0.728208 0.702274 -0.629507
Cl4   Cl    Cl    0.370347 0.319819 0.844087 -0.632731
Cl5   Cl    Cl    0.917966 0.560918 0.214023 -0.555337
Cl6   Cl    Cl    0.927630 0.661089 0.724787 -0.659259
Cu1   Cu    Cu3+1 0.499990 0.499990 0.640660 1.020882
Cu2   Cu    Cu3+1 0.500010 0.500010 0.359340 0.981659
H1    H     H_    0.921078 0.308870 0.563274 0.192981
H2    H     H_    0.616770 0.669016 0.260665 0.242136
H3    H     H_    0.749922 0.773701 0.907510 0.246585
H4    H     H_    0.076150 0.530119 0.275241 0.124746
H5    H     H_    0.920626 0.370633 0.324889 0.154304
H6    H     H_    0.086900 0.667649 0.630563 0.210787
H7    H     H_    0.081157 0.696297 0.448715 0.175927
H8    H     H_    0.983654 0.892997 0.402548 0.173743
H9    H     H_    0.001766 0.855379 0.579507 0.143193
H10   H     H_    0.830187 0.909212 0.453211 0.276387
H11   H     H_    0.845396 0.868751 0.631466 0.271914
H12   H     H_    0.061883 0.444571 0.715461 0.205573
H13   H     H_    0.946932 0.056997 0.662179 0.270188
H14   H     H_    0.844583 0.095575 0.604554 0.258698
H15   H     H_    0.931798 0.097013 0.482043 0.268866
H16   H     H_    0.636856 0.286382 0.086560 0.180196
H17   H     H_    0.599013 0.302936 0.916918 0.132079
H18   H     H_    0.775966 0.229877 0.006211 0.253256
H19   H     H_    0.744757 0.235394 0.827207 0.211886
H20   H     H_    0.729815 0.457807 0.844948 0.264472
H21   H     H_    0.831829 0.427969 0.911477 0.287770
H22   H     H_    0.747818 0.457431 0.031130 0.277684
H23   H     H_    0.916818 0.412537 0.706026 0.234982
H24   H     H_    0.163179 0.250134 0.230988 0.181632
H25   H     H_    0.177402 0.413530 0.213994 0.138361
H26   H     H_    0.036957 0.237452 0.075392 0.242447
H27   H     H_    0.050593 0.402448 0.051781 0.248278
H28   H     H_    0.191696 0.386752 0.943909 0.280124
H29   H     H_    0.113550 0.283481 0.856273 0.244725
H30   H     H_    0.184789 0.222029 0.976730 0.280867
H31   H     H_    0.461607 0.109905 0.290089 0.198435
H32   H     H_    0.610782 0.215659 0.714099 0.133343
H33   H     H_    0.531524 0.912032 0.982204 0.202335
H34   H     H_    0.461613 0.804669 0.790650 0.189727
H35   H     H_    0.398611 0.364174 0.130423 0.159740
H36   H     H_    0.064602 0.317124 0.595740 0.210424
N1    N     N_R   0.500800 0.501210 0.147910 -0.198197
N2    N     N_R   0.500820 0.501290 0.852040 -0.215838
O1    O     O_R   0.499990 0.319640 0.618810 -0.542693
O2    O     O_3   0.619535 0.121815 0.982313 -0.599460
O3    O     O_3   0.068068 0.338373 0.322283 -0.620242
O4    O     O_R   0.500000 0.319660 0.381240 -0.598911
O5    O     O_R   0.379430 0.499990 0.618840 -0.528421
O6    O     O_R   0.379440 0.500020 0.381260 -0.576201
O7    O     O_R   0.500000 0.680340 0.618760 -0.555639
O8    O     O_R   0.500010 0.680360 0.381190 -0.547637
O9    O     O_R   0.620560 0.499980 0.618740 -0.551446
O10   O     O_R   0.620570 0.500010 0.381160 -0.605762
O11   O     O_3   0.926877 0.723058 0.456968 -0.545550

loop_
_geom_bond_atom_site_label_1
_geom_bond_atom_site_label_2
_ccdc_geom_bond_type
Cu2   O8    S    
C31   H15   S    
C1    O1    A    
C22   O9    A    
C12   H23   S    
C1    C8    S    
C43   H32   S    
C41   C42   T    
C7    C8    A    
C21   N2    A    
C25   C28   S    
C12   C23   S    
C37   C38   S    
C4    C42   S    
C36   C37   S    
C30   C31   S    
C16   O8    A    
C32   O2    S    
C38   H28   S    
C23   C40   S    
C39   H6    S    
C28   C41   S    
C15   C17   A    
C18   C19   A    
C23   C26   S    
C36   H25   S    
Cu1   O1    S    
C29   H8    S    
C8    C9    A    
C25   O3    S    
C20   H35   S    
C34   O11   S    
C7    C43   A    
C9    C10   A    
C27   C40   T    
C26   Cl5   S    
C9    H31   S    
C32   H17   S    
C5    H34   S    
C36   O3    S    
C35   H20   S    
C13   C14   A    
C12   H1    S    
Cu1   Cu2   S    
C14   Cl2   S    
C13   H2    S    
Cu2   O10   S    
C16   O7    A    
Cu1   O9    S    
C13   C19   A    
C10   Cl1   S    
C34   C39   S    
C15   H3    S    
C24   C28   S    
C17   Cl3   S    
C19   N1    A    
C6    C11   A    
Cu1   O5    S    
C28   C39   S    
C25   C26   S    
C39   H7    S    
C37   H26   S    
C29   C30   S    
C36   H24   S    
C4    O6    A    
C11   C16   S    
Cu1   N2    S    
C29   H9    S    
C2    C43   A    
C23   C34   S    
C17   C18   A    
C33   H19   S    
Cu2   O4    S    
C32   H16   S    
C4    O5    A    
C35   H21   S    
C24   H12   S    
C22   C27   S    
C30   H11   S    
C38   H30   S    
C31   H14   S    
C35   H22   S    
C34   Cl6   S    
C22   O10   A    
C29   O11   S    
C18   N2    A    
C31   H13   S    
C25   H4    S    
C3    C5    A    
C26   H5    S    
Cu2   N1    S    
C6    C7    A    
C33   H18   S    
C37   H27   S    
C12   C24   S    
C32   C33   S    
C2    C3    A    
Cu1   O7    S    
C5    C6    A    
C38   H29   S    
C20   N1    A    
C33   C35   S    
C2    O2    S    
C24   H36   S    
C10   C11   A    
C20   C21   A    
C1    O4    A    
C30   H10   S    
C3    H33   S    
C14   C15   A    
Cu2   O6    S    
C21   Cl4   S    
