data_mof_unit_43599.cif
_audit_creation_date              2012-12-11T16:25:28-0500
_audit_creation_method            fapswitch 2.2
_symmetry_space_group_name_H-M    P1
_symmetry_Int_Tables_number       1
_space_group_crystal_system       triclinic
_cell_length_a                    20.415985
_cell_length_b                    7.257184
_cell_length_c                    13.392305
_cell_angle_alpha                 90.000341
_cell_angle_beta                  103.214192
_cell_angle_gamma                 89.999931
_cell_volume                      1931.7001475

loop_
_atom_site_label
_atom_site_type_symbol
_atom_type_description
_atom_site_fract_x
_atom_site_fract_y
_atom_site_fract_z
_atom_type_partial_charge
O1    O     O_R   0.449520 0.506760 0.599710 -0.535869
O2    O     O_R   0.550480 0.006760 0.400290 -0.535868
O3    O     O_R   0.587930 0.180200 0.595790 -0.522120
O4    O     O_R   0.412070 0.680200 0.404210 -0.522121
C1    C     C_R   0.614525 0.343682 0.618087 0.694322
C2    C     C_R   0.385475 0.843681 0.381913 0.694315
O5    O     O_R   0.452350 0.177380 0.611700 -0.533753
O6    O     O_R   0.547650 0.677380 0.388300 -0.533755
O7    O     O_R   0.413930 0.001760 0.416320 -0.545433
O8    O     O_R   0.586070 0.501760 0.583680 -0.545435
C3    C     C_R   0.435660 0.345943 0.638071 0.718499
C4    C     C_R   0.564340 0.845942 0.361930 0.718492
O9    O     O_3   0.487550 0.337460 0.435880 -0.374228
O10   O     O_3   0.512450 0.837460 0.564120 -0.374229
V1    V     V_3+5 0.502310 0.064670 0.511900 1.491352
V2    V     V_3+5 0.497690 0.564670 0.488100 1.491350
C5    C     C_R   0.612726 0.888404 0.105011 -0.267523
C6    C     C_R   0.387274 0.388411 0.894990 -0.267524
H1    H     H_    0.693576 0.848135 0.976431 0.143793
H2    H     H_    0.306424 0.348140 0.023569 0.143794
H3    H     H_    0.589163 0.916404 0.025372 0.129759
H4    H     H_    0.410837 0.416415 0.974628 0.129762
C7    C     C_R   0.604138 0.854718 0.282129 -0.048350
C8    C     C_R   0.395862 0.354721 0.717872 -0.048353
C9    C     C_R   0.924946 0.905328 0.316917 0.407246
C10   C     C_R   0.075055 0.405339 0.683084 0.407265
C11   C     C_R   0.888958 0.884314 0.392980 -0.230145
C12   C     C_R   0.111044 0.384336 0.607022 -0.230162
C13   C     C_R   0.820758 0.845484 0.368544 -0.228474
C14   C     C_R   0.179244 0.345501 0.631457 -0.228477
C15   C     C_R   0.785509 0.829641 0.265424 0.091221
C16   C     C_R   0.214491 0.329646 0.734576 0.091221
C17   C     C_R   0.822997 0.835884 0.187396 -0.001613
C18   C     C_R   0.177004 0.335884 0.812603 -0.001623
C19   C     C_R   0.713829 0.826150 0.237306 0.085070
C20   C     C_R   0.286172 0.326153 0.762695 0.085072
C21   C     C_R   0.681416 0.847205 0.132631 0.089768
C22   C     C_R   0.318584 0.347209 0.867370 0.089768
C23   C     C_R   0.718515 0.838881 0.056941 -0.157366
C24   C     C_R   0.281485 0.338884 0.943059 -0.157362
C25   C     C_R   0.788332 0.829079 0.083808 -0.177561
C26   C     C_R   0.211668 0.329078 0.916191 -0.177563
C27   C     C_R   0.673085 0.814169 0.309822 -0.308360
C28   C     C_R   0.326915 0.314169 0.690179 -0.308363
C29   C     C_R   0.575240 0.908109 0.180303 0.361219
C30   C     C_R   0.424759 0.408116 0.819698 0.361224
C31   C     C_R   0.893805 0.863620 0.214614 -0.170893
C32   C     C_R   0.106195 0.363621 0.785386 -0.170858
H5    H     H_    0.693816 0.777695 0.388852 0.120749
H6    H     H_    0.306185 0.277692 0.611149 0.120749
H7    H     H_    0.796431 0.841030 0.431932 0.143497
H8    H     H_    0.203572 0.341056 0.568070 0.143500
H9    H     H_    0.913821 0.903886 0.471831 0.134078
H10   H     H_    0.086183 0.403918 0.528173 0.134085
H11   H     H_    0.814893 0.830048 0.022493 0.127975
H12   H     H_    0.185107 0.330044 0.977506 0.127975
H13   H     H_    0.105253 0.832720 0.480146 0.138483
H14   H     H_    0.894746 0.332739 0.519853 0.138482
C33   C     C_R   0.230113 0.845433 0.031332 -0.143947
C34   C     C_R   0.769888 0.345422 0.968667 -0.143947
C35   C     C_R   0.283483 0.816418 0.985139 -0.186992
C36   C     C_R   0.716517 0.316407 0.014858 -0.186998
C37   C     C_R   0.347054 0.781400 0.044957 -0.116579
C38   C     C_R   0.652946 0.281396 0.955040 -0.116575
C39   C     C_R   0.359162 0.784662 0.151870 0.347755
C40   C     C_R   0.640838 0.284666 0.848129 0.347752
C41   C     C_R   0.306374 0.827367 0.202333 -0.014797
C42   C     C_R   0.693626 0.327368 0.797666 -0.014797
C43   C     C_R   0.239743 0.845596 0.139415 0.027328
C44   C     C_R   0.760257 0.345593 0.860584 0.027330
C45   C     C_R   0.316860 0.846996 0.311671 -0.163198
C46   C     C_R   0.683140 0.346997 0.688329 -0.163201
C47   C     C_R   0.260099 0.857625 0.355965 0.070077
C48   C     C_R   0.739901 0.357626 0.644035 0.070079
C49   C     C_R   0.193829 0.853643 0.292501 0.053269
C50   C     C_R   0.806171 0.353646 0.707499 0.053268
C51   C     C_R   0.183506 0.856901 0.184341 -0.154763
C52   C     C_R   0.816494 0.356900 0.815659 -0.154759
C53   C     C_R   0.267951 0.863627 0.463927 -0.150309
C54   C     C_R   0.732048 0.363629 0.536073 -0.150309
C55   C     C_R   0.212362 0.856949 0.507762 -0.135617
C56   C     C_R   0.787637 0.356957 0.492238 -0.135622
C57   C     C_R   0.148067 0.843002 0.445629 -0.117213
C58   C     C_R   0.851932 0.343015 0.554370 -0.117204
C59   C     C_R   0.138767 0.842277 0.339209 -0.137637
C60   C     C_R   0.861232 0.342288 0.660791 -0.137635
H15   H     H_    0.180988 0.865170 0.981029 0.119645
H16   H     H_    0.819013 0.365155 0.018970 0.119647
H17   H     H_    0.275027 0.814817 0.902317 0.143572
H18   H     H_    0.724973 0.314800 0.097679 0.143574
H19   H     H_    0.387729 0.751020 0.007930 0.140031
H20   H     H_    0.612270 0.251017 0.992066 0.140034
H21   H     H_    0.317014 0.869824 0.515859 0.108446
H22   H     H_    0.682986 0.369825 0.484142 0.108446
H23   H     H_    0.219310 0.859168 0.590372 0.127225
H24   H     H_    0.780689 0.359178 0.409628 0.127227
H25   H     H_    0.088368 0.827630 0.293185 0.152596
H26   H     H_    0.911631 0.327648 0.706814 0.152597
O11   O     O_R   0.913760 0.203480 0.916370 -0.532496
O12   O     O_R   0.086240 0.703480 0.083630 -0.532495
O13   O     O_R   0.047590 0.535230 0.888250 -0.546743
O14   O     O_R   0.952410 0.035230 0.111750 -0.546734
C61   C     C_R   0.065342 0.369028 0.863497 0.726145
C62   C     C_R   0.934658 0.869029 0.136503 0.726151
O15   O     O_R   0.912020 0.532880 0.904260 -0.540828
O16   O     O_R   0.087980 0.032880 0.095740 -0.540825
O17   O     O_R   0.949590 0.708460 0.099750 -0.544507
O18   O     O_R   0.050410 0.208460 0.900250 -0.544510
C63   C     C_R   0.886039 0.364771 0.882441 0.685172
C64   C     C_R   0.113961 0.864771 0.117559 0.685180
O19   O     O_3   0.012370 0.375360 0.064120 -0.385398
O20   O     O_3   0.987630 0.875360 0.935880 -0.385402
V3    V     V_3+5 0.997700 0.648160 0.988110 1.382727
V4    V     V_3+5 0.002300 0.148160 0.011890 1.382730
O21   O     O_3   0.511808 0.984541 0.156127 -0.659726
H27   H     H_    0.499703 0.015907 0.082090 0.288878
O22   O     O_3   0.488191 0.484552 0.843874 -0.659726
H28   H     H_    0.500295 0.515925 0.917911 0.288877
O23   O     O_3   0.421667 0.729419 0.203727 -0.631506
H29   H     H_    0.441424 0.838292 0.243000 0.303750
O24   O     O_3   0.578332 0.229437 0.796271 -0.631509
H30   H     H_    0.558578 0.338316 0.757004 0.303750
O25   O     O_3   0.992386 0.951853 0.343026 -0.598959
C65   C     C_3   0.001550 0.133521 0.382799 -0.005347
H31   H     H_    0.054007 0.143232 0.428565 0.156524
H32   H     H_    0.968644 0.167912 0.435798 0.123568
C66   C     C_3   0.992346 0.275019 0.295982 -0.265212
H33   H     H_    0.025932 0.237546 0.244731 0.232716
H34   H     H_    0.939153 0.273640 0.251898 0.190461
C67   C     C_3   0.010018 0.469551 0.335572 -0.827256
H35   H     H_    0.983150 0.505553 0.396229 0.227568
H36   H     H_    0.994978 0.568255 0.271763 0.253747
H37   H     H_    0.065195 0.483040 0.364528 0.222485
O26   O     O_3   0.007614 0.451856 0.656975 -0.598960
C68   C     C_3   0.998447 0.633528 0.617212 -0.005399
H38   H     H_    0.945993 0.643237 0.571445 0.156537
H39   H     H_    0.031352 0.667934 0.564219 0.123587
C69   C     C_3   0.007643 0.775005 0.704031 -0.265234
H40   H     H_    0.974065 0.737500 0.755282 0.232750
H41   H     H_    0.060835 0.773652 0.748113 0.190472
C70   C     C_3   0.989953 0.969526 0.664453 -0.827385
H42   H     H_    0.016826 0.005586 0.603820 0.227598
H43   H     H_    0.004969 0.068198 0.728273 0.253779
H44   H     H_    0.934781 0.982974 0.635472 0.222501

loop_
_geom_bond_atom_site_label_1
_geom_bond_atom_site_label_2
_ccdc_geom_bond_type
C68   C69   S    
C40   C42   A    
C37   C39   A    
O12   C64   A    
C7    C29   A    
C11   C13   A    
O13   V3    S    
C43   C51   A    
O1    C3    A    
O2    C4    A    
O11   V4    S    
C34   H16   S    
C68   H38   S    
C23   C25   A    
O5    C3    A    
C4    C7    S    
C48   C50   A    
O16   V4    S    
O14   V4    S    
C16   C20   A    
O15   V3    S    
C19   C21   A    
C58   C60   A    
C53   H21   S    
C1    C46   S    
C70   H43   S    
O16   C64   A    
H2    C24   S    
C44   C52   A    
O21   H27   S    
O11   C63   A    
C3    C8    S    
C7    C27   A    
C34   C36   A    
O18   V4    S    
C35   C37   A    
O17   V3    S    
C36   C38   A    
C26   H12   S    
C49   C59   A    
C25   H11   S    
C39   C41   A    
C18   C26   A    
H13   C57   S    
C61   O18   A    
C52   C63   S    
C19   C27   A    
C9    C31   A    
C10   C32   A    
O5    V1    S    
O6    V2    S    
C22   C24   A    
C48   C54   A    
C13   C15   A    
C47   C49   A    
C2    O7    A    
C6    C30   A    
O20   V3    S    
C55   C57   A    
C35   H17   S    
C47   C53   A    
C2    C45   S    
C33   C35   A    
C56   H24   S    
C50   C52   A    
O25   C65   S    
C46   C48   A    
C70   H44   S    
C53   C55   A    
C12   H10   S    
C27   H5    S    
C32   C61   S    
C5    H3    S    
C30   O22   S    
C42   C46   A    
C41   C43   A    
C38   C40   A    
O4    V2    S    
C67   H36   S    
C66   H34   S    
C10   O26   S    
H14   C58   S    
C9    O25   S    
C29   O21   S    
C34   C44   A    
O6    C4    A    
C15   C17   A    
C39   O23   S    
C40   O24   S    
O1    V2    S    
C5    C21   A    
O14   C62   A    
O2    V1    S    
C49   C51   A    
O24   H30   S    
H1    C23   S    
C33   C43   A    
C65   C66   S    
O4    C2    A    
C57   C59   A    
C8    C28   A    
C56   C58   A    
C17   C31   A    
C15   C19   A    
C20   C28   A    
C67   H37   S    
C18   C32   A    
C38   H20   S    
C54   H22   S    
C66   H33   S    
C50   C60   A    
O3    V1    S    
C45   C47   A    
C13   H7    S    
C28   H6    S    
C68   H39   S    
C14   H8    S    
C31   C62   S    
C6    H4    S    
O12   V3    S    
C5    C29   A    
O3    C1    A    
C69   C70   S    
O23   H29   S    
C11   H9    S    
O26   C68   S    
C69   H41   S    
C9    C11   A    
C10   C12   A    
C8    C30   A    
C65   H32   S    
C12   C14   A    
C67   H35   S    
C6    C22   A    
C66   C67   S    
C17   C25   A    
C1    O8    A    
C21   C23   A    
O8    V2    S    
O22   H28   S    
C20   C22   A    
C14   C16   A    
O15   C63   A    
C55   H23   S    
C36   H18   S    
C24   C26   A    
C54   C56   A    
O19   V4    S    
C41   C45   A    
O7    V1    S    
C51   C64   S    
C60   H26   S    
C33   H15   S    
C59   H25   S    
C69   H40   S    
O13   C61   A    
O9    V2    S    
C37   H19   S    
C42   C44   A    
O10   V1    S    
C70   H42   S    
C62   O17   A    
C16   C18   A    
C65   H31   S    
