data_mof_unit_19909.cif
_audit_creation_date              2012-12-11T16:26:29-0500
_audit_creation_method            fapswitch 2.2
_symmetry_space_group_name_H-M    P1
_symmetry_Int_Tables_number       1
_space_group_crystal_system       triclinic
_cell_length_a                    13.999329
_cell_length_b                    13.999352
_cell_length_c                    32.058643
_cell_angle_alpha                 90.000285
_cell_angle_beta                  89.999712
_cell_angle_gamma                 120.000174
_cell_volume                      5441.14324192

loop_
_atom_site_label
_atom_site_type_symbol
_atom_type_description
_atom_site_fract_x
_atom_site_fract_y
_atom_site_fract_z
_atom_type_partial_charge
C1    C     C_R   0.567927 0.443781 0.810688 0.580426
C2    C     C_R   0.443781 0.567927 0.189312 0.580425
C3    C     C_R   0.432073 0.875854 0.310688 0.580388
C4    C     C_R   0.124147 0.556219 0.189312 0.580415
C5    C     C_1   0.004543 0.514878 0.018614 -0.013522
C6    C     C_1   0.510387 0.995494 0.481383 -0.013523
C7    C     C_1   0.485127 0.489651 0.018616 -0.013522
C8    C     C_1   0.004488 0.514900 0.481381 -0.013523
C9    C     C_1   0.510334 0.995463 0.018614 -0.013523
C10   C     C_1   0.485115 0.489627 0.481383 -0.013523
C11   C     C_1   0.514905 0.004531 0.518615 -0.013522
C12   C     C_R   0.875857 0.432074 0.689313 0.580344
C13   C     C_1   0.995499 0.510357 0.981382 -0.013522
C14   C     C_1   0.489636 0.485107 0.518615 -0.013522
C15   C     C_1   0.514857 0.004509 0.981382 -0.013522
C16   C     C_1   0.995454 0.510382 0.518614 -0.013521
C17   C     C_1   0.489649 0.485129 0.981384 -0.013522
C18   C     C_R   0.928549 0.469375 0.852110 0.072324
C19   C     C_R   0.540817 0.071438 0.647891 0.072291
C20   C     C_R   0.530626 0.459176 0.852110 0.072321
C21   C     C_R   0.928567 0.469381 0.647891 0.072259
C22   C     C_R   0.540823 0.071451 0.852110 0.072319
C23   C     C_R   0.556219 0.124147 0.810688 0.580419
C24   C     C_R   0.530625 0.459178 0.647890 0.072270
C25   C     C_R   0.469378 0.928554 0.352110 0.072295
C26   C     C_R   0.071457 0.540826 0.147889 0.072319
C27   C     C_R   0.459175 0.530624 0.352110 0.072304
C28   C     C_R   0.469371 0.928542 0.147889 0.072326
C29   C     C_R   0.071440 0.540824 0.352109 0.072299
C30   C     C_R   0.459174 0.530626 0.147890 0.072324
C31   C     C_R   0.908234 0.542839 0.875685 0.337211
C32   C     C_R   0.634589 0.091672 0.624328 0.337203
C33   C     C_R   0.457146 0.365398 0.875683 0.337211
C34   C     C_R   0.567927 0.443781 0.689312 0.580344
C35   C     C_R   0.908374 0.542957 0.624335 0.337209
C36   C     C_R   0.634600 0.091756 0.875684 0.337211
C37   C     C_R   0.457114 0.365404 0.624323 0.337210
C38   C     C_R   0.542883 0.908283 0.375677 0.337208
C39   C     C_R   0.091762 0.634605 0.124316 0.337211
C40   C     C_R   0.365399 0.457130 0.375679 0.337210
C41   C     C_R   0.542828 0.908218 0.124313 0.337211
C42   C     C_R   0.091703 0.634601 0.375675 0.337211
C43   C     C_R   0.365395 0.457152 0.124316 0.337209
C44   C     C_R   0.934694 0.559266 0.917875 -0.086031
C45   C     C_R   0.875853 0.432073 0.810688 0.580425
C46   C     C_R   0.624573 0.065227 0.582137 -0.086042
C47   C     C_R   0.440721 0.375426 0.917873 -0.086032
C48   C     C_R   0.934814 0.559388 0.582144 -0.086044
C49   C     C_R   0.624567 0.065298 0.917873 -0.086033
C50   C     C_R   0.440686 0.375425 0.582133 -0.086039
C51   C     C_R   0.559320 0.934742 0.417867 -0.086036
C52   C     C_R   0.065316 0.624579 0.082125 -0.086032
C53   C     C_R   0.375423 0.440698 0.417869 -0.086035
C54   C     C_R   0.559247 0.934666 0.082122 -0.086029
C55   C     C_R   0.065239 0.624581 0.417864 -0.086033
C56   C     C_R   0.556218 0.124144 0.689313 0.580370
C57   C     C_R   0.375423 0.440727 0.082126 -0.086032
C58   C     C_R   0.982457 0.504209 0.937125 -0.042758
C59   C     C_R   0.521775 0.017554 0.562873 -0.042754
C60   C     C_R   0.495797 0.478241 0.937127 -0.042759
C61   C     C_R   0.982438 0.504225 0.562872 -0.042755
C62   C     C_R   0.521749 0.017549 0.937126 -0.042759
C63   C     C_R   0.495788 0.478229 0.562872 -0.042755
C64   C     C_R   0.504232 0.982462 0.437126 -0.042758
C65   C     C_R   0.017577 0.521765 0.062871 -0.042760
C66   C     C_R   0.478233 0.495781 0.437126 -0.042758
C67   C     C_R   0.443781 0.567927 0.310688 0.580395
C68   C     C_R   0.504188 0.982425 0.062871 -0.042759
C69   C     C_R   0.017522 0.521775 0.437124 -0.042759
C70   C     C_R   0.478239 0.495798 0.062872 -0.042759
C71   C     C_R   0.011161 0.438233 0.913764 -0.122839
C72   C     C_R   0.427093 0.988917 0.586223 -0.122858
C73   C     C_R   0.561787 0.572922 0.913768 -0.122837
C74   C     C_R   0.011037 0.438142 0.586215 -0.122871
C75   C     C_R   0.427071 0.988853 0.913766 -0.122840
C76   C     C_R   0.561809 0.572910 0.586226 -0.122869
C77   C     C_R   0.438216 0.011127 0.413772 -0.122856
C78   C     C_R   0.432073 0.875853 0.189312 0.580421
C79   C     C_R   0.988880 0.427083 0.086229 -0.122839
C80   C     C_R   0.572914 0.561786 0.413770 -0.122852
C81   C     C_R   0.438219 0.011138 0.086233 -0.122837
C82   C     C_R   0.988864 0.427093 0.413771 -0.122857
C83   C     C_R   0.572921 0.561784 0.086232 -0.122836
C84   C     C_R   0.985221 0.420750 0.871209 0.062291
C85   C     C_R   0.435532 0.014842 0.628778 0.062263
C86   C     C_R   0.579267 0.564470 0.871213 0.062304
C87   C     C_R   0.985122 0.420656 0.628771 0.062244
C88   C     C_R   0.435526 0.014788 0.871211 0.062289
C89   C     C_R   0.124145 0.556219 0.310688 0.580394
C90   C     C_R   0.579294 0.564466 0.628781 0.062212
C91   C     C_R   0.420723 0.985189 0.371217 0.062268
C92   C     C_R   0.014805 0.435533 0.128785 0.062299
C93   C     C_R   0.564467 0.579273 0.371215 0.062271
C94   C     C_R   0.420746 0.985212 0.128789 0.062291
C95   C     C_R   0.014807 0.435536 0.371217 0.062274
C96   C     C_R   0.564469 0.579264 0.128787 0.062309
Cr1   Cr    Cr6+3 0.504240 0.249200 0.750000 1.144080
Cr2   Cr    Cr6+3 0.744960 0.495760 0.750000 1.144100
Cr3   Cr    Cr6+3 0.750800 0.255040 0.750000 1.144082
Cr4   Cr    Cr6+3 0.249200 0.504240 0.250000 1.144070
Cr5   Cr    Cr6+3 0.495760 0.744960 0.250000 1.144068
Cr6   Cr    Cr6+3 0.255040 0.750800 0.250000 1.144077
F1    F     F_    0.855985 0.593492 0.858994 -0.623254
F2    F     F_    0.593484 0.855972 0.141004 -0.623257
F3    F     F_    0.143902 0.737494 0.358975 -0.623251
F4    F     F_    0.262495 0.406482 0.141011 -0.623253
F5    F     F_    0.737476 0.143825 0.641034 -0.623295
F6    F     F_    0.406472 0.262499 0.858988 -0.623246
F7    F     F_    0.856270 0.593732 0.641049 -0.623235
F8    F     F_    0.737501 0.143991 0.858990 -0.623242
F9    F     F_    0.406407 0.262513 0.641024 -0.623269
F10   F     F_    0.593575 0.856080 0.358977 -0.623248
F11   F     F_    0.143987 0.737504 0.141011 -0.623247
F12   F     F_    0.262503 0.406445 0.358982 -0.623256
H1    H     H_    0.086449 0.698000 0.064064 0.142833
H2    H     H_    0.697987 0.086432 0.935935 0.142833
H3    H     H_    0.913763 0.611758 0.564095 0.142821
H4    H     H_    0.388430 0.302006 0.935934 0.142832
H5    H     H_    0.949677 0.346974 0.071203 0.128383
H6    H     H_    0.397298 0.050313 0.428802 0.128380
H7    H     H_    0.653031 0.602688 0.071206 0.128382
H8    H     H_    0.949680 0.346990 0.428802 0.128379
H9    H     H_    0.397325 0.050356 0.071209 0.128385
H10   H     H_    0.653020 0.602699 0.428798 0.128383
H11   H     H_    0.346995 0.949764 0.571189 0.128386
H12   H     H_    0.611631 0.913632 0.435923 0.142826
H13   H     H_    0.050379 0.397339 0.928788 0.128384
H14   H     H_    0.602737 0.653012 0.571195 0.128390
H15   H     H_    0.346959 0.949643 0.928791 0.128384
H16   H     H_    0.050155 0.397168 0.571175 0.128380
H17   H     H_    0.602693 0.653031 0.928795 0.128382
H18   H     H_    0.900296 0.285669 0.150108 0.224873
H19   H     H_    0.022941 0.296991 0.137835 0.280741
H20   H     H_    0.385317 0.099664 0.349897 0.224884
H21   H     H_    0.274020 0.977008 0.362180 0.280748
H22   H     H_    0.714332 0.614619 0.150112 0.224874
H23   H     H_    0.302001 0.388439 0.064065 0.142830
H24   H     H_    0.703014 0.725943 0.137837 0.280739
H25   H     H_    0.900338 0.285650 0.349896 0.224885
H26   H     H_    0.022995 0.297015 0.362182 0.280751
H27   H     H_    0.385422 0.099741 0.150112 0.224878
H28   H     H_    0.274081 0.977100 0.137847 0.280735
H29   H     H_    0.714342 0.614661 0.349893 0.224887
H30   H     H_    0.702997 0.725968 0.362173 0.280745
H31   H     H_    0.285624 0.900402 0.650089 0.224906
H32   H     H_    0.297040 0.023083 0.637810 0.280784
H33   H     H_    0.099734 0.385409 0.849881 0.224881
H34   H     H_    0.086343 0.698003 0.435920 0.142824
H35   H     H_    0.977099 0.274078 0.862158 0.280729
H36   H     H_    0.614719 0.714357 0.650097 0.224912
H37   H     H_    0.726006 0.702976 0.637820 0.280762
H38   H     H_    0.285666 0.900282 0.849884 0.224880
H39   H     H_    0.296984 0.022922 0.862160 0.280735
H40   H     H_    0.099516 0.385100 0.650061 0.224896
H41   H     H_    0.976787 0.273881 0.637795 0.280826
H42   H     H_    0.614631 0.714336 0.849889 0.224877
H43   H     H_    0.725950 0.703009 0.862164 0.280742
H44   H     H_    0.611522 0.913519 0.064059 0.142830
H45   H     H_    0.302001 0.388395 0.435928 0.142824
H46   H     H_    0.697994 0.086310 0.564083 0.142811
H47   H     H_    0.913553 0.611545 0.935938 0.142831
H48   H     H_    0.388369 0.302004 0.564076 0.142818
N1    N     N_3   0.985757 0.337375 0.152081 -0.564145
N2    N     N_3   0.337371 0.985743 0.847914 -0.564145
N3    N     N_3   0.014071 0.351444 0.652048 -0.564042
N4    N     N_3   0.648383 0.662627 0.847918 -0.564134
N5    N     N_3   0.351580 0.014204 0.347928 -0.564109
N6    N     N_3   0.662627 0.648375 0.152083 -0.564144
N7    N     N_3   0.985797 0.337375 0.347928 -0.564108
N8    N     N_3   0.351654 0.014279 0.152088 -0.564168
N9    N     N_3   0.662625 0.648404 0.347923 -0.564123
N10   N     N_3   0.337372 0.985855 0.652063 -0.564071
N11   N     N_3   0.014272 0.351645 0.847911 -0.564149
N12   N     N_3   0.648443 0.662625 0.652070 -0.564102
O1    O     O_R   0.480350 0.140770 0.796330 -0.442317
O2    O     O_R   0.140770 0.480350 0.203670 -0.442317
O3    O     O_R   0.519650 0.660420 0.296330 -0.442329
O4    O     O_R   0.339580 0.859230 0.203670 -0.442318
O5    O     O_R   0.514930 0.348530 0.793250 -0.453595
O6    O     O_R   0.833600 0.485070 0.706750 -0.453561
O7    O     O_R   0.651470 0.166400 0.793250 -0.453593
O8    O     O_R   0.514930 0.348530 0.706750 -0.453575
O9    O     O_R   0.833600 0.485070 0.793250 -0.453593
O10   O     O_R   0.651470 0.166400 0.706750 -0.453574
O11   O     O_R   0.348530 0.514930 0.293250 -0.453592
O12   O     O_R   0.660420 0.519650 0.703670 -0.442366
O13   O     O_R   0.485070 0.833600 0.206750 -0.453604
O14   O     O_R   0.166400 0.651470 0.293250 -0.453589
O15   O     O_R   0.348530 0.514930 0.206750 -0.453602
O16   O     O_R   0.485070 0.833600 0.293250 -0.453591
O17   O     O_R   0.166400 0.651470 0.206750 -0.453599
O18   O     O_3   0.666667 0.333333 0.750000 -0.315740
O19   O     O_3   0.333333 0.666667 0.250000 -0.315725
O20   O     O_R   0.859230 0.339580 0.796330 -0.442312
O21   O     O_R   0.480350 0.140770 0.703670 -0.442336
O22   O     O_R   0.660420 0.519650 0.796330 -0.442304
O23   O     O_R   0.859230 0.339580 0.703670 -0.442352
O24   O     O_R   0.140770 0.480350 0.296330 -0.442322
O25   O     O_R   0.519650 0.660420 0.203670 -0.442309
O26   O     O_R   0.339580 0.859230 0.296330 -0.442327

loop_
_geom_bond_atom_site_label_1
_geom_bond_atom_site_label_2
_ccdc_geom_bond_type
C19   C56   S    
C73   H17   S    
H26   N7    S    
C65   C79   A    
H32   N10   S    
C29   C42   A    
C50   H48   S    
C64   C77   A    
C60   C73   A    
Cr4   O15   S    
C86   N4    S    
C2    O15   A    
C77   H6    S    
Cr1   O18   S    
C7    C70   S    
C21   C87   A    
C72   C85   A    
C55   H34   S    
Cr1   O8    S    
Cr4   O19   S    
C89   O24   A    
Cr3   O20   S    
C8    C69   S    
C81   H9    S    
Cr1   O1    S    
C68   C81   A    
C91   N5    S    
C23   O7    A    
Cr3   O18   S    
C42   C55   A    
C58   C71   A    
Cr1   O5    S    
C23   O1    A    
C63   C76   A    
C19   C32   A    
C26   C92   A    
C44   H47   S    
C28   C41   A    
H24   N6    S    
C6    C64   S    
Cr2   O9    S    
C34   O12   A    
C30   C96   A    
C69   C82   A    
C47   C60   A    
C47   H4    S    
C40   F12   S    
C44   C58   A    
C7    C17   T    
C32   F5    S    
C20   C86   A    
Cr4   O2    S    
C18   C84   A    
C12   O23   A    
C96   N6    S    
H40   N3    S    
C34   O8    A    
C82   C95   A    
C22   C88   A    
C57   C70   A    
C28   C78   S    
C5    C13   T    
C35   F7    S    
C59   C72   A    
H28   N8    S    
C39   C52   A    
H31   N10   S    
C41   C54   A    
C8    C16   T    
H37   N12   S    
C50   C63   A    
C4    O17   A    
C71   H13   S    
C33   F6    S    
C11   C59   S    
C35   C48   A    
H19   N1    S    
C29   C89   S    
C18   C31   A    
Cr5   O19   S    
C3    O26   A    
C10   C66   S    
C9    C68   S    
C25   C91   A    
C85   N10   S    
C53   H45   S    
C31   C44   A    
H39   N2    S    
C57   H23   S    
C2    O25   A    
C3    C25   S    
C1    O22   A    
C27   C67   S    
Cr2   O18   S    
Cr5   O16   S    
C67   O3    A    
C3    O16   A    
C6    C11   T    
C29   C95   A    
C28   C94   A    
C38   C51   A    
H22   N6    S    
C39   F11   S    
C88   N2    S    
C12   C21   S    
C24   C34   S    
C79   H5    S    
C43   F4    S    
C31   F1    S    
C36   C49   A    
C70   C83   A    
Cr6   O26   S    
C25   C38   A    
C54   H44   S    
C56   O21   A    
H30   N9    S    
H42   N4    S    
C27   C40   A    
C46   H46   S    
Cr3   O23   S    
H33   N11   S    
Cr6   O17   S    
C79   C92   A    
Cr2   O22   S    
H38   N2    S    
C83   H7    S    
C53   C66   A    
C95   N7    S    
Cr3   O10   S    
C55   C69   A    
C21   C35   A    
C20   C33   A    
C92   N1    S    
C5    C65   S    
C12   O6    A    
Cr6   O19   S    
C74   H16   S    
C36   F8    S    
C74   C87   A    
C89   O14   A    
C30   C43   A    
C27   C93   A    
C16   C61   S    
C62   C75   A    
Cr2   O6    S    
C84   N11   S    
C18   C45   S    
C66   C80   A    
C45   O9    A    
C71   C84   A    
C80   H10   S    
C52   H1    S    
C45   O20   A    
C77   C91   A    
C1    C20   S    
C49   C62   A    
H36   N12   S    
C78   O4    A    
C51   H12   S    
C32   C46   A    
C22   C23   S    
Cr4   O24   S    
C51   C64   A    
C19   C85   A    
C24   C90   A    
H43   N4    S    
C4    C26   S    
Cr5   O25   S    
C48   H3    S    
C13   C58   S    
C61   C74   A    
C24   C37   A    
C22   C36   A    
C90   N12   S    
C41   F2    S    
C72   H11   S    
C2    C30   S    
Cr1   O21   S    
Cr4   O11   S    
C9    C15   T    
H18   N1    S    
H29   N9    S    
Cr2   O12   S    
C94   N8    S    
C81   C94   A    
C1    O5    A    
C48   C61   A    
C87   N3    S    
C83   C96   A    
H41   N3    S    
Cr6   O4    S    
C14   C63   S    
C37   C50   A    
H27   N8    S    
C33   C47   A    
C15   C62   S    
H25   N7    S    
H35   N11   S    
C56   O10   A    
C26   C39   A    
C42   F3    S    
Cr6   O14   S    
C73   C86   A    
C37   F9    S    
Cr5   O3    S    
C43   C57   A    
C17   C60   S    
C67   O11   A    
C75   C88   A    
C49   H2    S    
C54   C68   A    
C46   C59   A    
C40   C53   A    
C4    O2    A    
C76   C90   A    
H21   N5    S    
H20   N5    S    
Cr3   O7    S    
C78   O13   A    
C80   C93   A    
Cr5   O13   S    
C38   F10   S    
C82   H8    S    
C52   C65   A    
C75   H15   S    
C10   C14   T    
C76   H14   S    
C93   N9    S    
