data_mof_unit_65875.cif
_audit_creation_date              2012-12-11T17:25:58-0500
_audit_creation_method            fapswitch 2.2
_symmetry_space_group_name_H-M    P1
_symmetry_Int_Tables_number       1
_space_group_crystal_system       triclinic
_cell_length_a                    22.784167
_cell_length_b                    22.724622
_cell_length_c                    23.538584
_cell_angle_alpha                 89.994666
_cell_angle_beta                  90.003995
_cell_angle_gamma                 89.696322
_cell_volume                      12187.2032396

loop_
_atom_site_label
_atom_site_type_symbol
_atom_type_description
_atom_site_fract_x
_atom_site_fract_y
_atom_site_fract_z
_atom_type_partial_charge
C1    C     C_R   0.860511 0.071401 0.404206 0.512633
C2    C     C_R   0.136114 0.932408 0.599812 0.521153
C3    C     C_R   0.929511 0.860164 0.404484 0.536561
C4    C     C_R   0.079852 0.148446 0.578496 0.566629
C5    C     C_R   0.148852 0.919573 0.422586 0.536117
C6    C     C_R   0.864127 0.067222 0.600084 0.520595
C7    C     C_R   0.080795 0.149592 0.425006 0.585450
C8    C     C_R   0.920038 0.851302 0.577762 0.561527
C9    C     C_R   0.148398 0.079893 0.578243 0.565770
C10   C     C_R   0.857570 0.925820 0.408642 0.532171
C11   C     C_R   0.067377 0.863855 0.599907 0.523368
C12   C     C_R   0.931507 0.137546 0.401590 0.529019
C13   C     C_R   0.851476 0.919839 0.577704 0.566159
C14   C     C_R   0.148711 0.079901 0.422266 0.539987
C15   C     C_R   0.932618 0.135996 0.600060 0.518626
C16   C     C_R   0.081081 0.850252 0.425213 0.578712
C17   C     C_R   0.351620 0.579874 0.921105 0.537471
C18   C     C_R   0.648886 0.419603 0.077396 0.538297
C19   C     C_R   0.420933 0.351814 0.920374 0.535731
C20   C     C_R   0.580847 0.649721 0.074544 0.583191
C21   C     C_R   0.648404 0.420128 0.921149 0.537002
C22   C     C_R   0.359777 0.572197 0.094753 0.516732
C23   C     C_R   0.578968 0.648057 0.919994 0.540029
C24   C     C_R   0.429863 0.360521 0.095989 0.534203
C25   C     C_R   0.648841 0.580091 0.077265 0.538362
C26   C     C_R   0.352003 0.420841 0.920301 0.539779
C27   C     C_R   0.581164 0.350259 0.074814 0.578917
C28   C     C_R   0.420216 0.648573 0.921180 0.535356
C29   C     C_R   0.358056 0.426354 0.092145 0.526488
C30   C     C_R   0.647988 0.579130 0.920260 0.538202
C31   C     C_R   0.430978 0.638134 0.097699 0.532998
C32   C     C_R   0.579717 0.351540 0.920851 0.538965
C33   C     C_1   0.177291 0.177099 0.691141 0.106854
C34   C     C_1   0.836107 0.837539 0.283131 0.102342
C35   C     C_1   0.846304 0.153578 0.728208 0.097808
C36   C     C_1   0.217490 0.782136 0.382286 0.098976
C37   C     C_1   0.822561 0.822302 0.690208 0.109487
C38   C     C_1   0.216415 0.216667 0.380564 0.096615
C39   C     C_1   0.153755 0.846081 0.727910 0.096249
C40   C     C_1   0.841745 0.157873 0.276491 0.100943
C41   C     C_1   0.716425 0.716986 0.118956 0.094728
C42   C     C_1   0.287436 0.286931 0.867936 0.096783
C43   C     C_1   0.340602 0.658811 0.222081 0.100220
C44   C     C_1   0.716382 0.283161 0.878879 0.093092
C45   C     C_1   0.337052 0.338222 0.217894 0.101313
C46   C     C_1   0.712471 0.712872 0.867406 0.092336
C47   C     C_1   0.717805 0.282116 0.117244 0.094094
C48   C     C_1   0.283615 0.716779 0.878748 0.098483
C49   C     C_1   0.853319 0.854061 0.328381 -0.015662
C50   C     C_1   0.160619 0.160566 0.645829 -0.018292
C51   C     C_1   0.181719 0.818073 0.396099 0.014822
C52   C     C_1   0.863503 0.136467 0.683063 -0.012538
C53   C     C_1   0.181050 0.181025 0.395076 0.012590
C54   C     C_1   0.839216 0.838868 0.644890 -0.019803
C55   C     C_1   0.858706 0.141245 0.321888 -0.015100
C56   C     C_1   0.136639 0.863125 0.682726 -0.012996
C57   C     C_1   0.321900 0.321499 0.886104 0.015372
C58   C     C_1   0.681154 0.681344 0.104217 0.009544
C59   C     C_1   0.680353 0.319278 0.891726 0.008730
C60   C     C_1   0.357500 0.642367 0.176632 -0.014854
C61   C     C_1   0.678014 0.678374 0.885718 0.008652
C62   C     C_1   0.354225 0.354822 0.172666 -0.014910
C63   C     C_1   0.319656 0.680717 0.891690 0.015068
C64   C     C_1   0.681946 0.318065 0.103606 0.009082
C65   C     C_R   0.880514 0.120071 0.374875 -0.312281
C66   C     C_R   0.115936 0.883872 0.629169 -0.319192
C67   C     C_R   0.876390 0.875768 0.380479 -0.326564
C68   C     C_R   0.136535 0.136601 0.595448 -0.363801
C69   C     C_R   0.138244 0.861416 0.408957 -0.348147
C70   C     C_R   0.884274 0.115706 0.629508 -0.311391
C71   C     C_R   0.137911 0.138070 0.408594 -0.355963
C72   C     C_R   0.863232 0.862936 0.594503 -0.345954
C73   C     C_R   0.362960 0.637277 0.904985 -0.334009
C74   C     C_R   0.638377 0.361413 0.090934 -0.354792
C75   C     C_R   0.363920 0.363683 0.903780 -0.336064
C76   C     C_R   0.638066 0.638332 0.090696 -0.356710
C77   C     C_R   0.637057 0.362772 0.904915 -0.339987
C78   C     C_R   0.379462 0.621201 0.123764 -0.322405
C79   C     C_R   0.636034 0.636222 0.903565 -0.342156
C80   C     C_R   0.377088 0.376489 0.120477 -0.327340
C81   C     C_R   0.812221 0.737269 0.161037 0.485739
C82   C     C_R   0.194615 0.270494 0.819306 0.487517
C83   C     C_R   0.344957 0.730269 0.300190 0.486417
C84   C     C_R   0.738879 0.184663 0.842392 0.485986
C85   C     C_R   0.265317 0.343077 0.295707 0.484886
C86   C     C_R   0.805212 0.729052 0.818541 0.487675
C87   C     C_R   0.738641 0.184951 0.157361 0.487584
C88   C     C_R   0.261055 0.815225 0.842187 0.486456
C89   C     C_R   0.185238 0.739004 0.842458 0.486372
C90   C     C_R   0.814761 0.260821 0.157037 0.485434
C91   C     C_R   0.728929 0.805609 0.818185 0.487671
C92   C     C_R   0.342346 0.267128 0.296336 0.486359
C93   C     C_R   0.814780 0.260785 0.842700 0.486056
C94   C     C_R   0.268609 0.654471 0.299611 0.484722
C95   C     C_R   0.271031 0.194064 0.818967 0.487622
C96   C     C_R   0.735130 0.812970 0.161849 0.487961
C97   C     C_R   0.244669 0.167666 0.772061 0.483925
C98   C     C_R   0.764565 0.842718 0.205105 0.484634
C99   C     C_R   0.847608 0.228093 0.803678 0.486269
C100  C     C_R   0.238016 0.685193 0.341669 0.487836
C101  C     C_R   0.755252 0.831881 0.771184 0.484230
C102  C     C_R   0.312472 0.237095 0.339102 0.485945
C103  C     C_R   0.152396 0.771659 0.803422 0.485620
C104  C     C_R   0.845653 0.229916 0.198785 0.486530
C105  C     C_R   0.769452 0.153980 0.199129 0.484853
C106  C     C_R   0.228241 0.847921 0.803161 0.485558
C107  C     C_R   0.235545 0.312978 0.338509 0.488018
C108  C     C_R   0.831665 0.755179 0.771532 0.484432
C109  C     C_R   0.314284 0.760927 0.342226 0.485691
C110  C     C_R   0.771674 0.151925 0.803380 0.486217
C111  C     C_R   0.841766 0.766943 0.204257 0.486006
C112  C     C_R   0.168121 0.244233 0.772398 0.483746
C113  C     C_R   0.195703 0.195331 0.746321 -0.449686
C114  C     C_R   0.815601 0.817279 0.229130 -0.445366
C115  C     C_R   0.823850 0.175866 0.780837 -0.446314
C116  C     C_R   0.258663 0.740632 0.359653 -0.445349
C117  C     C_R   0.804134 0.804097 0.745412 -0.449776
C118  C     C_R   0.256937 0.257771 0.356974 -0.446435
C119  C     C_R   0.176118 0.823903 0.780595 -0.446148
C120  C     C_R   0.820667 0.178831 0.222824 -0.444877
C121  C     C_R   0.756760 0.758000 0.143006 -0.448629
C122  C     C_R   0.248412 0.247845 0.839674 -0.447042
C123  C     C_R   0.319759 0.679424 0.275908 -0.444893
C124  C     C_R   0.758405 0.241120 0.858569 -0.447887
C125  C     C_R   0.316427 0.317743 0.271757 -0.445140
C126  C     C_R   0.751496 0.751832 0.838964 -0.449566
C127  C     C_R   0.759111 0.240556 0.139647 -0.448810
C128  C     C_R   0.241576 0.758749 0.858364 -0.444311
N1    N     N_R   0.900580 0.056480 0.443850 -0.119902
N2    N     N_R   0.099420 0.943520 0.556150 -0.117825
N3    N     N_R   0.943520 0.900580 0.443850 -0.121103
N4    N     N_R   0.056480 0.099420 0.556150 -0.133665
N5    N     N_R   0.099420 0.943520 0.443850 -0.125530
N6    N     N_R   0.900580 0.056480 0.556150 -0.115561
N7    N     N_R   0.056480 0.099420 0.443850 -0.130811
N8    N     N_R   0.943520 0.900580 0.556150 -0.131404
N9    N     N_R   0.099420 0.056480 0.556150 -0.132420
N10   N     N_R   0.900580 0.943520 0.443850 -0.125738
N11   N     N_R   0.056480 0.900580 0.556150 -0.118216
N12   N     N_R   0.943520 0.099420 0.443850 -0.117011
N13   N     N_R   0.900580 0.943520 0.556150 -0.131624
N14   N     N_R   0.099420 0.056480 0.443850 -0.128072
N15   N     N_R   0.943520 0.099420 0.556150 -0.116345
N16   N     N_R   0.056480 0.900580 0.443850 -0.127793
N17   N     N_R   0.400580 0.556480 0.943850 -0.123641
N18   N     N_R   0.599420 0.443520 0.056150 -0.127281
N19   N     N_R   0.443520 0.400580 0.943850 -0.123480
N20   N     N_R   0.556480 0.599420 0.056150 -0.129664
N21   N     N_R   0.599420 0.443520 0.943850 -0.125079
N22   N     N_R   0.400580 0.556480 0.056150 -0.122244
N23   N     N_R   0.556480 0.599420 0.943850 -0.125823
N24   N     N_R   0.443520 0.400580 0.056150 -0.120297
N25   N     N_R   0.599420 0.556480 0.056150 -0.127320
N26   N     N_R   0.400580 0.443520 0.943850 -0.123437
N27   N     N_R   0.556480 0.400580 0.056150 -0.129568
N28   N     N_R   0.443520 0.599420 0.943850 -0.123578
N29   N     N_R   0.400580 0.443520 0.056150 -0.124196
N30   N     N_R   0.599420 0.556480 0.943850 -0.124825
N31   N     N_R   0.443520 0.599420 0.056150 -0.119097
N32   N     N_R   0.556480 0.400580 0.943850 -0.125969
Ni1   Ni    Ni4+2 0.901480 1.000000 0.500000 0.308633
Ni2   Ni    Ni4+2 0.098520 1.000000 0.500000 0.301400
Ni3   Ni    Ni4+2 0.000000 0.901480 0.500000 0.303449
Ni4   Ni    Ni4+2 0.000000 0.098520 0.500000 0.302788
Ni5   Ni    Ni4+2 0.401480 0.500000 0.000000 0.312340
Ni6   Ni    Ni4+2 0.598520 0.500000 0.000000 0.305353
Ni7   Ni    Ni4+2 0.500000 0.401480 0.000000 0.306716
Ni8   Ni    Ni4+2 0.500000 0.598520 0.000000 0.307132
O1    O     O_3   0.804229 0.050375 0.402766 -0.648664
H1    H     H_    0.782487 0.071529 0.372470 0.335236
O2    O     O_3   0.187308 0.961995 0.610099 -0.672542
H2    H     H_    0.206813 0.943832 0.643436 0.330603
O3    O     O_3   0.961596 0.810288 0.393178 -0.673527
H3    H     H_    0.940336 0.787128 0.364131 0.331975
O4    O     O_3   0.059541 0.204009 0.565702 -0.624230
H4    H     H_    0.087772 0.232902 0.581303 0.333375
O5    O     O_3   0.203380 0.943594 0.430983 -0.640424
H5    H     H_    0.233145 0.917190 0.413698 0.330985
O6    O     O_3   0.813259 0.037187 0.610698 -0.676402
H6    H     H_    0.793942 0.055030 0.644289 0.331450
O7    O     O_3   0.059499 0.204209 0.440179 -0.628291
H7    H     H_    0.085992 0.234585 0.424521 0.329309
O8    O     O_3   0.940277 0.795976 0.563909 -0.631743
H8    H     H_    0.912121 0.766830 0.579196 0.335851
O9    O     O_3   0.203723 0.059817 0.564647 -0.623556
H9    H     H_    0.232625 0.088093 0.580145 0.332910
O10   O     O_3   0.799979 0.943075 0.414001 -0.631636
H10   H     H_    0.776171 0.919514 0.387166 0.335400
O11   O     O_3   0.037380 0.812882 0.610515 -0.673705
H11   H     H_    0.055385 0.793325 0.643908 0.330411
O12   O     O_3   0.963384 0.187082 0.389770 -0.678750
H12   H     H_    0.944016 0.208240 0.358033 0.332231
O13   O     O_3   0.796248 0.939981 0.563799 -0.625954
H13   H     H_    0.767245 0.911642 0.579017 0.336834
O14   O     O_3   0.203309 0.055240 0.430015 -0.632919
H14   H     H_    0.232930 0.081534 0.412787 0.330721
O15   O     O_3   0.962074 0.187327 0.610423 -0.674194
H15   H     H_    0.944146 0.206677 0.643959 0.331495
O16   O     O_3   0.060188 0.795875 0.440940 -0.636851
H16   H     H_    0.086648 0.765249 0.425173 0.329787
O17   O     O_3   0.296810 0.556668 0.929979 -0.638714
H17   H     H_    0.267491 0.582340 0.911035 0.330471
O18   O     O_3   0.703367 0.443794 0.069187 -0.631459
H18   H     H_    0.733194 0.417291 0.086234 0.330184
O19   O     O_3   0.444687 0.296713 0.928234 -0.642101
H19   H     H_    0.419059 0.267614 0.909288 0.330623
O20   O     O_3   0.559483 0.704185 0.058922 -0.627192
H20   H     H_    0.586122 0.734708 0.074072 0.328283
O21   O     O_3   0.703212 0.443306 0.930113 -0.632802
H21   H     H_    0.732571 0.417543 0.911356 0.328899
O22   O     O_3   0.303106 0.552138 0.094730 -0.641712
H22   H     H_    0.280807 0.574018 0.124155 0.334102
O23   O     O_3   0.554808 0.703116 0.926849 -0.635426
H23   H     H_    0.580529 0.732115 0.907880 0.329696
O24   O     O_3   0.461901 0.310621 0.107314 -0.673071
H24   H     H_    0.440950 0.287784 0.136809 0.331750
O25   O     O_3   0.703419 0.555531 0.069074 -0.631785
H25   H     H_    0.733162 0.582010 0.085831 0.330402
O26   O     O_3   0.297031 0.444712 0.927896 -0.638628
H26   H     H_    0.268063 0.418959 0.908945 0.331153
O27   O     O_3   0.560161 0.295827 0.059425 -0.626558
H27   H     H_    0.586822 0.265244 0.074956 0.328491
O28   O     O_3   0.443308 0.703506 0.930303 -0.641258
H28   H     H_    0.417743 0.732959 0.911393 0.329940
O29   O     O_3   0.300604 0.444371 0.088049 -0.634065
H29   H     H_    0.277128 0.421227 0.115490 0.334581
O30   O     O_3   0.702967 0.555282 0.927887 -0.634533
H30   H     H_    0.731950 0.581103 0.909045 0.329395
O31   O     O_3   0.462981 0.687603 0.109482 -0.675600
H31   H     H_    0.443096 0.709330 0.140553 0.331651
O32   O     O_3   0.556203 0.296626 0.928950 -0.633636
H32   H     H_    0.581883 0.267279 0.910044 0.329254
O33   O     O_3   0.894250 0.743113 0.223172 -0.652724
H33   H     H_    0.914813 0.771877 0.247555 0.322281
O34   O     O_3   0.117193 0.269841 0.751685 -0.647145
H34   H     H_    0.098323 0.243282 0.723921 0.327439
O35   O     O_3   0.338197 0.812831 0.362069 -0.651314
H35   H     H_    0.316894 0.825653 0.396630 0.327317
O36   O     O_3   0.749101 0.098600 0.785645 -0.647372
H36   H     H_    0.779602 0.076209 0.764749 0.320813
O37   O     O_3   0.183443 0.336956 0.358148 -0.646438
H37   H     H_    0.171297 0.316297 0.393247 0.324810
O38   O     O_3   0.882513 0.729442 0.750794 -0.646733
H38   H     H_    0.901366 0.755897 0.722925 0.327494
O39   O     O_3   0.745885 0.101519 0.218033 -0.645858
H39   H     H_    0.775192 0.080060 0.241290 0.321906
O40   O     O_3   0.250758 0.901269 0.785413 -0.647820
H40   H     H_    0.220231 0.923624 0.764508 0.321187
O41   O     O_3   0.099192 0.748862 0.785932 -0.647853
H41   H     H_    0.076746 0.779316 0.764969 0.321225
O42   O     O_3   0.898206 0.253310 0.217352 -0.652550
H42   H     H_    0.919607 0.223836 0.240500 0.321901
O43   O     O_3   0.729745 0.882798 0.750101 -0.646460
H43   H     H_    0.756305 0.901558 0.722298 0.327456
O44   O     O_3   0.337074 0.185401 0.359304 -0.651665
H44   H     H_    0.316334 0.173091 0.394284 0.326225
O45   O     O_3   0.900855 0.250828 0.786238 -0.647380
H45   H     H_    0.923276 0.220360 0.765279 0.321085
O46   O     O_3   0.185873 0.661568 0.360975 -0.646349
H46   H     H_    0.173062 0.682752 0.395627 0.326036
O47   O     O_3   0.270227 0.116765 0.751011 -0.646921
H47   H     H_    0.243640 0.097916 0.723288 0.327572
O48   O     O_3   0.739912 0.894595 0.224860 -0.644759
H48   H     H_    0.768338 0.915415 0.249376 0.323985
O49   O     O_3   0.321342 0.168193 0.840666 -0.647793
H49   H     H_    0.330712 0.186033 0.877951 0.327127
O50   O     O_3   0.683098 0.837020 0.142108 -0.645996
H50   H     H_    0.671225 0.816677 0.106751 0.323883
O51   O     O_3   0.837626 0.313730 0.861118 -0.648165
H51   H     H_    0.814739 0.328191 0.894092 0.324209
O52   O     O_3   0.244883 0.602186 0.280445 -0.645946
H52   H     H_    0.274071 0.580840 0.256960 0.322733
O53   O     O_3   0.678713 0.831613 0.839931 -0.648254
H53   H     H_    0.669392 0.813863 0.877270 0.324861
O54   O     O_3   0.394882 0.243369 0.277488 -0.652426
H54   H     H_    0.415649 0.272349 0.253508 0.322789
O55   O     O_3   0.162452 0.686016 0.860839 -0.647476
H55   H     H_    0.185350 0.671551 0.893808 0.327615
O56   O     O_3   0.838526 0.312888 0.137420 -0.651167
H56   H     H_    0.817100 0.325887 0.102985 0.324820
O57   O     O_3   0.686489 0.161346 0.138049 -0.646297
H57   H     H_    0.673537 0.182724 0.103551 0.323561
O58   O     O_3   0.313914 0.838281 0.860290 -0.647900
H58   H     H_    0.328550 0.815466 0.893266 0.326887
O59   O     O_3   0.240898 0.395184 0.276237 -0.645024
H59   H     H_    0.269549 0.416177 0.252107 0.323988
O60   O     O_3   0.830995 0.678789 0.840647 -0.648204
H60   H     H_    0.813122 0.669664 0.877960 0.324833
O61   O     O_3   0.397487 0.753689 0.281595 -0.652563
H61   H     H_    0.418752 0.724332 0.258201 0.322604
O62   O     O_3   0.685998 0.161663 0.860498 -0.648302
H62   H     H_    0.671405 0.184482 0.893485 0.324250
O63   O     O_3   0.837057 0.685828 0.140515 -0.651473
H63   H     H_    0.816561 0.673831 0.105296 0.325104
O64   O     O_3   0.168797 0.320765 0.841344 -0.647522
H64   H     H_    0.186745 0.330014 0.878594 0.327832

loop_
_geom_bond_atom_site_label_1
_geom_bond_atom_site_label_2
_ccdc_geom_bond_type
C47   C64   T    
C85   C107  A    
O2    H2    S    
C14   N14   A    
C53   C71   S    
N13   Ni1   S    
O47   H47   S    
C91   C126  A    
C106  C119  A    
C86   C126  A    
O63   H63   S    
O1    H1    S    
O32   H32   S    
C25   O25   S    
C85   C125  A    
O62   H62   S    
C100  C116  A    
C93   C124  A    
C29   O29   S    
C14   O14   S    
C92   C125  A    
C59   C77   S    
C87   C127  A    
N29   Ni5   S    
C83   O61   S    
C58   C76   S    
O48   H48   S    
C4    N4    A    
C14   C71   A    
N17   Ni5   S    
O3    H3    S    
O22   H22   S    
C5    N5    A    
C38   C53   T    
C60   C78   S    
O41   H41   S    
O59   H59   S    
C85   O59   S    
C96   C121  A    
C31   N31   A    
C3    N3    A    
C62   C80   S    
C16   N16   A    
C9    O9    S    
C41   C58   T    
O37   H37   S    
C1    N1    A    
C82   O64   S    
C7    C71   A    
N9    Ni2   S    
C15   O15   S    
C24   O24   S    
C56   C66   S    
C98   C114  A    
C8    N8    A    
C28   C73   A    
C44   C59   T    
O52   H52   S    
O7    H7    S    
C45   C62   T    
O35   H35   S    
N31   Ni8   S    
O57   H57   S    
C6    C70   A    
C102  O44   S    
O17   H17   S    
N32   Ni7   S    
C41   C121  S    
C12   O12   S    
N19   N26   A    
C81   O63   S    
C91   O53   S    
C11   N11   A    
C24   N24   A    
C109  C116  A    
C2    N2    A    
N6    N15   A    
N17   N28   A    
C9    N9    A    
C98   O48   S    
C24   C80   A    
N7    N14   A    
O9    H9    S    
N18   N27   A    
O36   H36   S    
N27   Ni7   S    
N5    N16   A    
C4    O4    S    
C96   C98   A    
O38   H38   S    
C23   O23   S    
C5    C69   A    
C90   C127  A    
C12   N12   A    
N26   Ni5   S    
C35   C115  S    
C18   O18   S    
C21   N21   A    
C106  O40   S    
N10   Ni1   S    
C27   C74   A    
O49   H49   S    
C93   C99   A    
C107  C118  A    
C102  C118  A    
C11   C66   A    
C97   O47   S    
C2    O2    S    
C94   C123  A    
N2    Ni2   S    
C96   O50   S    
C21   C77   A    
N18   Ni6   S    
C32   O32   S    
O16   H16   S    
C18   C74   A    
C104  O42   S    
C13   O13   S    
O55   H55   S    
N5    Ni2   S    
C17   C73   A    
O15   H15   S    
C23   C79   A    
C37   C117  S    
C91   C101  A    
N2    N11   A    
C30   O30   S    
C42   C57   T    
C89   O55   S    
C112  C113  A    
C55   C65   S    
C3    O3    S    
C10   O10   S    
N4    Ni4   S    
C27   N27   A    
C86   C108  A    
C109  O35   S    
C27   O27   S    
C8    C72   A    
N22   N31   A    
C7    O7    S    
C46   C61   T    
C25   N25   A    
O20   H20   S    
C103  O41   S    
N23   N30   A    
C81   C111  A    
O42   H42   S    
C22   C78   A    
O28   H28   S    
O21   H21   S    
C45   C125  S    
O64   H64   S    
C4    C68   A    
C110  O36   S    
C48   C63   T    
C29   N29   A    
C63   C73   S    
C95   O49   S    
C18   N18   A    
C33   C50   T    
O19   H19   S    
N22   Ni5   S    
C44   C124  S    
C84   C110  A    
O12   H12   S    
C93   O51   S    
C81   C121  A    
C90   O56   S    
C11   O11   S    
C82   C112  A    
C101  O43   S    
O24   H24   S    
C87   O57   S    
O8    H8    S    
C7    N7    A    
O31   H31   S    
C48   C128  S    
O27   H27   S    
C88   C106  A    
C94   C100  A    
C1    C65   A    
O30   H30   S    
C87   C105  A    
N7    Ni4   S    
O23   H23   S    
O34   H34   S    
C40   C55   T    
C5    O5    S    
C22   O22   S    
C83   C109  A    
O29   H29   S    
N1    Ni1   S    
C105  C120  A    
C99   O45   S    
C92   O54   S    
C17   O17   S    
C36   C51   T    
C105  O39   S    
C16   O16   S    
N19   Ni7   S    
C43   C60   T    
C15   N15   A    
C37   C54   T    
C8    O8    S    
C40   C120  S    
O54   H54   S    
O5    H5    S    
O18   H18   S    
C13   N13   A    
N16   Ni3   S    
O26   H26   S    
N20   Ni8   S    
N25   Ni6   S    
C26   N26   A    
C84   C124  A    
N20   N25   A    
C30   C79   A    
C97   C113  A    
O44   H44   S    
C36   C116  S    
C88   O58   S    
C43   C123  S    
N15   Ni4   S    
O45   H45   S    
N24   Ni7   S    
C42   C122  S    
C31   C78   A    
C28   N28   A    
O33   H33   S    
C30   N30   A    
C15   C70   A    
C23   N23   A    
N24   N29   A    
C34   C49   T    
C64   C74   S    
N23   Ni8   S    
C49   C67   S    
C6    O6    S    
N8    Ni3   S    
C26   O26   S    
C108  C117  A    
C46   C126  S    
C103  C119  A    
C16   C69   A    
O39   H39   S    
N3    N10   A    
C2    C66   A    
C17   N17   A    
N14   Ni2   S    
O40   H40   S    
C95   C97   A    
C86   O60   S    
C47   C127  S    
C13   C72   A    
C92   C102  A    
O6    H6    S    
C34   C114  S    
C112  O34   S    
C10   N10   A    
C12   C65   A    
C82   C122  A    
C33   C113  S    
C20   O20   S    
N6    Ni1   S    
O50   H50   S    
C95   C122  A    
C26   C75   A    
C57   C75   S    
N11   Ni3   S    
O25   H25   S    
C9    C68   A    
C101  C117  A    
O10   H10   S    
C88   C128  A    
O4    H4    S    
C10   C67   A    
C99   C115  A    
C35   C52   T    
O56   H56   S    
C20   N20   A    
O43   H43   S    
N1    N12   A    
C3    C67   A    
C61   C79   S    
C28   O28   S    
C39   C119  S    
C94   O52   S    
C31   O31   S    
C108  O38   S    
C19   C75   A    
C111  O33   S    
N8    N13   A    
C21   O21   S    
C111  C114  A    
C20   C76   A    
O11   H11   S    
C32   C77   A    
N21   N32   A    
C19   N19   A    
C100  O46   S    
C32   N32   A    
C52   C70   S    
O14   H14   S    
C38   C118  S    
O60   H60   S    
N3    Ni3   S    
C54   C72   S    
C22   N22   A    
C25   C76   A    
C6    N6    A    
O13   H13   S    
N30   Ni6   S    
C1    O1    S    
O58   H58   S    
C19   O19   S    
C39   C56   T    
N28   Ni8   S    
O61   H61   S    
C107  O37   S    
N21   Ni6   S    
C51   C69   S    
C90   C104  A    
C83   C123  A    
N4    N9    A    
O51   H51   S    
C29   C80   A    
C50   C68   S    
C110  C115  A    
N12   Ni4   S    
C89   C103  A    
O46   H46   S    
C84   O62   S    
C104  C120  A    
C89   C128  A    
O53   H53   S    
