data_mof_unit_48391.cif
_audit_creation_date              2012-12-11T15:32:08-0500
_audit_creation_method            fapswitch 2.2
_symmetry_space_group_name_H-M    P1
_symmetry_Int_Tables_number       1
_space_group_crystal_system       triclinic
_cell_length_a                    13.539666
_cell_length_b                    13.586276
_cell_length_c                    27.617544
_cell_angle_alpha                 90.654631
_cell_angle_beta                  90.32584
_cell_angle_gamma                 120.000635
_cell_volume                      4399.01365798

loop_
_atom_site_label
_atom_site_type_symbol
_atom_type_description
_atom_site_fract_x
_atom_site_fract_y
_atom_site_fract_z
_atom_type_partial_charge
Br1   Br    Br    0.804648 0.206523 0.630687 -0.500921
Br2   Br    Br    0.570471 0.522548 0.683533 -0.520415
Br3   Br    Br    0.302987 0.115510 0.622551 -0.456181
Br4   Br    Br    0.467173 0.558772 0.866952 -0.543454
Br5   Br    Br    0.875528 0.848531 0.702682 -0.452757
C1    C     C_R   0.619449 0.898014 0.431313 0.540568
C2    C     C_R   0.258945 0.929537 0.259597 -0.105524
C3    C     C_R   0.241543 0.919792 0.209406 -0.108738
C4    C     C_R   0.599992 0.219026 0.431471 0.532265
C5    C     C_R   0.064105 0.742766 0.219929 -0.106755
C6    C     C_R   0.081471 0.752552 0.270068 -0.112410
C7    C     C_R   0.179048 0.845885 0.289979 0.034007
C8    C     C_R   0.144354 0.825931 0.189502 0.030592
C9    C     C_1   0.124471 0.813514 0.138057 -0.054053
C10   C     C_1   0.202172 0.852836 0.341107 -0.067083
C11   C     C_1   0.097751 0.795143 0.095863 -0.007467
C12   C     C_R   0.573460 0.276465 0.211065 0.288792
C13   C     C_1   0.633921 0.865429 0.383542 -0.008713
C14   C     C_R   0.580107 0.725737 0.267006 0.292538
C15   C     C_R   0.588338 0.715767 0.216558 -0.096725
C16   C     C_R   0.278927 0.878445 0.430676 0.537409
C17   C     C_R   0.721974 0.917947 0.212291 -0.119336
C18   C     C_R   0.717178 0.927861 0.262460 -0.158203
C19   C     C_R   0.648058 0.832008 0.290027 0.047364
C20   C     C_R   0.658018 0.811939 0.189238 -0.004598
C21   C     C_1   0.672774 0.800234 0.138369 -0.051990
C22   C     C_1   0.641675 0.846464 0.341435 -0.017677
C23   C     C_R   0.564587 0.260775 0.261217 -0.081839
C24   C     C_1   0.691652 0.788830 0.096716 -0.008399
C25   C     C_R   0.650283 0.298485 0.612017 -0.010612
C26   C     C_R   0.733820 0.296613 0.642555 0.132451
C27   C     C_R   0.762564 0.356117 0.686499 -0.128357
C28   C     C_R   0.620010 0.901309 0.569046 0.550888
C29   C     C_R   0.709758 0.417326 0.701082 0.006885
C30   C     C_R   0.635771 0.429023 0.668734 0.171187
C31   C     C_R   0.606389 0.369507 0.624668 -0.109496
C32   C     C_R   0.822232 0.504341 0.777141 -0.098678
C33   C     C_R   0.826424 0.513809 0.827565 -0.133558
C34   C     C_R   0.661721 0.314487 0.291178 -0.001968
C35   C     C_R   0.619851 0.412957 0.829399 -0.100599
C36   C     C_R   0.615661 0.402309 0.779253 -0.076206
C37   C     C_R   0.716606 0.447895 0.752710 0.070499
C38   C     C_R   0.725288 0.467620 0.854121 0.015213
C39   C     C_R   0.224882 0.867351 0.615757 0.011543
C40   C     C_R   0.602060 0.222955 0.569090 0.564304
C41   C     C_R   0.249615 0.963809 0.645004 0.119498
C42   C     C_R   0.234714 0.952341 0.694415 -0.047061
C43   C     C_R   0.181034 0.845571 0.715302 -0.008273
C44   C     C_R   0.143016 0.748187 0.685873 -0.096455
C45   C     C_R   0.681814 0.342592 0.190542 0.040829
C46   C     C_R   0.164635 0.758180 0.636272 0.228169
C47   C     C_R   0.180410 0.757774 0.793400 -0.177586
C48   C     C_R   0.151192 0.737802 0.841818 -0.150100
C49   C     C_R   0.094901 0.881360 0.840766 -0.106817
C50   C     C_R   0.125478 0.903621 0.792323 0.293621
C51   C     C_R   0.162600 0.836282 0.767766 0.046960
C52   C     C_R   0.279697 0.882297 0.568412 0.554568
C53   C     C_R   0.103668 0.796129 0.865078 -0.025710
C54   C     C_R   0.631023 0.867340 0.617430 0.018270
C55   C     C_R   0.536782 0.829841 0.647940 -0.099738
C56   C     C_1   0.692673 0.364314 0.139335 -0.030770
C57   C     C_R   0.544864 0.805648 0.695677 -0.127703
C58   C     C_R   0.646674 0.816891 0.713480 0.061693
C59   C     C_R   0.739815 0.848152 0.682309 0.204698
C60   C     C_R   0.732291 0.875768 0.634421 -0.064194
C61   C     C_R   0.739233 0.896789 0.792235 -0.098425
C62   C     C_R   0.749711 0.886515 0.841479 -0.147385
C63   C     C_R   0.584747 0.695495 0.838459 0.146696
C64   C     C_1   0.631738 0.266430 0.384181 -0.009312
C65   C     C_R   0.575448 0.706774 0.788814 -0.063750
C66   C     C_R   0.655936 0.804930 0.765392 0.034242
C67   C     C_1   0.649674 0.293662 0.342366 -0.051847
C68   C     C_R   0.677790 0.783535 0.864696 0.035698
C69   C     C_R   0.049959 0.761595 0.048111 0.548632
C70   C     C_R   0.714393 0.435791 0.049721 0.551867
C71   C     C_R   0.723441 0.771077 0.049427 0.548492
C72   C     C_R   0.045145 0.756364 0.910989 0.534652
C73   C     C_R   0.730192 0.484872 0.906907 0.566240
C74   C     C_R   0.716435 0.765197 0.911838 0.558545
C75   C     C_R   0.769130 0.381907 0.270824 -0.125785
C76   C     C_R   0.779094 0.395815 0.220626 -0.160600
C77   C     C_3   0.157176 0.087968 0.787584 0.008320
C78   C     C_1   0.701617 0.390576 0.097376 -0.012705
C79   C     C_3   0.068792 0.122304 0.800512 -0.253883
C80   C     C_3   0.125501 0.244082 0.820277 -0.460382
C81   C     C_3   0.027592 0.631421 0.584999 0.017734
C82   C     C_3   0.984928 0.518820 0.557541 -0.241474
C83   C     C_3   0.876243 0.486465 0.528587 -0.468756
C84   C     C_3   0.433467 0.294061 0.172002 0.009462
C85   C     C_3   0.344646 0.280575 0.209474 -0.273795
C86   C     C_3   0.283951 0.344905 0.194693 -0.479843
C87   C     C_3   0.396855 0.588326 0.285103 -0.002418
C88   C     C_3   0.350154 0.644179 0.319519 -0.252158
C89   C     C_1   0.230464 0.861618 0.383049 -0.019324
C90   C     C_3   0.221376 0.591530 0.313136 -0.476749
Cr1   Cr    Cr6+3 0.417720 0.831920 0.499820 1.046975
Cr2   Cr    Cr6+3 0.668190 0.085770 0.500360 1.064594
Cr3   Cr    Cr6+3 0.414060 0.082260 0.499840 1.079983
Cr4   Cr    Cr6+3 0.908000 0.821090 0.979770 1.017549
Cr5   Cr    Cr6+3 0.912420 0.571130 0.979880 1.029850
Cr6   Cr    Cr6+3 0.657970 0.566940 0.980940 1.068532
H1    H     H_    0.844967 0.422967 0.293625 0.116794
H2    H     H_    0.862584 0.448627 0.205274 0.111155
H3    H     H_    0.545856 0.375880 0.600974 0.186911
H4    H     H_    0.213243 0.708924 0.775458 0.124522
H5    H     H_    0.159495 0.672192 0.860143 0.156111
H6    H     H_    0.266899 0.028400 0.716625 0.163246
H7    H     H_    0.056093 0.925264 0.858120 0.137155
H8    H     H_    0.097715 0.664264 0.701358 0.130914
H9    H     H_    0.457964 0.823993 0.635404 0.148957
H10   H     H_    0.797533 0.975743 0.774836 0.142760
H11   H     H_    0.818729 0.957641 0.860820 0.131726
H12   H     H_    0.541698 0.632973 0.198931 0.103580
H13   H     H_    0.472913 0.782221 0.719227 0.116393
H14   H     H_    0.506323 0.638290 0.768305 0.177088
H15   H     H_    0.804218 0.902509 0.610565 0.154655
H16   H     H_    0.481609 0.206853 0.276791 0.108838
H17   H     H_    0.335355 0.001354 0.274698 0.114722
H18   H     H_    0.303889 0.984620 0.186237 0.159045
H19   H     H_    0.988430 0.669995 0.204825 0.108795
H20   H     H_    0.019886 0.686782 0.293151 0.109377
H21   H     H_    0.214581 0.147363 0.759881 0.169045
H22   H     H_    0.211965 0.099242 0.819933 0.101944
H23   H     H_    0.777319 0.992559 0.191599 0.128669
H24   H     H_    0.017522 0.115062 0.767688 0.209198
H25   H     H_    0.010436 0.064068 0.828200 0.154105
H26   H     H_    0.175556 0.252792 0.853673 0.170648
H27   H     H_    0.059062 0.266259 0.829229 0.153682
H28   H     H_    0.182965 0.304332 0.792823 0.182397
H29   H     H_    0.040319 0.698141 0.558617 0.136586
H30   H     H_    0.961269 0.620893 0.611563 0.149910
H31   H     H_    0.051849 0.525970 0.532329 0.187412
H32   H     H_    0.967497 0.450740 0.583772 0.211603
H33   H     H_    0.809029 0.482099 0.552784 0.153766
H34   H     H_    0.767669 0.010497 0.279835 0.122332
H35   H     H_    0.844569 0.401996 0.510865 0.170437
H36   H     H_    0.893717 0.550121 0.500149 0.147626
H37   H     H_    0.391296 0.269138 0.135769 0.165944
H38   H     H_    0.501142 0.385331 0.169569 0.127653
H39   H     H_    0.280503 0.188992 0.213171 0.177477
H40   H     H_    0.387178 0.314145 0.245199 0.161491
H41   H     H_    0.222883 0.336661 0.223204 0.141760
H42   H     H_    0.235970 0.309365 0.160155 0.157183
H43   H     H_    0.346732 0.436441 0.190093 0.140841
H44   H     H_    0.351571 0.495515 0.291852 0.156971
H45   H     H_    0.901086 0.538351 0.757259 0.118165
H46   H     H_    0.377000 0.598121 0.246823 0.111846
H47   H     H_    0.369677 0.633317 0.357577 0.190590
H48   H     H_    0.391734 0.736645 0.312252 0.164401
H49   H     H_    0.200385 0.605978 0.275894 0.153951
H50   H     H_    0.189497 0.631168 0.339440 0.162744
H51   H     H_    0.177601 0.498742 0.319808 0.144551
H52   H     H_    0.908520 0.557117 0.845748 0.138343
H53   H     H_    0.819878 0.346909 0.711163 0.148095
H54   H     H_    0.533287 0.354468 0.761296 0.150479
H55   H     H_    0.540220 0.376226 0.848754 0.168669
O1    O     O_R   0.302900 0.805360 0.446400 -0.516114
O2    O     O_R   0.638120 0.455970 0.034270 -0.503988
O3    O     O_R   0.667540 0.672320 0.030160 -0.492434
O4    O     O_R   0.522090 0.841370 0.450730 -0.497310
O5    O     O_R   0.814460 0.840990 0.926980 -0.532114
O6    O     O_R   0.001710 0.811400 0.930110 -0.507131
O7    O     O_R   0.023410 0.659800 0.926210 -0.526346
O8    O     O_R   0.806940 0.473170 0.931090 -0.499770
O9    O     O_R   0.633420 0.451310 0.927930 -0.488669
O10   O     O_R   0.663190 0.668000 0.931580 -0.461032
O11   O     O_3   0.826130 0.653050 0.980200 -0.278169
O12   O     O_R   0.657980 0.180990 0.549630 -0.460913
O13   O     O_R   0.693280 0.995650 0.447220 -0.505475
O14   O     O_R   0.657260 0.178740 0.451050 -0.505262
O15   O     O_R   0.502640 0.195380 0.446850 -0.502973
O16   O     O_R   0.319630 0.976590 0.450330 -0.490736
O17   O     O_R   0.303680 0.807790 0.552740 -0.476710
O18   O     O_R   0.522820 0.843620 0.549310 -0.502467
O19   O     O_R   0.694060 0.998080 0.553560 -0.461570
O20   O     O_3   0.101252 0.976764 0.766870 -0.524716
O21   O     O_3   0.131418 0.660571 0.608884 -0.545080
O22   O     O_3   0.476546 0.220507 0.182162 -0.587466
O23   O     O_R   0.503420 0.197810 0.553190 -0.475059
O24   O     O_3   0.514356 0.630607 0.294509 -0.567652
O25   O     O_R   0.320350 0.978840 0.548910 -0.458541
O26   O     O_3   0.499990 0.999990 0.500010 -0.265251
O27   O     O_R   0.819150 0.845650 0.033320 -0.504018
O28   O     O_R   0.006060 0.815720 0.028680 -0.491022
O29   O     O_R   0.028100 0.664460 0.032550 -0.502842
O30   O     O_R   0.811290 0.477490 0.029660 -0.489594

loop_
_geom_bond_atom_site_label_1
_geom_bond_atom_site_label_2
_ccdc_geom_bond_type
C12   O22   S    
C72   O7    A    
C50   C51   A    
C71   O3    A    
C73   O8    A    
C3    C8    A    
Cr2   O19   S    
C36   C37   A    
C82   H32   S    
C25   C40   S    
C88   H48   S    
C14   C15   A    
C29   C37   S    
C19   C22   S    
C82   C83   S    
C10   C89   T    
C52   O25   A    
Cr2   O26   S    
C24   C71   S    
C79   H24   S    
C38   C73   S    
C32   C33   A    
Cr1   O18   S    
C14   C19   A    
Cr5   O11   S    
C11   C69   S    
C4    C64   S    
C57   H13   S    
C23   H16   S    
C76   H2    S    
C15   H12   S    
C81   H30   S    
C69   O28   A    
C15   C20   A    
C49   C50   A    
Br1   C26   S    
Cr2   O13   S    
C88   H47   S    
C55   C57   A    
C29   C30   A    
C32   C37   A    
Cr6   O11   S    
C87   O24   S    
C53   C72   S    
C80   H28   S    
Cr4   O5    S    
C48   H5    S    
C35   C38   A    
C30   C31   A    
C44   C46   A    
C17   C20   A    
C34   C67   S    
C65   C66   A    
C62   C68   A    
C32   H45   S    
C71   O27   A    
Cr4   O27   S    
C69   O29   A    
Cr3   O16   S    
Cr1   O1    S    
C54   C55   A    
C28   C54   S    
C8    C9    S    
C87   H46   S    
C2    H17   S    
C4    O14   A    
C6    H20   S    
C74   O5    A    
C39   C41   A    
C86   H42   S    
C79   H25   S    
C2    C7    A    
C1    C13   S    
Cr1   O17   S    
Cr3   O23   S    
C2    C3    A    
C55   H9    S    
C79   C80   S    
C83   H35   S    
C56   C78   T    
Cr1   O26   S    
Br4   C63   S    
Br2   C30   S    
C81   C82   S    
C81   H29   S    
C23   C34   A    
C84   H38   S    
C20   C21   S    
C81   O21   S    
Cr2   O14   S    
Br5   C59   S    
C75   H1    S    
C27   C29   A    
C82   H31   S    
Cr3   O26   S    
C64   C67   T    
Cr5   O30   S    
C25   C31   A    
C61   C66   A    
C57   C58   A    
Cr4   O6    S    
C1    O4    A    
C42   C43   A    
C7    C10   S    
C39   C52   S    
C6    C7    A    
C68   C74   S    
Cr5   O8    S    
C90   H49   S    
C84   O22   S    
Cr6   O9    S    
C28   O18   A    
Cr4   O28   S    
C52   O17   A    
Cr3   O15   S    
C39   C46   A    
C63   C65   A    
C35   C36   A    
Cr1   O4    S    
C58   C66   S    
Cr6   O2    S    
C42   H6    S    
C61   H10   S    
C60   H15   S    
C9    C11   T    
C80   H26   S    
C70   O30   A    
C90   H50   S    
C27   H53   S    
C16   O16   A    
C77   H22   S    
C47   C48   A    
C70   O2    A    
C44   H8    S    
C86   H43   S    
C49   C53   A    
C72   O6    A    
C43   C51   S    
C41   C42   A    
C43   C44   A    
C73   O9    A    
C87   H44   S    
C12   C23   A    
C16   O1    A    
C26   C27   A    
C35   H55   S    
C13   C22   T    
C77   O20   S    
C75   C76   A    
C5    C8    A    
C12   C45   A    
C47   H4    S    
C85   H39   S    
C48   C53   A    
C17   H23   S    
Cr4   O11   S    
C49   H7    S    
C65   H14   S    
Cr2   O12   S    
Br3   C41   S    
C77   C79   S    
C18   H34   S    
C31   H3    S    
C59   C60   A    
C86   H41   S    
Cr3   O25   S    
Cr5   O29   S    
C63   C68   A    
C83   H33   S    
C33   C38   A    
C34   C75   A    
C3    H18   S    
C70   C78   S    
C85   C86   S    
C25   C26   A    
C87   C88   S    
C61   C62   A    
Cr5   O7    S    
C74   O10   A    
Cr6   O10   S    
C28   O19   A    
C40   O12   A    
C83   H36   S    
C85   H40   S    
C4    O15   A    
C5    C6    A    
C40   O23   A    
C18   C19   A    
C58   C59   A    
C62   H11   S    
Cr6   O3    S    
C21   C24   T    
C88   C90   S    
C84   H37   S    
C16   C89   S    
C45   C56   S    
C17   C18   A    
C50   O20   S    
C80   H27   S    
C90   H51   S    
C33   H52   S    
C84   C85   S    
C46   O21   S    
C14   O24   S    
C77   H21   S    
C5    H19   S    
C54   C60   A    
C47   C51   A    
C45   C76   A    
C36   H54   S    
C1    O13   A    
