data_mof_unit_39432.cif
_audit_creation_date              2013-03-05T15:56:35-0500
_audit_creation_method            fapswitch 2.2
_symmetry_space_group_name_H-M    P1
_symmetry_Int_Tables_number       1
_space_group_crystal_system       triclinic
_cell_length_a                    6.931824
_cell_length_b                    14.524124
_cell_length_c                    15.99748
_cell_angle_alpha                 90.438786
_cell_angle_beta                  89.872985
_cell_angle_gamma                 89.775126
_cell_volume                      1610.54133077

loop_
_atom_site_label
_atom_site_type_symbol
_atom_site_description
_atom_site_fract_x
_atom_site_fract_y
_atom_site_fract_z
_atom_type_partial_charge
O1    O     O_R   0.361600 0.167310 0.164620 -0.585683
O2    O     O_R   0.638400 0.832690 0.835380 -0.585680
O3    O     O_R   0.691080 0.157570 0.338750 -0.572762
O4    O     O_R   0.308920 0.842430 0.661250 -0.572763
O5    O     O_R   0.861410 0.336420 0.339360 -0.593348
O6    O     O_R   0.138590 0.663580 0.660640 -0.593348
C1    C     C_R   0.522872 0.134328 0.366675 0.989333
C2    C     C_R   0.477128 0.865672 0.633325 0.989330
O7    O     O_R   0.691320 0.156280 0.165240 -0.570558
O8    O     O_R   0.308680 0.843720 0.834760 -0.570558
O9    O     O_R   0.861640 0.335130 0.164600 -0.576449
O10   O     O_R   0.138360 0.664870 0.835400 -0.576441
C3    C     C_R   0.523326 0.133070 0.136716 0.996367
C4    C     C_R   0.476674 0.866930 0.863284 0.996374
O11   O     O_R   0.361370 0.168600 0.339370 -0.588173
O12   O     O_R   0.638630 0.831400 0.660630 -0.588175
O13   O     O_3   0.527990 0.310540 0.251980 -0.250823
O14   O     O_3   0.472010 0.689460 0.748020 -0.250806
V1    V     V_3+5 0.802830 0.240980 0.251990 1.313698
V2    V     V_3+5 0.197170 0.759020 0.748010 1.313702
O15   O     O_R   0.191360 0.346160 0.165220 -0.578165
O16   O     O_R   0.808640 0.653840 0.834780 -0.578134
C5    C     C_R   0.022814 0.368910 0.136697 1.020965
C6    C     C_R   0.977185 0.631088 0.863303 1.020952
O17   O     O_R   0.191130 0.347440 0.338740 -0.603591
O18   O     O_R   0.808870 0.652560 0.661260 -0.603599
C7    C     C_R   0.021987 0.369802 0.367198 1.027027
C8    C     C_R   0.978013 0.630198 0.632802 1.027009
V3    V     V_3+5 0.302840 0.262750 0.251990 1.290377
V4    V     V_3+5 0.697160 0.737250 0.748010 1.290382
O19   O     O_3   0.027820 0.193180 0.251990 -0.231717
O20   O     O_3   0.972180 0.806820 0.748010 -0.231718
C9    C     C_3   0.912847 0.420689 0.522232 -0.230450
C10   C     C_3   0.087153 0.579311 0.477767 -0.230430
C11   C     C_3   0.086747 0.465943 0.565727 0.415252
C12   C     C_3   0.913253 0.534057 0.434272 0.415260
H1    H     H_    0.843792 0.355284 0.541367 0.183233
H2    H     H_    0.156208 0.644717 0.458632 0.183235
C13   C     C_3   0.988810 0.560677 0.563008 -0.271244
C14   C     C_3   0.011189 0.439323 0.436991 -0.271239
C15   C     C_3   0.812518 0.516996 0.518598 -0.217894
C16   C     C_3   0.187482 0.483005 0.481402 -0.217880
H3    H     H_    0.658425 0.531635 0.532577 0.165460
H4    H     H_    0.341574 0.468366 0.467422 0.165460
C17   C     C_R   0.847895 0.492642 0.942313 0.392994
C18   C     C_R   0.152095 0.507354 0.057688 0.392999
C19   C     C_R   0.863500 0.430398 0.008698 -0.147253
C20   C     C_R   0.136498 0.569596 0.991301 -0.147297
H5    H     H_    0.757402 0.376126 0.014037 0.175016
H6    H     H_    0.242597 0.623868 0.985964 0.175002
C21   C     C_R   0.013937 0.436598 0.067162 -0.336278
C22   C     C_R   0.986057 0.563398 0.932837 -0.336267
C23   C     C_R   0.654733 0.994499 0.443088 0.383416
C24   C     C_R   0.345267 0.005501 0.556911 0.383417
C25   C     C_R   0.637575 0.930256 0.507583 -0.142627
C26   C     C_R   0.362425 0.069744 0.492417 -0.142627
H7    H     H_    0.744715 0.875978 0.512237 0.182316
H8    H     H_    0.255284 0.124021 0.487763 0.182315
C27   C     C_R   0.484984 0.934673 0.565259 -0.347113
C28   C     C_R   0.515016 0.065327 0.434740 -0.347114
C29   C     C_R   0.655133 0.993930 0.056358 0.384847
C30   C     C_R   0.344867 0.006070 0.943642 0.384847
C31   C     C_R   0.637512 0.930464 0.990267 -0.146273
C32   C     C_R   0.362488 0.069536 0.009733 -0.146265
H9    H     H_    0.744730 0.876314 0.983999 0.180356
H10   H     H_    0.255270 0.123686 0.016001 0.180356
C33   C     C_R   0.484587 0.935424 0.933022 -0.347106
C34   C     C_R   0.515413 0.064576 0.066978 -0.347102
N1    N     N_R   0.183695 0.425481 0.637447 0.245136
O21   O     O_R   0.264028 0.344738 0.630301 -0.334109
O22   O     O_R   0.186941 0.468279 0.709116 -0.358221
N2    N     N_R   0.816306 0.574519 0.362552 0.245140
O23   O     O_R   0.735992 0.655268 0.369695 -0.334098
O24   O     O_R   0.813041 0.531718 0.290885 -0.358188
N3    N     N_R   0.694522 0.480584 0.883612 0.239185
O25   O     O_R   0.691303 0.407157 0.836586 -0.318396
O26   O     O_R   0.539244 0.530606 0.890664 -0.363053
N4    N     N_R   0.305447 0.519414 0.116398 0.239192
O27   O     O_R   0.308484 0.592769 0.163517 -0.318381
O28   O     O_R   0.460815 0.469463 0.109305 -0.363071
N5    N     N_R   0.811711 0.984379 0.385428 0.239334
O29   O     O_R   0.960112 0.038421 0.392090 -0.374205
O30   O     O_R   0.829219 0.908173 0.342812 -0.298251
N6    N     N_R   0.188290 0.015621 0.614573 0.239334
O31   O     O_R   0.039887 0.961581 0.607910 -0.374206
O32   O     O_R   0.170787 0.091826 0.657190 -0.298253
N7    N     N_R   0.812669 0.983183 0.113205 0.239850
O33   O     O_R   0.832653 0.905894 0.152851 -0.307082
O34   O     O_R   0.959378 0.038421 0.108307 -0.373390
N8    N     N_R   0.187330 0.016817 0.886795 0.239850
O35   O     O_R   0.167345 0.094106 0.847150 -0.307076
O36   O     O_R   0.040622 0.961578 0.891693 -0.373391

loop_
_geom_bond_atom_site_label_1
_geom_bond_atom_site_label_2
_geom_bond_distance
_ccdc_geom_bond_type
C6    C22   1.491406 S    
N7    O33   1.300624 A    
C31   H9    1.083912 S    
C25   C27   1.403027 A    
O13   V3    1.710577 S    
C10   C16   1.561212 S    
O4    C2    1.294661 A    
V1    O19   1.704644 S    
C24   N6    1.431347 S    
N5    O29   1.300454 A    
C13   C15   1.550367 S    
O9    V1    2.005413 S    
C30   C33   1.417222 A    
C32   C34   1.404362 A    
N6    O32   1.300609 A    
O3    C1    1.294660 A    
C2    C27   1.486562 S    
N4    O28   1.300456 A    
O12   V4    2.003987 S    
C23   N5    1.431347 S    
N1    O22   1.300272 A    
C11   C16   1.539832 S    
O7    C3    1.296541 A    
C30   C32   1.403210 A    
C29   N7    1.431477 S    
C9    C11   1.540188 S    
O5    C7    1.294407 A    
N8    O36   1.300396 A    
O7    V1    2.005708 S    
O6    C8    1.294408 A    
O8    V2    2.005708 S    
C4    C33   1.490299 S    
O3    V1    2.005598 S    
O14   V4    1.710578 S    
C14   C16   1.550367 S    
C10   C12   1.540188 S    
C17   C19   1.404016 A    
C2    O12   1.301148 A    
C15   H3    1.110217 S    
C12   C15   1.539831 S    
C16   H4    1.110217 S    
N5    O30   1.300609 A    
C23   C28   1.417365 A    
O11   V3    2.003989 S    
C24   C26   1.401552 A    
C24   C27   1.417364 A    
C23   C25   1.401552 A    
O17   V3    2.000048 S    
C31   C33   1.404363 A    
C9    C14   1.549339 S    
C10   C13   1.549340 S    
C12   C14   1.532866 S    
N6    O31   1.300452 A    
N2    O24   1.300271 A    
O8    C4    1.296541 A    
C18   N4    1.430438 S    
N4    O27   1.300652 A    
C19   C21   1.405021 A    
C1    O11   1.301149 A    
C8    C13   1.501183 S    
O15   V3    2.003688 S    
C18   C21   1.416223 A    
C9    H1    1.110243 S    
C26   C28   1.403029 A    
C32   H10   1.083912 S    
C11   C13   1.532868 S    
N3    O25   1.300685 A    
C5    C21   1.491393 S    
C7    C14   1.501183 S    
O10   V2    2.005415 S    
O1    V3    2.001083 S    
C20   H6    1.083893 S    
N3    O26   1.300456 A    
O18   V4    2.000047 S    
O15   C5    1.297703 A    
O17   C7    1.296074 A    
O16   C6    1.297698 A    
O1    C3    1.301290 A    
C1    C28   1.486563 S    
V2    O20   1.704644 S    
O16   V4    2.003691 S    
C10   H2    1.110242 S    
C29   C31   1.403209 A    
N2    O23   1.300387 A    
O5    V1    2.004299 S    
C19   H5    1.083891 S    
O6    V2    2.004299 S    
O10   C6    1.301405 A    
O18   C8    1.296074 A    
C17   C22   1.416251 A    
O2    V4    2.001086 S    
C17   N3    1.430445 S    
C9    C15   1.561213 S    
C25   H7    1.084032 S    
V3    O19   2.161121 S    
V4    O20   2.161119 S    
C29   C34   1.417222 A    
N8    O35   1.300625 A    
C30   N8    1.431476 S    
O9    C5    1.301394 A    
O13   V1    2.152943 S    
C26   H8    1.084032 S    
O14   V2    2.152944 S    
N1    O21   1.300376 A    
O2    C4    1.301289 A    
O4    V2    2.005595 S    
C18   C20   1.404018 A    
C20   C22   1.405038 A    
C11   N1    1.457406 S    
N7    O34   1.300397 A    
C12   N2    1.457401 S    
C3    C34   1.490299 S    
