data_mof_unit_32617.cif
_audit_creation_date              2012-12-11T14:43:31-0500
_audit_creation_method            fapswitch 2.2
_symmetry_space_group_name_H-M    P1
_symmetry_Int_Tables_number       1
_space_group_crystal_system       triclinic
_cell_length_a                    20.913025
_cell_length_b                    7.082626
_cell_length_c                    16.477791
_cell_angle_alpha                 89.972108
_cell_angle_beta                  92.999212
_cell_angle_gamma                 90.001657
_cell_volume                      2437.33274899

loop_
_atom_site_label
_atom_site_type_symbol
_atom_type_description
_atom_site_fract_x
_atom_site_fract_y
_atom_site_fract_z
_atom_type_partial_charge
O1    O     O_R   0.564840 0.505290 0.579830 -0.539011
O2    O     O_R   0.435160 0.005290 0.420170 -0.537978
O3    O     O_R   0.556720 0.179930 0.409350 -0.542861
O4    O     O_R   0.443280 0.679930 0.590650 -0.542551
C1    C     C_R   0.571286 0.345114 0.382164 0.703141
C2    C     C_R   0.428810 0.845064 0.617940 0.701773
O5    O     O_R   0.572280 0.175810 0.578530 -0.542917
O6    O     O_R   0.427720 0.675810 0.421470 -0.542666
O7    O     O_R   0.450830 0.001920 0.590540 -0.532161
O8    O     O_R   0.549170 0.501920 0.409460 -0.532304
C3    C     C_R   0.588991 0.345367 0.606385 0.697779
C4    C     C_R   0.410949 0.845409 0.393695 0.697851
O9    O     O_3   0.460130 0.338030 0.503750 -0.369650
O10   O     O_3   0.539870 0.838030 0.496250 -0.371113
V1    V     V_3+5 0.507400 0.064560 0.499310 1.428635
V2    V     V_3+5 0.492600 0.564560 0.500690 1.429510
C5    C     C_R   0.140226 0.899328 0.173367 -0.151686
C6    C     C_R   0.859781 0.400064 0.826576 -0.150608
C7    C     C_R   0.357808 0.867464 0.330616 -0.123823
C8    C     C_R   0.642097 0.367430 0.669511 -0.122682
C9    C     C_R   0.307596 0.065227 0.222330 0.477111
C10   C     C_R   0.692073 0.564455 0.778168 0.472576
C11   C     C_R   0.360920 0.014951 0.274028 -0.239909
C12   C     C_R   0.638808 0.514228 0.726360 -0.244377
C13   C     C_R   0.301357 0.762306 0.332801 -0.255095
C14   C     C_R   0.698759 0.263481 0.666957 -0.260832
C15   C     C_R   0.247366 0.804710 0.280046 0.007999
C16   C     C_R   0.752807 0.306680 0.719455 0.001970
C17   C     C_R   0.250704 0.958209 0.224705 0.067148
C18   C     C_R   0.749162 0.458480 0.775477 0.059940
C19   C     C_R   0.197255 0.002563 0.171916 -0.095426
C20   C     C_R   0.802549 0.502369 0.828448 -0.098481
C21   C     C_R   0.135354 0.755148 0.232608 -0.073526
C22   C     C_R   0.864985 0.258059 0.766491 -0.074838
C23   C     C_R   0.189190 0.702845 0.283814 -0.057541
C24   C     C_R   0.811308 0.207366 0.714656 -0.066123
H1    H     H_    0.200495 0.114028 0.127470 0.178599
H2    H     H_    0.799082 0.612540 0.873392 0.179804
H3    H     H_    0.405299 0.092706 0.271100 0.124416
H4    H     H_    0.594332 0.591403 0.729468 0.125815
H5    H     H_    0.299307 0.653534 0.378627 0.156894
H6    H     H_    0.700930 0.154927 0.621089 0.152631
C25   C     C_R   0.384765 0.843633 0.835107 -0.092604
C26   C     C_R   0.615308 0.343996 0.165018 -0.092866
H7    H     H_    0.469849 0.806449 0.770613 0.119478
H8    H     H_    0.530169 0.307888 0.229500 0.119519
H9    H     H_    0.411816 0.834658 0.892704 0.158985
H10   H     H_    0.588234 0.335579 0.107425 0.158970
C27   C     C_R   0.387702 0.852078 0.688242 -0.122505
C28   C     C_R   0.612398 0.352082 0.311868 -0.122465
C29   C     C_R   0.081970 0.837164 0.740712 -0.208041
C30   C     C_R   0.918151 0.336493 0.259384 -0.211191
C31   C     C_R   0.115711 0.762365 0.678249 -0.122923
C32   C     C_R   0.884442 0.260948 0.321755 -0.118425
C33   C     C_R   0.182329 0.748539 0.685489 0.055707
C34   C     C_R   0.817826 0.246659 0.314484 0.051186
C35   C     C_R   0.216510 0.840317 0.751318 -0.007560
C36   C     C_R   0.783612 0.339005 0.248761 -0.007046
C37   C     C_R   0.181844 0.898856 0.819607 -0.048103
C38   C     C_R   0.818261 0.398166 0.180517 -0.047716
C39   C     C_R   0.284609 0.859952 0.754000 0.037266
C40   C     C_R   0.715515 0.358848 0.246116 0.037047
C41   C     C_R   0.317965 0.870291 0.830691 -0.059866
C42   C     C_R   0.682142 0.369865 0.169438 -0.060108
C43   C     C_R   0.283679 0.909097 0.900569 -0.104313
C44   C     C_R   0.716433 0.408744 0.099568 -0.104424
C45   C     C_R   0.217173 0.944598 0.892784 0.345963
C46   C     C_R   0.782927 0.444254 0.107366 0.345457
C47   C     C_R   0.319546 0.875567 0.682128 0.432024
C48   C     C_R   0.680605 0.374350 0.318003 0.433854
C49   C     C_R   0.418478 0.828061 0.764877 -0.213743
C50   C     C_R   0.581575 0.328763 0.235237 -0.214258
C51   C     C_R   0.113178 0.898419 0.813122 -0.100723
C52   C     C_R   0.886921 0.398021 0.186997 -0.099664
H11   H     H_    0.030436 0.827513 0.735526 0.189408
H12   H     H_    0.969704 0.327315 0.264637 0.186672
H13   H     H_    0.088894 0.697314 0.627608 0.177976
H14   H     H_    0.911312 0.195719 0.372333 0.180894
O11   O     O_R   0.950790 0.256670 0.090520 -0.537911
O12   O     O_R   0.049210 0.756670 0.909480 -0.538086
O13   O     O_R   0.927720 0.590370 0.921470 -0.532782
O14   O     O_R   0.072280 0.090370 0.078530 -0.531864
C53   C     C_R   0.910988 0.420586 0.893383 0.782750
C54   C     C_R   0.088985 0.920484 0.106639 0.781307
O15   O     O_R   0.943270 0.586180 0.090640 -0.535746
O16   O     O_R   0.056730 0.086180 0.909360 -0.535690
O17   O     O_R   0.064850 0.759970 0.079840 -0.541379
O18   O     O_R   0.935150 0.259970 0.920160 -0.541430
C55   C     C_R   0.928270 0.416378 0.116825 0.803110
C56   C     C_R   0.071794 0.916452 0.883251 0.801208
O19   O     O_3   0.039850 0.428050 0.996240 -0.385774
O20   O     O_3   0.960150 0.928050 0.003760 -0.386819
V3    V     V_3+5 0.992610 0.701540 0.000700 1.506147
V4    V     V_3+5 0.007390 0.201540 0.999300 1.507201
O21   O     O_3   0.286237 0.953070 0.614445 -0.565283
C57   C     C_3   0.301445 0.872200 0.539927 -0.206214
H15   H     H_    0.318088 0.723247 0.545114 0.120671
H16   H     H_    0.257608 0.872408 0.499019 0.193675
H17   H     H_    0.336618 0.963166 0.510991 0.145852
O22   O     O_3   0.714017 0.450849 0.385776 -0.564944
C58   C     C_3   0.698875 0.368785 0.460112 -0.220749
H18   H     H_    0.682048 0.220069 0.454563 0.123395
H19   H     H_    0.742794 0.367945 0.500876 0.190351
H20   H     H_    0.663841 0.459520 0.489393 0.143621
C59   C     C_2   0.212518 0.604264 0.634248 0.757625
O23   O     O_2   0.190141 0.571621 0.565672 -0.553393
O24   O     O_R   0.264623 0.498653 0.665832 -0.670339
H21   H     H_    0.280320 0.403325 0.625521 0.315317
C60   C     C_2   0.787737 0.101372 0.365467 0.764339
O25   O     O_2   0.810641 0.066077 0.433590 -0.531366
O26   O     O_R   0.735207 0.997445 0.334003 -0.672085
H22   H     H_    0.719672 0.901110 0.374035 0.312944
O27   O     O_3   0.187045 0.020406 0.957986 -0.572340
C61   C     C_3   0.193984 0.218759 0.955042 -0.185535
H23   H     H_    0.174331 0.277917 0.896227 0.133664
H24   H     H_    0.244879 0.261561 0.965937 0.162329
H25   H     H_    0.166582 0.282660 0.003818 0.168990
O28   O     O_3   0.813036 0.520442 0.042198 -0.572593
C62   C     C_3   0.806055 0.718768 0.045226 -0.186393
H26   H     H_    0.825697 0.777696 0.104064 0.133890
H27   H     H_    0.755151 0.761514 0.034353 0.162696
H28   H     H_    0.833440 0.782942 0.996471 0.168773
C63   C     C_2   0.073055 0.659682 0.241039 0.797214
O29   O     O_2   0.069685 0.487644 0.237553 -0.573449
O30   O     O_R   0.018232 0.768423 0.251094 -0.658346
H29   H     H_    0.978475 0.689174 0.256927 0.292177
C64   C     C_2   0.927379 0.163372 0.757585 0.795336
O31   O     O_2   0.930522 0.991152 0.757848 -0.570997
O32   O     O_R   0.982480 0.272638 0.750344 -0.659775
H30   H     H_    0.022186 0.193680 0.743605 0.291845
O33   O     O_3   0.310652 0.209262 0.165008 -0.549192
C65   C     C_3   0.342631 0.370574 0.197048 -0.167881
H31   H     H_    0.394950 0.358336 0.189752 0.128479
H32   H     H_    0.332699 0.397335 0.261764 0.152501
H33   H     H_    0.325432 0.495615 0.161803 0.174649
O34   O     O_3   0.688762 0.707596 0.835774 -0.547698
C66   C     C_3   0.657296 0.869696 0.803597 -0.168037
H34   H     H_    0.604843 0.857911 0.809946 0.128433
H35   H     H_    0.667963 0.897380 0.739168 0.151979
H36   H     H_    0.674290 0.993989 0.839426 0.175994
C67   C     C_2   0.183581 0.542144 0.341252 0.811930
O35   O     O_2   0.219950 0.407417 0.338307 -0.566677
O36   O     O_R   0.135099 0.542345 0.396515 -0.626489
H37   H     H_    0.134252 0.421601 0.429507 0.339039
C68   C     C_2   0.817245 0.052415 0.654659 0.828484
O37   O     O_2   0.857249 0.063071 0.603337 -0.507716
O38   O     O_R   0.777967 0.893185 0.658164 -0.674613
H38   H     H_    0.786762 0.796957 0.614603 0.309646
C69   C     C_2   0.316131 0.919796 0.982464 0.825801
O39   O     O_2   0.360148 0.030869 0.996148 -0.551210
O40   O     O_R   0.295756 0.802075 0.043996 -0.653715
H39   H     H_    0.323943 0.812965 0.095641 0.285118
C70   C     C_2   0.683999 0.419496 0.017666 0.826622
O41   O     O_2   0.640136 0.531055 0.003855 -0.550576
O42   O     O_R   0.704196 0.301168 0.956288 -0.653650
H40   H     H_    0.675995 0.312030 0.904652 0.286334

loop_
_geom_bond_atom_site_label_1
_geom_bond_atom_site_label_2
_ccdc_geom_bond_type
C36   C40   A    
C44   C46   A    
C41   C43   A    
C58   H18   S    
O14   V4    S    
H7    C49   S    
C31   H13   S    
O21   C57   S    
O1    C3    A    
C54   O17   A    
O2    C4    A    
C2    O7    A    
C61   H23   S    
C25   C41   A    
C63   O29   D    
C26   C42   A    
O5    C3    A    
C59   O24   S    
C33   C59   S    
C52   C55   S    
O20   V3    S    
C29   H11   S    
C51   C56   S    
O27   C61   S    
C30   C52   A    
C69   O40   S    
C21   C23   A    
C63   O30   S    
C69   O39   D    
C15   C17   A    
C36   C38   A    
O36   H37   S    
C57   H17   S    
O17   V3    S    
C40   C48   A    
C39   C41   A    
C28   C50   A    
O28   C62   S    
C9    O33   S    
C40   C42   A    
O16   V4    S    
O38   H38   S    
C37   C45   A    
O15   V3    S    
C47   O21   S    
C70   O41   D    
C8    C12   A    
C48   O22   S    
C65   H31   S    
C43   C45   A    
C57   H16   S    
O24   H21   S    
C20   H2    S    
C70   O42   S    
C37   C51   A    
H8    C50   S    
C46   O28   S    
O5    V1    S    
C53   O18   A    
O40   H39   S    
O6    V2    S    
C27   C47   A    
O12   C56   A    
C5    C21   A    
C68   O38   S    
C30   C32   A    
C68   O37   D    
O18   V4    S    
C31   C33   A    
C9    C11   A    
C66   H36   S    
C32   C34   A    
C3    C8    S    
O11   V4    S    
O4    C2    A    
O16   C56   A    
C13   H5    S    
O15   C55   A    
C22   C64   S    
C15   C23   A    
C9    C17   A    
C19   H1    S    
C10   O34   S    
C29   C31   A    
C42   C44   A    
O4    V2    S    
C7    C11   A    
C64   O32   S    
O19   V3    S    
O13   V3    S    
O6    C4    A    
C57   H15   S    
O20   V4    S    
C6    C53   S    
O1    V2    S    
O2    V1    S    
C66   H35   S    
C16   C24   A    
C62   H27   S    
C23   C67   S    
C65   H32   S    
C58   H20   S    
O14   C54   A    
C33   C35   A    
O30   H29   S    
C5    C19   A    
C10   C12   A    
C1    C28   S    
C6    C20   A    
C64   O31   D    
O3    C1    A    
C34   C60   S    
O3    V1    S    
C14   H6    S    
O32   H30   S    
C66   H34   S    
C62   H28   S    
C39   C47   A    
C25   C49   A    
C10   C18   A    
O26   H22   S    
O7    V1    S    
C29   C51   A    
O34   C66   S    
C30   H12   S    
O13   C53   A    
C44   C70   S    
C61   H24   S    
C62   H26   S    
C16   C18   A    
C35   C39   A    
C13   C15   A    
C59   O23   D    
C14   C16   A    
C5    C54   S    
C67   O36   S    
C45   O27   S    
C1    O8    A    
C17   C19   A    
O8    V2    S    
C67   O35   D    
O19   V4    S    
C18   C20   A    
C28   C48   A    
C8    C14   A    
C6    C22   A    
C65   H33   S    
C11   H3    S    
C60   O26   S    
C4    C7    S    
C38   C52   A    
O22   C58   S    
C12   H4    S    
C34   C36   A    
C26   C50   A    
C22   C24   A    
C2    C27   S    
C43   C69   S    
C7    C13   A    
O11   C55   A    
C61   H25   S    
C35   C37   A    
C26   H10   S    
C24   C68   S    
C38   C46   A    
C58   H19   S    
C27   C49   A    
O9    V2    S    
O42   H40   S    
C21   C63   S    
O10   V1    S    
O12   V3    S    
C60   O25   D    
C25   H9    S    
O33   C65   S    
C32   H14   S    
