data_mof_unit_13206.cif
_audit_creation_date              2013-03-05T15:51:40-0500
_audit_creation_method            fapswitch 2.2
_symmetry_space_group_name_H-M    P1
_symmetry_Int_Tables_number       1
_space_group_crystal_system       triclinic
_cell_length_a                    11.552574
_cell_length_b                    11.550828
_cell_length_c                    19.566598
_cell_angle_alpha                 90.437349
_cell_angle_beta                  90.032132
_cell_angle_gamma                 60.010168
_cell_volume                      2261.34382768

loop_
_atom_site_label
_atom_site_type_symbol
_atom_site_description
_atom_site_fract_x
_atom_site_fract_y
_atom_site_fract_z
_atom_type_partial_charge
O1    O     O_R   0.267750 0.231960 0.575440 -0.503744
O2    O     O_R   0.527290 0.186640 0.570530 -0.491872
C1    C     C_R   0.640377 0.117138 0.599304 0.549690
O3    O     O_R   0.728110 0.003450 0.576380 -0.504623
O4    O     O_R   0.682980 0.789190 0.570500 -0.493383
C2    C     C_R   0.612350 0.746167 0.598675 0.548944
O5    O     O_R   0.499300 0.771880 0.575540 -0.503073
O6    O     O_R   0.285350 0.030870 0.569740 -0.494416
C3    C     C_R   0.241183 0.145157 0.598223 0.546609
O7    O     O_R   0.270960 0.227070 0.423890 -0.515021
O8    O     O_R   0.530270 0.182120 0.430040 -0.509148
C4    C     C_R   0.641892 0.110234 0.401322 0.553562
O9    O     O_R   0.731320 0.998570 0.424830 -0.528087
O10   O     O_R   0.685950 0.784660 0.430010 -0.512643
C5    C     C_R   0.618273 0.738760 0.403085 0.552377
O11   O     O_R   0.502510 0.767000 0.423980 -0.524242
O12   O     O_R   0.288320 0.026340 0.429250 -0.515308
C6    C     C_R   0.246614 0.138991 0.400624 0.535868
Cr1   Cr    Cr6+3 0.404720 0.198220 0.499960 1.030053
Cr2   Cr    Cr6+3 0.698290 0.897110 0.500380 1.025386
Cr3   Cr    Cr6+3 0.396970 0.904720 0.499610 1.021643
O13   O     O_3   0.499990 0.000020 0.499980 -0.257812
C7    C     C_1   0.670550 0.646250 0.860092 0.004458
C8    C     C_1   0.654693 0.683735 0.728439 -0.030536
C9    C     C_1   0.663515 0.666544 0.799677 -0.030479
C10   C     C_1   0.641092 0.704066 0.668032 0.005200
C11   C     C_1   0.126498 0.199058 0.859261 0.004124
C12   C     C_1   0.171589 0.170240 0.727725 -0.030199
C13   C     C_1   0.150052 0.182456 0.798935 -0.030110
C14   C     C_1   0.195478 0.160731 0.667416 0.004161
C15   C     C_1   0.678797 0.191393 0.860725 0.004305
C16   C     C_1   0.658651 0.167047 0.729029 -0.030296
C17   C     C_1   0.665867 0.180900 0.800314 -0.029970
C18   C     C_1   0.652990 0.149425 0.668670 0.004052
C19   C     C_R   0.673950 0.641833 0.196946 0.022956
C20   C     C_R   0.637748 0.570222 0.240893 0.035685
C21   C     C_R   0.630630 0.590613 0.309828 0.055179
C22   C     C_R   0.726745 0.732545 0.294809 -0.161550
C23   C     C_R   0.731010 0.713509 0.224345 -0.182513
C24   C     C_3   0.520106 0.550222 0.241060 -0.252238
C25   C     C_3   0.510654 0.574924 0.317550 -0.259220
C26   C     C_R   0.664220 0.680485 0.337073 0.024427
H1    H     H_    0.759991 0.798641 0.314927 0.150071
H2    H     H_    0.772817 0.758752 0.191633 0.129199
H3    H     H_    0.550576 0.446910 0.226969 0.161288
H4    H     H_    0.434404 0.626385 0.211905 0.215847
H5    H     H_    0.418686 0.668784 0.332621 0.162367
H6    H     H_    0.532204 0.485123 0.347660 0.170793
C27   C     C_R   0.154394 0.195776 0.189488 -0.027989
C28   C     C_R   0.140925 0.298632 0.232585 0.009976
C29   C     C_R   0.163714 0.279273 0.301094 0.018698
C30   C     C_R   0.233939 0.046393 0.287097 -0.131903
C31   C     C_R   0.211896 0.064852 0.215962 -0.026630
C32   C     C_3   0.024211 0.435902 0.243888 -0.238569
C33   C     C_3   0.051216 0.414283 0.319705 -0.265717
C34   C     C_R   0.200963 0.156667 0.330535 -0.008812
H7    H     H_    0.278023 0.946799 0.308187 0.167102
H8    H     H_    0.928889 0.441752 0.228768 0.168087
H9    H     H_    0.041617 0.515135 0.222958 0.148290
H10   H     H_    0.086822 0.479274 0.342512 0.141088
H11   H     H_    0.970333 0.410624 0.348626 0.181558
C35   C     C_R   0.678139 0.175640 0.192280 0.018268
C36   C     C_R   0.787273 0.085380 0.231565 0.007898
C37   C     C_R   0.774806 0.067936 0.299274 0.021014
C38   C     C_R   0.536965 0.215834 0.290746 -0.156291
C39   C     C_R   0.549860 0.232323 0.220661 -0.184195
C40   C     C_3   0.922717 0.070298 0.240957 -0.209429
C41   C     C_3   0.908827 0.050530 0.316609 -0.108633
C42   C     C_R   0.652381 0.140341 0.331278 0.050802
H12   H     H_    0.437869 0.263745 0.313164 0.148004
H13   H     H_    0.462275 0.296423 0.190672 0.126685
H14   H     H_    0.924364 0.163235 0.228344 0.173195
H15   H     H_    0.000480 0.978294 0.215155 0.176530
H16   H     H_    0.980175 0.947704 0.334295 0.099921
O14   O     O_R   0.821590 0.119350 0.952850 -0.503565
O15   O     O_R   0.037230 0.162540 0.957390 -0.495999
C43   C     C_R   0.081559 0.231345 0.928555 0.542997
O16   O     O_R   0.056530 0.344750 0.951370 -0.503658
O17   O     O_R   0.798000 0.560370 0.957490 -0.493483
C44   C     C_R   0.684042 0.604233 0.929465 0.544370
O18   O     O_R   0.596230 0.579400 0.952760 -0.503648
O19   O     O_R   0.639160 0.321170 0.958690 -0.493902
C45   C     C_R   0.708568 0.206810 0.930079 0.544688
O20   O     O_R   0.821370 0.124220 0.104400 -0.515729
O21   O     O_R   0.037020 0.167050 0.097880 -0.516482
C46   C     C_R   0.085887 0.234883 0.124193 0.516871
O22   O     O_R   0.056310 0.349620 0.102920 -0.509170
O23   O     O_R   0.797790 0.564880 0.097980 -0.509068
C47   C     C_R   0.683545 0.609779 0.125962 0.542158
O24   O     O_R   0.596000 0.584270 0.104310 -0.510134
O25   O     O_R   0.638950 0.325690 0.099180 -0.506370
C48   C     C_R   0.708043 0.209430 0.126059 0.538634
Cr4   Cr    Cr6+3 0.926290 0.152010 0.028150 1.031170
Cr5   Cr    Cr6+3 0.921440 0.451830 0.027490 1.030790
Cr6   Cr    Cr6+3 0.626370 0.446880 0.028730 1.036267
O26   O     O_3   0.824700 0.350240 0.028120 -0.256554
C49   C     C_2   0.904073 0.158759 0.362204 0.213866
H17   H     H_    0.969110 0.131162 0.406347 0.112819
O27   O     O_2   0.828602 0.276902 0.350202 -0.539724
C50   C     C_2   0.246258 0.949042 0.170662 0.219284
H18   H     H_    0.261889 0.954380 0.116376 0.128695
O28   O     O_2   0.255268 0.846944 0.193351 -0.571833

loop_
_geom_bond_atom_site_label_1
_geom_bond_atom_site_label_2
_geom_bond_distance
_ccdc_geom_bond_type
C4    C42   1.436503 S    
O11   Cr3   2.057707 S    
C11   C13   1.203676 T    
Cr6   O26   1.984664 S    
C49   H17   1.084524 S    
O24   Cr6   2.058318 S    
O4    Cr2   1.927280 S    
C2    C10   1.427079 S    
C43   O16   1.269394 A    
C24   H4    1.102688 S    
C4    O9    1.272369 A    
O8    Cr1   1.933571 S    
C28   C32   1.496239 S    
C37   C41   1.497317 S    
C12   C13   1.409088 S    
C8    C10   1.201677 T    
C29   C34   1.387653 A    
O4    C2    1.275433 A    
O18   Cr6   2.043348 S    
C27   C31   1.415578 A    
C41   H16   1.112252 S    
C38   H12   1.082944 S    
O22   Cr5   2.045702 S    
C15   C45   1.431255 S    
C40   H14   1.112711 S    
C21   C26   1.380746 A    
C41   C49   1.508687 S    
O21   Cr4   1.935122 S    
C19   C20   1.398437 A    
O6    C3    1.276466 A    
C35   C48   1.446924 S    
C15   C17   1.204148 T    
C40   H15   1.108693 S    
C7    C44   1.427084 S    
C6    C34   1.447886 S    
Cr3   O13   1.984395 S    
C49   O27   1.221801 D    
O6    Cr3   1.939603 S    
C36   C40   1.496712 S    
C32   H9    1.111550 S    
C31   C50   1.477867 S    
C24   H3    1.095046 S    
O7    C6    1.265012 A    
O23   Cr5   1.938556 S    
O1    Cr1   2.052870 S    
C5    O11   1.274578 A    
C35   C39   1.399512 A    
C40   C41   1.520240 S    
O10   Cr2   1.939301 S    
C20   C24   1.488069 S    
Cr1   O13   1.983344 S    
O1    C3    1.269968 A    
C8    C9    1.405895 S    
O17   Cr5   1.928241 S    
O25   C48   1.286798 A    
C46   O22   1.265706 A    
C1    C18   1.431386 S    
C28   C29   1.364402 A    
O21   C46   1.278050 A    
O12   Cr3   1.925911 S    
O17   C44   1.275620 A    
C16   C18   1.204184 T    
C19   C23   1.394920 A    
C35   C36   1.401597 A    
O15   Cr4   1.932545 S    
C39   H13   1.083211 S    
O7    Cr1   2.050497 S    
C50   O28   1.218177 D    
O12   C6    1.274016 A    
C25   H5    1.111370 S    
C37   C42   1.379288 A    
O15   C43   1.275250 A    
Cr5   O26   1.984296 S    
C2    O5    1.269810 A    
C3    C14   1.430481 S    
C19   C47   1.424692 S    
C24   C25   1.515190 S    
Cr2   O13   1.984685 S    
O19   C45   1.277346 A    
Cr4   O26   1.983378 S    
C1    O3    1.270383 A    
C30   C31   1.413317 A    
O14   Cr4   2.054706 S    
C32   H8    1.109203 S    
C32   C33   1.512498 S    
C20   C21   1.362876 A    
O19   Cr6   1.940046 S    
O9    Cr2   2.044126 S    
O2    Cr1   1.934136 S    
C27   C46   1.453598 S    
C5    C26   1.426006 S    
C44   O18   1.269868 A    
C11   C43   1.430537 S    
O8    C4    1.261490 A    
C22   C26   1.417634 A    
C23   H2    1.083425 S    
C16   C17   1.409896 S    
C12   C14   1.203657 T    
O2    C1    1.275089 A    
C22   H1    1.083382 S    
C38   C39   1.404124 A    
O5    Cr3   2.044182 S    
O14   C45   1.269449 A    
C22   C23   1.391529 A    
O16   Cr5   2.056340 S    
C38   C42   1.419239 A    
C33   H11   1.111569 S    
C50   H18   1.084902 S    
C25   H6    1.111771 S    
C29   C33   1.489751 S    
O20   Cr4   2.048521 S    
C7    C9    1.201678 T    
C21   C25   1.492821 S    
C30   H7    1.083686 S    
O25   Cr6   1.925281 S    
C36   C37   1.360082 A    
O3    Cr2   2.057512 S    
O23   C47   1.273922 A    
C27   C28   1.395296 A    
O10   C5    1.256815 A    
O20   C48   1.252380 A    
C47   O24   1.258851 A    
C33   H10   1.111429 S    
C30   C34   1.410225 A    
