data_mof_unit_30263.cif
_audit_creation_date              2013-03-05T16:08:00-0500
_audit_creation_method            fapswitch 2.2
_symmetry_space_group_name_H-M    P1
_symmetry_Int_Tables_number       1
_space_group_crystal_system       triclinic
_cell_length_a                    23.43924
_cell_length_b                    11.722358
_cell_length_c                    10.754703
_cell_angle_alpha                 90.00009
_cell_angle_beta                  90.000187
_cell_angle_gamma                 87.585651
_cell_volume                      2952.37309228

loop_
_atom_site_label
_atom_site_type_symbol
_atom_site_description
_atom_site_fract_x
_atom_site_fract_y
_atom_site_fract_z
_atom_type_partial_charge
O1    O     O_R   0.500000 0.334450 0.602530 -0.627091
O2    O     O_R   0.500000 0.665550 0.397470 -0.572247
O3    O     O_R   0.500000 0.665550 0.602530 -0.627092
O4    O     O_R   0.500000 0.334450 0.397470 -0.572246
C1    C     C_R   0.499166 0.281000 0.500069 0.961314
C2    C     C_R   0.500834 0.719000 0.500069 0.961316
O5    O     O_R   0.416150 0.500000 0.602560 -0.576029
O6    O     O_R   0.583850 0.500000 0.397440 -0.565837
O7    O     O_R   0.583850 0.500000 0.602560 -0.576030
O8    O     O_R   0.416150 0.500000 0.397440 -0.565838
C3    C     C_R   0.388605 0.504323 0.499832 1.059866
C4    C     C_R   0.611395 0.495677 0.499832 1.059863
Zn1   Zn    Zn3+2 0.500000 0.500000 0.636920 1.082199
Zn2   Zn    Zn3+2 0.500000 0.500000 0.363080 1.148165
C5    C     C_R   0.873719 0.574404 0.472026 0.692504
C6    C     C_R   0.126282 0.425594 0.472018 0.692510
C7    C     C_R   0.889255 0.372102 0.471211 0.740738
C8    C     C_R   0.110745 0.627895 0.471208 0.740732
N1    N     N_R   0.853697 0.466991 0.477050 -0.321321
N2    N     N_R   0.146303 0.533007 0.477044 -0.321322
C9    C     C_R   0.948572 0.383322 0.460519 -0.182499
C10   C     C_R   0.051428 0.616674 0.460517 -0.182468
C11   C     C_R   0.932684 0.590826 0.475456 -0.178344
C12   C     C_R   0.067316 0.409171 0.475450 -0.178367
C13   C     C_R   0.970248 0.493514 0.468602 -0.079717
C14   C     C_R   0.029752 0.506482 0.468600 -0.079721
C15   C     C_R   0.987004 0.288244 0.447506 0.269698
C16   C     C_R   0.012995 0.711753 0.447508 0.269664
C17   C     C_R   0.955399 0.700589 0.478494 0.301161
C18   C     C_R   0.044601 0.299407 0.478488 0.301236
O9    O     O_2   0.836151 0.663783 0.458024 -0.435366
O10   O     O_2   0.163850 0.336215 0.458011 -0.435360
O11   O     O_2   0.867137 0.268227 0.481473 -0.414280
O12   O     O_2   0.132862 0.731771 0.481471 -0.414283
C19   C     C_R   0.239220 0.573144 0.383807 0.333981
C20   C     C_R   0.760780 0.426856 0.383810 0.333978
C21   C     C_R   0.233717 0.510598 0.599962 0.317565
C22   C     C_R   0.766283 0.489399 0.599966 0.317567
C23   C     C_R   0.298502 0.580596 0.398412 0.212696
C24   C     C_R   0.701498 0.419405 0.398414 0.212696
C25   C     C_R   0.292306 0.479084 0.597417 0.282749
C26   C     C_R   0.707694 0.520914 0.597420 0.282748
C27   C     C_R   0.325802 0.520266 0.498407 -0.422377
C28   C     C_R   0.674198 0.479733 0.498408 -0.422376
C29   C     C_R   0.206673 0.543981 0.488135 -0.066009
C30   C     C_R   0.793327 0.456017 0.488139 -0.066008
C31   C     C_1   0.499299 0.160767 0.500205 -0.090738
C32   C     C_1   0.500701 0.839233 0.500205 -0.090737
C33   C     C_1   0.499701 0.059196 0.500274 0.060351
C34   C     C_1   0.500299 0.940804 0.500274 0.060351
N3    N     N_1   0.500000 0.500000 0.180630 -0.037648
N4    N     N_1   0.500000 0.500000 0.819370 -0.054726
C35   C     C_1   0.500000 0.500000 0.069696 0.180404
C36   C     C_1   0.500000 0.500000 0.930303 0.149704
S1    S     S_3+6 0.968532 0.169624 0.356164 0.200765
O13   O     O_2   0.942525 0.082502 0.438065 -0.079984
O14   O     O_2   0.926045 0.206349 0.258033 -0.200325
O15   O     O_3   0.026561 0.111341 0.285039 -0.399741
H1    H     H_    0.040077 0.172169 0.229762 0.362194
S2    S     S_3+6 0.031465 0.830370 0.356159 0.200777
O16   O     O_2   0.057475 0.917493 0.438055 -0.079980
O17   O     O_2   0.073950 0.793640 0.258025 -0.200287
O18   O     O_3   0.973436 0.888653 0.285037 -0.399722
H2    H     H_    0.959885 0.827788 0.229858 0.362161
S3    S     S_3+6 0.917645 0.819600 0.546993 0.171979
O19   O     O_2   0.881700 0.881575 0.450736 -0.132537
O20   O     O_2   0.879693 0.780447 0.649624 -0.194308
O21   O     O_3   0.964242 0.908295 0.609059 -0.470543
H3    H     H_    0.940964 0.960309 0.663279 0.412975
S4    S     S_3+6 0.082358 0.180396 0.546982 0.171996
O22   O     O_2   0.118300 0.118422 0.450721 -0.132499
O23   O     O_2   0.120311 0.219548 0.649610 -0.194324
O24   O     O_3   0.035763 0.091699 0.609051 -0.470547
H4    H     H_    0.059042 0.039685 0.663269 0.412974
S5    S     S_3+6 0.206711 0.592134 0.234972 0.157291
O25   O     O_2   0.157089 0.516321 0.219565 -0.255107
O26   O     O_2   0.185540 0.714259 0.221449 -0.178557
O27   O     O_3   0.254379 0.559501 0.122136 -0.421557
H5    H     H_    0.255285 0.628350 0.068929 0.419373
S6    S     S_3+6 0.793289 0.407870 0.234975 0.157289
O28   O     O_2   0.842912 0.483682 0.219572 -0.255114
O29   O     O_2   0.814460 0.285745 0.221447 -0.178555
O30   O     O_3   0.745621 0.440507 0.122140 -0.421556
H6    H     H_    0.744712 0.371657 0.068934 0.419374
S7    S     S_3+6 0.194102 0.515555 0.741178 0.131222
O31   O     O_2   0.164225 0.406024 0.758835 -0.189524
O32   O     O_2   0.233180 0.533351 0.849436 -0.192568
O33   O     O_3   0.145051 0.624327 0.737245 -0.532905
H7    H     H_    0.122007 0.615639 0.813600 0.404153
S8    S     S_3+6 0.805897 0.484441 0.741182 0.131225
O34   O     O_2   0.835774 0.593973 0.758842 -0.189517
O35   O     O_2   0.766819 0.466644 0.849439 -0.192571
O36   O     O_3   0.854949 0.375671 0.737249 -0.532905
H8    H     H_    0.877993 0.384358 0.813605 0.404151
S9    S     S_3+6 0.336130 0.679339 0.305956 0.111816
O37   O     O_2   0.366790 0.617364 0.201663 -0.214263
O38   O     O_2   0.296629 0.770620 0.251981 -0.197300
O39   O     O_3   0.383964 0.743930 0.394754 -0.559414
H9    H     H_    0.361359 0.779651 0.463327 0.349260
S10   S     S_3+6 0.663871 0.320663 0.305955 0.111814
O40   O     O_2   0.633210 0.382639 0.201662 -0.214266
O41   O     O_2   0.703371 0.229381 0.251979 -0.197302
O42   O     O_3   0.616036 0.256071 0.394750 -0.559411
H10   H     H_    0.638640 0.220350 0.463324 0.349260
S11   S     S_3+6 0.321287 0.378220 0.707485 0.135566
O43   O     O_2   0.349537 0.440879 0.811090 -0.243561
O44   O     O_2   0.275440 0.306909 0.760725 -0.146247
O45   O     O_3   0.369766 0.289731 0.637721 -0.566675
H11   H     H_    0.388305 0.245614 0.706292 0.383650
S12   S     S_3+6 0.678713 0.621777 0.707489 0.135566
O46   O     O_2   0.650462 0.559118 0.811092 -0.243563
O47   O     O_2   0.724560 0.693088 0.760731 -0.146245
O48   O     O_3   0.630234 0.710268 0.637725 -0.566674
H12   H     H_    0.611695 0.754383 0.706296 0.383650

loop_
_geom_bond_atom_site_label_1
_geom_bond_atom_site_label_2
_geom_bond_distance
_ccdc_geom_bond_type
C26   S12   1.786907 S    
S1    O13   1.497631 D    
O36   H8    0.990500 S    
O24   H4    0.990690 S    
S9    O37   1.502785 D    
O3    C2    1.268176 A    
N1    C30   1.431219 S    
C31   C33   1.190292 T    
C35   C36   1.499129 S    
C5    N1    1.363215 A    
S11   O44   1.502384 D    
C19   S5    1.782704 S    
C2    C32   1.409280 S    
S2    O18   1.680363 S    
O1    C1    1.268175 A    
C11   C17   1.413447 A    
C21   S7    1.779767 S    
C16   C17   1.401991 A    
C12   C14   1.413243 A    
C22   C26   1.407254 A    
C15   S1    1.771072 S    
O45   H11   0.990548 S    
S2    O17   1.501597 D    
S5    O26   1.502335 D    
O7    Zn1   1.999819 S    
S12   O46   1.503485 D    
Zn2   N3    1.962196 S    
O21   H3    0.990692 S    
S3    O20   1.501554 D    
C20   C30   1.407032 A    
S4    O22   1.502570 D    
N2    C29   1.431219 S    
O3    Zn1   1.975567 S    
O6    C4    1.276430 A    
C32   C34   1.190292 T    
C9    C15   1.410214 A    
C6    C12   1.403956 A    
C10   C16   1.410212 A    
C15   C18   1.401993 A    
C21   C25   1.407254 A    
C25   C27   1.419590 A    
O2    C2    1.269457 A    
C26   C28   1.419592 A    
S6    O30   1.682644 S    
C18   S4    1.779911 S    
N4    C36   1.193050 T    
O5    C3    1.279552 A    
S12   O47   1.502382 D    
C16   S2    1.771076 S    
S11   O45   1.682506 S    
S9    O39   1.677466 S    
S7    O32   1.501384 D    
C20   C24   1.404748 A    
S6    O29   1.502335 D    
C20   S6    1.782704 S    
O27   H5    0.990300 S    
S6    O28   1.502384 D    
C23   C27   1.424067 A    
C13   C14   1.409349 A    
S7    O31   1.500261 D    
S10   O42   1.677465 S    
C7    C9    1.406755 A    
S2    O16   1.497631 D    
N3    C35   1.193065 T    
C19   C23   1.404749 A    
S5    O25   1.502384 D    
O7    C4    1.279552 A    
Zn1   N4    1.962194 S    
C1    C31   1.409280 S    
S8    O35   1.501384 D    
O30   H6    0.990300 S    
C24   C28   1.424067 A    
C6    N2    1.363214 A    
S3    O21   1.677838 S    
S4    O24   1.677836 S    
S10   O41   1.501896 D    
C7    O11   1.347900 S    
C3    C27   1.476134 S    
C8    O12   1.347901 S    
S12   O48   1.682507 S    
C23   S9    1.786728 S    
C25   S11   1.786906 S    
C17   S3    1.779908 S    
C33   C34   1.387322 S    
S1    O14   1.501598 D    
O8    Zn2   1.999822 S    
O1    Zn1   1.975567 S    
S3    O19   1.502570 D    
C21   C29   1.407292 A    
C19   C29   1.407033 A    
S8    O36   1.681051 S    
O48   H12   0.990547 S    
S7    O33   1.681051 S    
C9    C13   1.410500 A    
O6    Zn2   1.999817 S    
C8    C10   1.406753 A    
O4    C1    1.269458 A    
C24   S10   1.786730 S    
S9    O38   1.501896 D    
C5    O9    1.348363 S    
C6    O10   1.348363 S    
S11   O43   1.503485 D    
C22   S8    1.779766 S    
O15   H1    0.990583 S    
C4    C28   1.476134 S    
S8    O34   1.500261 D    
C5    C11   1.403951 A    
S10   O40   1.502786 D    
C7    N1    1.362992 A    
C8    N2    1.362991 A    
C11   C13   1.413244 A    
O4    Zn2   1.975568 S    
O2    Zn2   1.975566 S    
S5    O27   1.682643 S    
C12   C18   1.413447 A    
C22   C30   1.407293 A    
O8    C3    1.276429 A    
O18   H2    0.990555 S    
O5    Zn1   1.999819 S    
O33   H7    0.990498 S    
O39   H9    0.990586 S    
C10   C14   1.410499 A    
S1    O15   1.680360 S    
O42   H10   0.990585 S    
S4    O23   1.501555 D    
