data_mof_unit_58534.cif
_audit_creation_date              2012-12-11T16:48:31-0500
_audit_creation_method            fapswitch 2.2
_symmetry_space_group_name_H-M    P1
_symmetry_Int_Tables_number       1
_space_group_crystal_system       triclinic
_cell_length_a                    17.506195
_cell_length_b                    24.465249
_cell_length_c                    15.192277
_cell_angle_alpha                 90.522256
_cell_angle_beta                  125.620389
_cell_angle_gamma                 89.672315
_cell_volume                      5289.07660111

loop_
_atom_site_label
_atom_site_type_symbol
_atom_type_description
_atom_site_fract_x
_atom_site_fract_y
_atom_site_fract_z
_atom_type_partial_charge
C1    C     C_R   0.361157 0.345398 0.912819 0.348521
C2    C     C_R   0.495001 0.501340 0.674848 0.051580
C3    C     C_R   0.053297 0.847735 0.907115 -0.217887
C4    C     C_R   0.391950 0.313688 0.003804 0.034371
C5    C     C_R   0.609302 0.314086 0.992725 0.013803
C6    C     C_R   0.891941 0.813691 0.003801 0.034380
C7    C     C_R   0.109298 0.814085 0.992727 0.013808
C8    C     C_3   0.335073 0.322561 0.807869 -1.008955
C9    C     C_3   0.667723 0.320529 0.188930 -0.978772
C10   C     C_3   0.835061 0.822562 0.807864 -1.008921
C11   C     C_3   0.167724 0.820531 0.188937 -0.978717
C12   C     C_3   0.929525 0.552520 0.193344 0.229580
C13   C     C_R   0.976270 0.002482 0.299840 0.037194
C14   C     C_3   0.000121 0.520856 0.183454 -0.361979
C15   C     C_3   0.970110 0.519842 0.066843 -0.998870
C16   C     C_3   0.014890 0.503271 0.693665 0.199291
C17   C     C_3   0.930712 0.486759 0.693304 -0.290083
C18   C     C_3   0.931643 0.515988 0.783159 -1.017520
C19   C     C_3   0.429556 0.052512 0.193389 0.229590
C20   C     C_3   0.500187 0.020863 0.183541 -0.361993
C21   C     C_3   0.470193 0.019833 0.066937 -0.998847
C22   C     C_3   0.515033 0.003138 0.693900 0.199265
C23   C     C_3   0.430760 0.986718 0.693422 -0.290215
C24   C     C_R   0.994959 0.001339 0.674815 0.051567
C25   C     C_3   0.431874 0.015813 0.783507 -1.017470
C26   C     C_3   0.276782 0.772566 0.830362 0.155733
C27   C     C_3   0.235721 0.830453 0.803403 -0.293062
C28   C     C_3   0.305465 0.871852 0.813656 -1.002724
C29   C     C_3   0.742239 0.767838 0.183017 0.146073
C30   C     C_3   0.782846 0.825542 0.201935 -0.296727
C31   C     C_3   0.709601 0.869011 0.174825 -1.009232
C32   C     C_3   0.776799 0.272572 0.830369 0.155705
C33   C     C_3   0.735741 0.330460 0.803417 -0.293058
C34   C     C_3   0.805480 0.371857 0.813652 -1.002716
C35   C     C_R   0.174276 0.500070 0.687598 -0.365954
C36   C     C_3   0.242250 0.267839 0.183003 0.146076
C37   C     C_3   0.282874 0.325540 0.201938 -0.296726
C38   C     C_3   0.209639 0.369015 0.174833 -1.009193
C39   C     C_3   0.532416 0.241568 0.777412 -0.948059
C40   C     C_3   0.475683 0.237696 0.213433 -0.923608
C41   C     C_3   0.032403 0.741564 0.777414 -0.948088
C42   C     C_3   0.975668 0.737697 0.213423 -0.923599
C43   C     C_3   0.596898 0.160686 0.083197 -1.009430
C44   C     C_3   0.362927 0.167287 0.857302 -0.994959
C45   C     C_3   0.096906 0.660685 0.083221 -1.009421
C46   C     C_R   0.822451 0.499976 0.268643 -0.331333
C47   C     C_3   0.862927 0.667294 0.857335 -0.994904
C48   C     C_3   0.407863 0.700117 0.307668 0.119483
C49   C     C_3   0.496659 0.686683 0.419352 -0.201650
C50   C     C_3   0.564909 0.734742 0.465089 -1.096042
C51   C     C_3   0.574163 0.740740 0.700692 0.159545
C52   C     C_3   0.525822 0.761381 0.753196 -0.353705
C53   C     C_3   0.536682 0.823158 0.772089 -0.964585
C54   C     C_3   0.907858 0.200102 0.307676 0.119483
C55   C     C_3   0.996630 0.186660 0.419376 -0.201621
C56   C     C_3   0.064932 0.234692 0.465109 -1.095976
C57   C     C_R   0.674274 0.000070 0.687641 -0.366224
C58   C     C_3   0.074189 0.240762 0.700738 0.159531
C59   C     C_3   0.025816 0.261368 0.753225 -0.353659
C60   C     C_3   0.036571 0.323150 0.772060 -0.964743
C61   C     C_3   0.245144 0.602040 0.089055 -0.941354
C62   C     C_3   0.709872 0.611274 0.839673 -0.958964
C63   C     C_3   0.745136 0.102042 0.089029 -0.941335
C64   C     C_3   0.209854 0.111273 0.839615 -0.958940
C65   C     C_3   0.523704 0.401373 0.325236 -1.104875
C66   C     C_3   0.490481 0.397527 0.684869 -1.118284
C67   C     C_3   0.023672 0.901373 0.325215 -1.104848
C68   C     C_R   0.322454 0.999976 0.268656 -0.331360
C69   C     C_3   0.990449 0.897525 0.684848 -1.118278
C70   C     C_3   0.261814 0.609650 0.639751 0.171054
C71   C     C_3   0.221713 0.660953 0.570012 -0.222690
C72   C     C_3   0.274626 0.675488 0.521476 -1.073503
C73   C     C_3   0.772039 0.605147 0.369185 0.179380
C74   C     C_3   0.827470 0.653097 0.445252 -0.213217
C75   C     C_3   0.796272 0.666051 0.518388 -1.072276
C76   C     C_3   0.761778 0.109648 0.639742 0.171011
C77   C     C_3   0.721659 0.160949 0.569998 -0.222664
C78   C     C_3   0.774543 0.175483 0.521426 -1.073479
C79   C     C_2   0.979401 0.475807 0.407057 -0.274860
C80   C     C_3   0.272102 0.105124 0.369251 0.179336
C81   C     C_3   0.327455 0.153122 0.445206 -0.213119
C82   C     C_3   0.296375 0.166033 0.518473 -1.072254
C83   C     C_3   0.228525 0.407077 0.593866 0.172501
C84   C     C_3   0.192153 0.355656 0.523114 -0.257676
C85   C     C_3   0.212588 0.356789 0.438250 -1.042078
C86   C     C_3   0.794738 0.408524 0.394351 0.170942
C87   C     C_3   0.837488 0.357431 0.464453 -0.253995
C88   C     C_3   0.799061 0.348466 0.531306 -1.041418
C89   C     C_3   0.728509 0.907087 0.593870 0.172531
C90   C     C_2   0.061605 0.501662 0.499073 -0.156152
C91   C     C_3   0.692148 0.855666 0.523119 -0.257730
C92   C     C_3   0.712563 0.856811 0.438238 -1.042089
C93   C     C_3   0.294713 0.908534 0.394359 0.170934
C94   C     C_3   0.337480 0.857452 0.464491 -0.253974
C95   C     C_3   0.298962 0.848451 0.531240 -1.041350
C96   C     C_2   0.479393 0.975816 0.407106 -0.274891
C97   C     C_R   0.639396 0.345139 0.084931 0.365393
C98   C     C_2   0.561591 0.001674 0.499123 -0.156037
C99   C     C_2   0.923158 0.504626 0.318534 0.608464
C100  C     C_2   0.076863 0.498381 0.595587 0.620540
C101  C     C_2   0.423163 0.004627 0.318568 0.608460
C102  C     C_2   0.576855 0.998379 0.595638 0.620660
C103  C     C_R   0.272715 0.704450 0.084596 -0.158815
C104  C     C_R   0.721482 0.708408 0.911408 -0.101030
C105  C     C_R   0.772723 0.204453 0.084598 -0.158819
C106  C     C_R   0.221508 0.208396 0.911415 -0.101105
C107  C     C_R   0.279162 0.704477 0.996968 -0.178430
C108  C     C_R   0.861151 0.845400 0.912817 0.348490
C109  C     C_R   0.723967 0.701998 0.004007 -0.205956
C110  C     C_R   0.779175 0.204483 0.996972 -0.178421
C111  C     C_R   0.223987 0.201986 0.004010 -0.205938
C112  C     C_R   0.206342 0.729741 0.899872 0.530072
C113  C     C_R   0.802374 0.724136 0.101739 0.556670
C114  C     C_R   0.706356 0.229748 0.899877 0.530082
C115  C     C_R   0.302391 0.224127 0.101742 0.556685
C116  C     C_R   0.623653 0.243387 0.888864 0.126296
C117  C     C_R   0.381195 0.240024 0.105648 0.090391
C118  C     C_R   0.123642 0.743383 0.888864 0.126316
C119  C     C_R   0.139395 0.845139 0.084934 0.365342
C120  C     C_R   0.881177 0.740030 0.105641 0.090389
C121  C     C_R   0.628794 0.256393 0.983219 0.034144
C122  C     C_R   0.369035 0.256181 0.008438 0.015896
C123  C     C_R   0.128788 0.756391 0.983222 0.034140
C124  C     C_R   0.869013 0.756187 0.008430 0.015894
C125  C     C_R   0.423487 0.644280 0.089169 -0.137992
C126  C     C_R   0.578186 0.642301 0.910827 -0.175788
C127  C     C_R   0.923494 0.144283 0.089170 -0.137975
C128  C     C_R   0.078199 0.142293 0.910826 -0.175791
C129  C     C_R   0.701131 0.232169 0.080132 -0.050506
C130  C     C_R   0.345178 0.667750 0.998124 0.110193
C131  C     C_R   0.288883 0.236948 0.911363 -0.036226
C132  C     C_R   0.201127 0.732168 0.080135 -0.050500
C133  C     C_R   0.788858 0.736958 0.911353 -0.036210
C134  C     C_3   0.693834 0.188028 0.144004 -0.017641
C135  C     C_3   0.275033 0.201269 0.820855 -0.037533
C136  C     C_3   0.193840 0.688030 0.144019 -0.017651
C137  C     C_3   0.775022 0.701269 0.820864 -0.037603
C138  C     C_3   0.273334 0.657577 0.149469 0.783146
C139  C     C_3   0.694006 0.673128 0.816199 0.791415
C140  C     C_3   0.773328 0.157575 0.149456 0.783138
C141  C     C_R   0.656709 0.666117 0.002036 0.104029
C142  C     C_3   0.194012 0.173130 0.816181 0.791380
C143  C     C_R   0.406232 0.489058 0.482611 0.152773
C144  C     C_R   0.399700 0.491149 0.388340 0.161196
C145  C     C_R   0.906190 0.989058 0.482575 0.152769
C146  C     C_R   0.899662 0.991150 0.388306 0.161202
C147  C     C_R   0.490724 0.502337 0.580140 0.055267
C148  C     C_R   0.478326 0.506478 0.393344 0.073493
C149  C     C_R   0.990681 0.002336 0.580106 0.055272
C150  C     C_R   0.978290 0.006479 0.393314 0.073503
C151  C     C_R   0.572185 0.512053 0.586976 -0.171690
C152  C     C_R   0.845189 0.167756 0.998127 0.110176
C153  C     C_R   0.565880 0.514488 0.492420 -0.228881
C154  C     C_R   0.072144 0.012051 0.586946 -0.171706
C155  C     C_R   0.065842 0.014488 0.492393 -0.228917
C156  C     C_3   0.306039 0.519018 0.330706 -0.492653
C157  C     C_3   0.312627 0.514816 0.434136 -0.522873
C158  C     C_3   0.806001 0.019019 0.330671 -0.492649
C159  C     C_3   0.812586 0.014816 0.434099 -0.522898
C160  C     C_R   0.499170 0.455204 0.268554 0.334882
C161  C     C_R   0.487907 0.454749 0.719491 0.333538
C162  C     C_R   0.999152 0.955205 0.268537 0.334866
C163  C     C_R   0.156724 0.166108 0.002037 0.103991
C164  C     C_R   0.987882 0.954748 0.719471 0.333528
C165  C     C_R   0.231667 0.545192 0.724361 0.417980
C166  C     C_R   0.767570 0.544972 0.249994 0.493041
C167  C     C_R   0.731663 0.045192 0.724386 0.418133
C168  C     C_R   0.267570 0.044972 0.249996 0.493049
C169  C     C_R   0.494905 0.546952 0.261723 -0.226531
C170  C     C_R   0.483403 0.546391 0.719123 -0.273955
C171  C     C_R   0.994890 0.046953 0.261707 -0.226546
C172  C     C_R   0.983378 0.046391 0.719104 -0.273946
C173  C     C_R   0.231506 0.454264 0.725709 0.498475
C174  C     C_R   0.476298 0.502481 0.299866 0.037185
C175  C     C_R   0.767612 0.453870 0.249278 0.431353
C176  C     C_R   0.731504 0.954264 0.725732 0.498349
C177  C     C_R   0.267614 0.953870 0.249290 0.431367
C178  C     C_R   0.330819 0.642168 0.908178 -0.140594
C179  C     C_R   0.667738 0.642962 0.091541 -0.117639
C180  C     C_R   0.830827 0.142173 0.908180 -0.140578
C181  C     C_R   0.167743 0.142960 0.091541 -0.117559
C182  C     C_R   0.446534 0.347578 0.091404 -0.217456
C183  C     C_R   0.553299 0.347735 0.907114 -0.217896
C184  C     C_R   0.946531 0.847579 0.091403 -0.217454
H1    H     H_    0.714975 0.203072 0.224470 0.138535
H2    H     H_    0.261152 0.485836 0.428258 0.194045
H3    H     H_    0.343527 0.329944 0.288197 0.207964
H4    H     H_    0.307440 0.332358 0.150032 0.198199
H5    H     H_    0.148353 0.365331 0.088732 0.267823
H6    H     H_    0.241273 0.409997 0.187458 0.269812
H7    H     H_    0.185535 0.364892 0.227711 0.275838
H8    H     H_    0.525483 0.201196 0.739344 0.267647
H9    H     H_    0.471138 0.245865 0.780572 0.227955
H10   H     H_    0.531007 0.273869 0.725648 0.266243
H11   H     H_    0.486110 0.196469 0.248859 0.268758
H12   H     H_    0.533323 0.243921 0.204856 0.229282
H13   H     H_    0.808686 0.061939 0.309631 0.245432
H14   H     H_    0.479844 0.268373 0.270395 0.260141
H15   H     H_    0.025466 0.701191 0.739348 0.267614
H16   H     H_    0.971127 0.745864 0.780578 0.227951
H17   H     H_    0.030993 0.773863 0.725648 0.266249
H18   H     H_    0.986091 0.696469 0.248845 0.268759
H19   H     H_    0.033305 0.743921 0.204841 0.229276
H20   H     H_    0.979835 0.768373 0.270390 0.260143
H21   H     H_    0.545384 0.190165 0.076377 0.269148
H22   H     H_    0.571857 0.147509 0.000365 0.276787
H23   H     H_    0.600133 0.124894 0.129585 0.266076
H24   H     H_    0.761110 0.985837 0.428218 0.194057
H25   H     H_    0.418859 0.194400 0.869636 0.263320
H26   H     H_    0.390945 0.146056 0.934679 0.269636
H27   H     H_    0.346167 0.136992 0.793633 0.261033
H28   H     H_    0.045392 0.690164 0.076401 0.269139
H29   H     H_    0.071862 0.647506 0.000389 0.276802
H30   H     H_    0.100144 0.624895 0.129614 0.266066
H31   H     H_    0.918853 0.694408 0.869658 0.263316
H32   H     H_    0.890949 0.646073 0.934723 0.269640
H33   H     H_    0.846174 0.636991 0.793681 0.261029
H34   H     H_    0.366191 0.730462 0.318044 0.092222
H35   H     H_    0.248128 0.494168 0.263446 0.191152
H36   H     H_    0.429933 0.718879 0.259512 0.118589
H37   H     H_    0.477224 0.676250 0.474962 0.214778
H38   H     H_    0.532804 0.650793 0.414101 0.198726
H39   H     H_    0.588179 0.743542 0.412510 0.275267
H40   H     H_    0.627774 0.724627 0.547130 0.283015
H41   H     H_    0.530608 0.771764 0.470100 0.265063
H42   H     H_    0.521730 0.745277 0.612322 0.139854
H43   H     H_    0.632306 0.768239 0.721408 0.104667
H44   H     H_    0.450285 0.750377 0.700806 0.186604
H45   H     H_    0.555353 0.743007 0.832632 0.214999
H46   H     H_    0.317440 0.555062 0.471375 0.200019
H47   H     H_    0.611376 0.833456 0.835831 0.271257
H48   H     H_    0.493259 0.837528 0.799321 0.261496
H49   H     H_    0.514361 0.844879 0.697091 0.283556
H50   H     H_    0.866184 0.230454 0.318035 0.092182
H51   H     H_    0.929952 0.218859 0.259541 0.118608
H52   H     H_    0.977170 0.176264 0.474979 0.214753
H53   H     H_    0.032743 0.150743 0.414153 0.198763
H54   H     H_    0.088232 0.243454 0.412544 0.275259
H55   H     H_    0.127776 0.224572 0.547161 0.283026
H56   H     H_    0.030664 0.271739 0.470094 0.265057
H57   H     H_    0.748090 0.994171 0.263409 0.191150
H58   H     H_    0.021786 0.245329 0.612370 0.139868
H59   H     H_    0.132349 0.268266 0.721527 0.104665
H60   H     H_    0.950299 0.250318 0.700848 0.186630
H61   H     H_    0.055391 0.243008 0.832683 0.214999
H62   H     H_    0.014202 0.344864 0.697039 0.283633
H63   H     H_    0.111249 0.333490 0.835785 0.271295
H64   H     H_    0.993132 0.337487 0.799291 0.261504
H65   H     H_    0.215308 0.574680 0.119602 0.236969
H66   H     H_    0.192531 0.606983 0.000372 0.226075
H67   H     H_    0.307354 0.581075 0.102717 0.255409
H68   H     H_    0.817400 0.055062 0.471340 0.200021
H69   H     H_    0.723380 0.591215 0.784290 0.239315
H70   H     H_    0.769734 0.603078 0.924790 0.224298
H71   H     H_    0.647587 0.591264 0.825336 0.255297
H72   H     H_    0.715293 0.074680 0.119565 0.236975
H73   H     H_    0.692527 0.106991 0.000347 0.226076
H74   H     H_    0.807345 0.081076 0.102691 0.255402
H75   H     H_    0.223351 0.091222 0.784216 0.239309
H76   H     H_    0.269716 0.103063 0.924725 0.224300
H77   H     H_    0.147562 0.091267 0.825269 0.255286
H78   H     H_    0.551186 0.406827 0.411502 0.267258
H79   H     H_    0.459462 0.657605 0.171871 0.111713
H80   H     H_    0.460281 0.375487 0.285681 0.255767
H81   H     H_    0.579596 0.380849 0.324319 0.244366
H82   H     H_    0.485481 0.396983 0.608712 0.259064
H83   H     H_    0.559109 0.378986 0.746763 0.263306
H84   H     H_    0.431491 0.372705 0.669705 0.247901
H85   H     H_    0.051138 0.906826 0.411476 0.267264
H86   H     H_    0.960248 0.875489 0.285645 0.255762
H87   H     H_    0.079573 0.880848 0.324315 0.244374
H88   H     H_    0.985434 0.896980 0.608682 0.259064
H89   H     H_    0.059080 0.878985 0.746733 0.263305
H90   H     H_    0.543382 0.652749 0.827241 0.148683
H91   H     H_    0.931464 0.872704 0.669700 0.247906
H92   H     H_    0.263578 0.576039 0.590859 0.094026
H93   H     H_    0.334575 0.618714 0.711266 0.098900
H94   H     H_    0.146390 0.654289 0.503119 0.228535
H95   H     H_    0.226444 0.695715 0.620551 0.203359
H96   H     H_    0.351476 0.677022 0.585314 0.267627
H97   H     H_    0.250981 0.716074 0.482044 0.285020
H98   H     H_    0.259911 0.644767 0.459233 0.278629
H99   H     H_    0.782197 0.569070 0.419521 0.090620
H100  H     H_    0.696121 0.616267 0.316559 0.084337
H101  H     H_    0.959472 0.157609 0.171872 0.111700
H102  H     H_    0.903638 0.642917 0.496492 0.219248
H103  H     H_    0.816820 0.689790 0.396697 0.210307
H104  H     H_    0.719991 0.675536 0.468790 0.278111
H105  H     H_    0.835533 0.702084 0.570180 0.288201
H106  H     H_    0.810590 0.630738 0.571493 0.274778
H107  H     H_    0.763529 0.076036 0.590843 0.094024
H108  H     H_    0.834545 0.118714 0.711241 0.098890
H109  H     H_    0.646331 0.154283 0.503123 0.228539
H110  H     H_    0.726403 0.195712 0.620541 0.203368
H111  H     H_    0.851396 0.177022 0.585243 0.267609
H112  H     H_    0.249915 0.222787 0.744744 0.131682
H113  H     H_    0.043401 0.152741 0.827241 0.148684
H114  H     H_    0.750883 0.216066 0.481986 0.285021
H115  H     H_    0.759817 0.144759 0.459183 0.278620
H116  H     H_    0.282400 0.069054 0.419668 0.090692
H117  H     H_    0.196157 0.116183 0.316687 0.084325
H118  H     H_    0.403649 0.143016 0.496353 0.219371
H119  H     H_    0.316635 0.189812 0.396568 0.210171
H120  H     H_    0.220067 0.175420 0.468986 0.278095
H121  H     H_    0.335535 0.202120 0.570136 0.288195
H122  H     H_    0.310902 0.130737 0.571697 0.274792
H123  H     H_    0.305192 0.410416 0.636408 0.101273
H124  H     H_    0.496886 0.589030 0.283684 0.154697
H125  H     H_    0.197692 0.442790 0.539938 0.084811
H126  H     H_    0.225626 0.318866 0.574163 0.211620
H127  H     H_    0.114966 0.352963 0.481205 0.213269
H128  H     H_    0.176372 0.392044 0.383247 0.265211
H129  H     H_    0.186550 0.318528 0.389390 0.270219
H130  H     H_    0.289325 0.360024 0.477655 0.280858
H131  H     H_    0.720001 0.412255 0.364395 0.110993
H132  H     H_    0.832059 0.444946 0.446673 0.120185
H133  H     H_    0.821908 0.320459 0.414080 0.206282
H134  H     H_    0.914950 0.362093 0.518302 0.199883
H135  H     H_    0.473084 0.588192 0.691869 0.156732
H136  H     H_    0.809147 0.385461 0.579627 0.269091
H137  H     H_    0.835422 0.313565 0.586624 0.281002
H138  H     H_    0.722956 0.338704 0.477246 0.276228
H139  H     H_    0.805175 0.910433 0.636406 0.101280
H140  H     H_    0.697662 0.942800 0.539940 0.084827
H141  H     H_    0.725641 0.818879 0.574167 0.211628
H142  H     H_    0.614964 0.852963 0.481224 0.213307
H143  H     H_    0.676318 0.892061 0.383229 0.265208
H144  H     H_    0.686543 0.818546 0.389388 0.270217
H145  H     H_    0.789295 0.860064 0.477628 0.280872
H146  H     H_    0.996869 0.089031 0.283667 0.154706
H147  H     H_    0.219969 0.912255 0.364380 0.111031
H148  H     H_    0.332006 0.944965 0.446668 0.120138
H149  H     H_    0.321998 0.820481 0.414145 0.206290
H150  H     H_    0.414932 0.862150 0.518415 0.199887
H151  H     H_    0.308892 0.885453 0.579476 0.269054
H152  H     H_    0.335375 0.813583 0.586633 0.280947
H153  H     H_    0.222888 0.838619 0.477118 0.276217
H154  H     H_    0.973055 0.088192 0.691848 0.156696
H155  H     H_    0.280533 0.652147 0.825037 0.208866
H156  H     H_    0.711537 0.656729 0.173541 0.196765
H157  H     H_    0.780547 0.152155 0.825040 0.208863
H158  H     H_    0.211534 0.156731 0.173539 0.196775
H159  H     H_    0.493584 0.334651 0.173025 0.164146
H160  H     H_    0.214985 0.703076 0.224485 0.138535
H161  H     H_    0.503713 0.334060 0.826452 0.167217
H162  H     H_    0.993582 0.834650 0.173022 0.164142
H163  H     H_    0.003711 0.834059 0.826453 0.167215
H164  H     H_    0.955406 0.439538 0.423846 0.190924
H165  H     H_    0.112808 0.519930 0.489406 0.120178
H166  H     H_    0.455393 0.939549 0.423894 0.190939
H167  H     H_    0.612793 0.019945 0.489457 0.120169
H168  H     H_    0.375048 0.284796 0.821259 0.237280
H169  H     H_    0.258685 0.315009 0.754161 0.268262
H170  H     H_    0.355137 0.351321 0.769514 0.256914
H171  H     H_    0.749907 0.722778 0.744745 0.131685
H172  H     H_    0.624904 0.283877 0.172128 0.227218
H173  H     H_    0.742736 0.308819 0.235970 0.258521
H174  H     H_    0.653415 0.348920 0.234344 0.255110
H175  H     H_    0.875035 0.784797 0.821252 0.237271
H176  H     H_    0.758674 0.815009 0.754161 0.268269
H177  H     H_    0.855123 0.851322 0.769505 0.256912
H178  H     H_    0.124910 0.783877 0.172138 0.227212
H179  H     H_    0.242739 0.808826 0.235987 0.258529
H180  H     H_    0.153408 0.848922 0.234343 0.255106
H181  H     H_    0.929067 0.595856 0.171757 0.134899
H182  H     H_    0.639120 0.518364 0.664194 0.137068
H183  H     H_    0.856775 0.536960 0.133403 0.077952
H184  H     H_    0.070470 0.540336 0.236357 0.217130
H185  H     H_    0.005891 0.478086 0.210783 0.198979
H186  H     H_    0.901829 0.498308 0.013458 0.274156
H187  H     H_    0.023885 0.497959 0.063037 0.274877
H188  H     H_    0.962999 0.562049 0.036868 0.272263
H189  H     H_    0.014933 0.548678 0.687183 0.110074
H190  H     H_    0.079987 0.489970 0.771806 0.111718
H191  H     H_    0.864488 0.496976 0.613815 0.191495
H192  H     H_    0.933122 0.441968 0.705770 0.212831
H193  H     H_    0.628524 0.522304 0.495935 0.139135
H194  H     H_    0.996125 0.505199 0.863675 0.276222
H195  H     H_    0.869340 0.503441 0.780269 0.274431
H196  H     H_    0.929193 0.560955 0.772478 0.267776
H197  H     H_    0.429076 0.095848 0.171785 0.134898
H198  H     H_    0.356819 0.036936 0.133440 0.077946
H199  H     H_    0.570518 0.040364 0.236438 0.217139
H200  H     H_    0.505989 0.978097 0.210901 0.198982
H201  H     H_    0.401938 0.998271 0.013563 0.274152
H202  H     H_    0.524000 0.997969 0.063164 0.274871
H203  H     H_    0.463036 0.062036 0.036923 0.272263
H204  H     H_    0.139079 0.018361 0.664166 0.137076
H205  H     H_    0.515352 0.048557 0.687782 0.110075
H206  H     H_    0.580052 0.989649 0.771919 0.111809
H207  H     H_    0.364596 0.997123 0.614020 0.191551
H208  H     H_    0.432898 0.941906 0.705537 0.212838
H209  H     H_    0.496293 0.004832 0.863926 0.276193
H210  H     H_    0.369499 0.003334 0.780526 0.274448
H211  H     H_    0.429696 0.060800 0.773188 0.267848
H212  H     H_    0.298499 0.762009 0.776636 0.128838
H213  H     H_    0.341978 0.771215 0.914772 0.088255
H214  H     H_    0.170805 0.831083 0.719166 0.218946
H215  H     H_    0.128488 0.022304 0.495911 0.139121
H216  H     H_    0.217393 0.842447 0.859708 0.189110
H217  H     H_    0.370410 0.872658 0.897806 0.268183
H218  H     H_    0.273396 0.913252 0.793413 0.271536
H219  H     H_    0.323977 0.861249 0.756990 0.270389
H220  H     H_    0.728475 0.760026 0.244529 0.120273
H221  H     H_    0.672642 0.765112 0.102866 0.097560
H222  H     H_    0.843502 0.829953 0.288190 0.207965
H223  H     H_    0.807405 0.832361 0.150021 0.198192
H224  H     H_    0.648316 0.865322 0.088724 0.267818
H225  H     H_    0.741224 0.909996 0.187441 0.269811
H226  H     H_    0.308724 0.561937 0.309665 0.245424
H227  H     H_    0.685499 0.864886 0.227704 0.275851
H228  H     H_    0.798512 0.262016 0.776639 0.128857
H229  H     H_    0.841996 0.271218 0.914778 0.088256
H230  H     H_    0.670817 0.331091 0.719186 0.218949
H231  H     H_    0.717428 0.342455 0.859734 0.189105
H232  H     H_    0.870438 0.372657 0.897792 0.268180
H233  H     H_    0.773419 0.413259 0.793428 0.271543
H234  H     H_    0.823967 0.361256 0.756963 0.270388
H235  H     H_    0.228468 0.260029 0.244500 0.120245
H236  H     H_    0.172659 0.265119 0.102842 0.097550
N1    N     N_R   0.395410 0.396350 0.944340 -0.060289
N2    N     N_R   0.474920 0.471030 0.794350 -0.062463
N3    N     N_R   0.025080 0.971030 0.205650 -0.061530
N4    N     N_R   0.974920 0.971030 0.794350 -0.062454
N5    N     N_R   0.320260 0.527820 0.794570 -0.125922
N6    N     N_R   0.679740 0.527820 0.205430 -0.144692
N7    N     N_R   0.820260 0.027820 0.794570 -0.125926
N8    N     N_R   0.179740 0.027820 0.205430 -0.144681
N9    N     N_R   0.524590 0.527840 0.205200 -0.065311
N10   N     N_R   0.475410 0.527840 0.794800 -0.060193
N11   N     N_R   0.024590 0.027840 0.205200 -0.065311
N12   N     N_R   0.604590 0.396350 0.055660 -0.060647
N13   N     N_R   0.975410 0.027840 0.794800 -0.060181
N14   N     N_R   0.320750 0.471000 0.795020 -0.128162
N15   N     N_R   0.679250 0.471000 0.204980 -0.125304
N16   N     N_R   0.820750 0.971000 0.795020 -0.128142
N17   N     N_R   0.179250 0.971000 0.204980 -0.125310
N18   N     N_R   0.393620 0.602490 0.942710 -0.050804
N19   N     N_R   0.606380 0.602490 0.057290 -0.055695
N20   N     N_R   0.893620 0.102490 0.942710 -0.050813
N21   N     N_R   0.106380 0.102490 0.057290 -0.055690
N22   N     N_R   0.451720 0.396350 0.057510 -0.051803
N23   N     N_R   0.895410 0.896350 0.944340 -0.060296
N24   N     N_R   0.548280 0.396350 0.942490 -0.051662
N25   N     N_R   0.951720 0.896350 0.057510 -0.051807
N26   N     N_R   0.048280 0.896350 0.942490 -0.051659
N27   N     N_R   0.104590 0.896350 0.055660 -0.060648
N28   N     N_R   0.449930 0.602500 0.055880 -0.041065
N29   N     N_R   0.550070 0.602500 0.944120 -0.038699
N30   N     N_R   0.949930 0.102500 0.055880 -0.041065
N31   N     N_R   0.050070 0.102500 0.944120 -0.038700
N32   N     N_R   0.525080 0.471030 0.205650 -0.061523
Ni1   Ni    Ni4+2 0.435420 0.434270 0.870230 0.190691
Ni2   Ni    Ni4+2 0.564580 0.434270 0.129770 0.189057
Ni3   Ni    Ni4+2 0.935420 0.934270 0.870230 0.190686
Ni4   Ni    Ni4+2 0.064580 0.934270 0.129770 0.189048
Ni5   Ni    Ni4+2 0.563430 0.564580 0.128740 0.173597
Ni6   Ni    Ni4+2 0.436570 0.564580 0.871260 0.180495
Ni7   Ni    Ni4+2 0.063430 0.064580 0.128740 0.173611
Ni8   Ni    Ni4+2 0.936570 0.064580 0.871260 0.180490
O1    O     O_3   0.957447 0.551527 0.301527 -0.626382
O2    O     O_3   0.601004 0.684310 0.721227 -0.680446
O3    O     O_3   0.855783 0.151386 0.257882 -0.685998
O4    O     O_3   0.101014 0.184329 0.721216 -0.680442
O5    O     O_3   0.204198 0.595297 0.673009 -0.664426
O6    O     O_3   0.804980 0.593928 0.305159 -0.626974
O7    O     O_3   0.704184 0.095296 0.673031 -0.664418
O8    O     O_3   0.304973 0.093931 0.305148 -0.626986
O9    O     O_3   0.205238 0.405447 0.668974 -0.654973
O10   O     O_3   0.802858 0.405827 0.306599 -0.667960
O11   O     O_3   0.705228 0.905450 0.668982 -0.654986
O12   O     O_3   0.008188 0.477744 0.605471 -0.680733
O13   O     O_3   0.302857 0.905831 0.306626 -0.667965
O14   O     O_3   0.457457 0.051526 0.301564 -0.626391
O15   O     O_3   0.508168 0.977743 0.605506 -0.680795
O16   O     O_3   0.207915 0.734079 0.810025 -0.666103
O17   O     O_3   0.807059 0.727858 0.195858 -0.656305
O18   O     O_3   0.707931 0.234086 0.810031 -0.666107
O19   O     O_3   0.307068 0.227854 0.195855 -0.656304
O20   O     O_3   0.355798 0.651396 0.257892 -0.685991

loop_
_geom_bond_atom_site_label_1
_geom_bond_atom_site_label_2
_ccdc_geom_bond_type
C105  C110  A    
C133  C137  S    
C53   H49   S    
C49   H38   S    
C107  C112  A    
C173  O9    S    
C65   H78   S    
C75   H105  S    
C11   H178  S    
C145  C146  A    
C112  O16   S    
C176  O11   S    
C19   O14   S    
C57   C102  S    
C47   H33   S    
C36   O19   S    
C21   H201  S    
C94   H149  S    
C124  C133  A    
C54   H51   S    
C79   C99   D    
C139  O2    S    
C110  C152  S    
C74   H102  S    
C143  C144  A    
N10   Ni6   S    
C32   H229  S    
C79   C90   S    
C77   H110  S    
C146  C150  A    
C135  C142  S    
C19   C20   S    
C61   H66   S    
C38   H6    S    
C75   H104  S    
C29   H220  S    
C45   H29   S    
C169  C174  A    
C62   C139  S    
C103  C132  A    
C19   H198  S    
C44   C135  S    
C40   C117  S    
C59   C60   S    
C16   H189  S    
C165  O5    S    
C24   C164  A    
C41   H16   S    
C177  N17   A    
C80   H117  S    
C27   H216  S    
C125  N28   A    
C71   H94   S    
C116  C121  A    
C17   H191  S    
C51   C52   S    
C89   H139  S    
C7    C119  A    
C176  N16   A    
C68   C101  S    
C11   C119  S    
C74   C75   S    
C63   H74   S    
N12   Ni2   S    
C85   H130  S    
C36   H236  S    
C169  N9    A    
C64   H77   S    
C98   C102  D    
C148  C174  S    
C33   H231  S    
C66   C161  S    
C6    C184  A    
C34   H232  S    
C152  C180  A    
C37   C38   S    
N1    Ni1   S    
C113  C120  A    
C8    H168  S    
C50   H40   S    
C47   H32   S    
C14   C15   S    
C26   C27   S    
C4    C122  S    
C55   H53   S    
C29   O17   S    
C154  C155  A    
C76   H107  S    
C82   H121  S    
C115  O19   S    
C119  N27   A    
C178  H155  S    
N27   Ni4   S    
C158  C159  S    
N7    N16   A    
C30   H222  S    
C65   H80   S    
C148  C153  A    
N5    N14   A    
C95   H152  S    
C27   H214  S    
C56   H54   S    
C93   H148  S    
C21   H203  S    
N18   Ni6   S    
C56   H56   S    
C7    C123  S    
C69   H89   S    
C126  C141  A    
C63   H73   S    
N2    Ni1   S    
C105  C140  S    
C67   C162  S    
C78   H111  S    
C37   H3    S    
N24   Ni1   S    
C87   H134  S    
N30   Ni7   S    
N19   N29   A    
C151  C153  A    
N23   N25   A    
C179  H156  S    
C26   O16   S    
C20   C21   S    
C127  N30   A    
C151  H182  S    
C181  N21   A    
C22   C23   S    
C103  C107  A    
C88   H137  S    
C38   H7    S    
C66   H83   S    
C8    H169  S    
N20   Ni8   S    
C123  C132  A    
C163  C181  A    
C1    C8    S    
C127  H101  S    
C42   H20   S    
C1    N1    A    
C55   H52   S    
C22   O15   S    
C86   H131  S    
C114  O18   S    
C156  H226  S    
C39   H9    S    
C102  O15   S    
C76   O7    S    
C36   C37   S    
C11   H179  S    
C145  C159  S    
C61   C138  S    
C68   C177  A    
C44   H25   S    
C58   H58   S    
C67   H86   S    
C153  H193  S    
C63   H72   S    
N6    Ni5   S    
C96   C98   S    
C31   H227  S    
N3    Ni4   S    
C89   C91   S    
C14   H185  S    
C110  C114  A    
C23   H207  S    
C98   H167  S    
C10   H176  S    
C25   H210  S    
C126  H90   S    
C92   H144  S    
C43   H22   S    
C94   C95   S    
N21   N31   A    
C65   C160  S    
C81   H119  S    
C82   H120  S    
N12   N24   A    
C85   H128  S    
C172  H154  S    
C106  C111  A    
C62   H71   S    
C69   H91   S    
C51   O2    S    
C70   H92   S    
C35   C173  A    
C168  N8    A    
C154  H204  S    
C9    H173  S    
C91   C92   S    
C70   O5    S    
C15   H188  S    
C10   H177  S    
C2    C147  S    
C71   H95   S    
C18   H196  S    
C59   H60   S    
C72   H96   S    
C172  N13   A    
C144  C156  S    
C147  C151  A    
C117  C122  A    
C29   C30   S    
C168  O8    S    
C108  N23   A    
C83   C84   S    
C132  C136  S    
C34   H233  S    
C51   H42   S    
C17   C18   S    
N13   Ni8   S    
C28   H217  S    
C22   H206  S    
C68   C168  A    
N25   Ni4   S    
C5    C97   A    
C20   H200  S    
C150  C155  A    
C41   C118  S    
C42   H18   S    
C54   H50   S    
C35   C100  S    
C91   H141  S    
C16   O12   S    
C122  C131  A    
C52   C53   S    
C40   H12   S    
C54   C55   S    
C78   H115  S    
C49   H37   S    
C136  H160  S    
C114  C116  A    
C146  C158  S    
C161  N2    A    
C94   H150  S    
C89   O11   S    
C44   H27   S    
C46   C99   S    
C71   C72   S    
N16   Ni3   S    
C69   H88   S    
C73   H99   S    
C40   H14   S    
C74   H103  S    
C12   H181  S    
C31   H225  S    
C96   H166  S    
C165  N5    A    
C24   C172  A    
C76   H108  S    
C53   H48   S    
C77   H109  S    
C73   O6    S    
C13   C171  A    
C60   H63   S    
C13   C162  A    
C49   C50   S    
C88   H136  S    
C46   C175  A    
C109  C141  S    
C72   H97   S    
C96   C101  D    
N17   Ni4   S    
C171  N11   A    
C19   H197  S    
C84   H127  S    
C40   H11   S    
C62   H69   S    
C155  H215  S    
C55   C56   S    
N4    Ni3   S    
C16   H190  S    
C73   C74   S    
C69   C164  S    
C138  O20   S    
C41   H15   S    
C65   H81   S    
C15   H186  S    
C128  H113  S    
C183  H161  S    
C48   H34   S    
C77   C78   S    
C137  C139  S    
C79   H164  S    
N26   N27   A    
C18   H194  S    
C13   C150  S    
C3    C7    A    
C107  C130  S    
C85   H129  S    
C30   C31   S    
C140  O3    S    
C33   H230  S    
N9    Ni5   S    
N7    Ni8   S    
C100  O12   S    
C28   H219  S    
C130  C178  A    
N5    Ni6   S    
C10   C108  S    
C52   H44   S    
C92   H145  S    
C16   C17   S    
C115  C117  A    
C47   H31   S    
C32   O18   S    
C106  C142  S    
C70   C71   S    
C58   O4    S    
C64   H75   S    
C67   H87   S    
C82   H122  S    
C167  O7    S    
C183  N24   A    
C166  O6    S    
C31   H224  S    
C126  N29   A    
C30   H223  S    
C182  H159  S    
N18   N28   A    
C75   H106  S    
C180  H157  S    
N26   Ni3   S    
C106  C131  A    
C21   H202  S    
C50   H39   S    
N2    N10   A    
C43   H23   S    
C162  N3    A    
C45   H28   S    
C84   C85   S    
C54   O3    S    
C103  C138  S    
C184  N25   A    
C9    H174  S    
C58   C59   S    
C12   H183  S    
C180  N20   A    
N19   Ni5   S    
C43   C134  S    
C149  C154  A    
C181  H158  S    
C92   H143  S    
C87   H133  S    
C38   H5    S    
C125  H79   S    
C45   H30   S    
C59   H61   S    
C2    C170  A    
C48   C49   S    
N14   Ni1   S    
C171  H146  S    
C157  H2    S    
C51   H43   S    
C93   O13   S    
C41   H17   S    
C88   H138  S    
C66   H84   S    
N3    N11   A    
C48   H36   S    
C8    H170  S    
C9    C97   S    
C46   C166  A    
C17   H192  S    
C141  C179  A    
C89   H140  S    
C160  C174  A    
C121  C129  A    
C36   H235  S    
C86   H132  S    
C57   C167  A    
N15   Ni2   S    
C142  O4    S    
C78   H114  S    
C104  C139  S    
N6    N15   A    
C160  N32   A    
C32   C33   S    
C134  C140  S    
C39   H8    S    
C64   C142  S    
N20   N30   A    
C156  H35   S    
C44   H26   S    
C118  C123  A    
C58   H59   S    
C52   H45   S    
C129  C134  S    
C67   H85   S    
C83   H125  S    
C87   C88   S    
C39   C116  S    
C97   N12   A    
C50   H41   S    
C167  N7    A    
C4    C182  A    
C5    C183  A    
C145  C149  A    
C25   H209  S    
C86   O10   S    
C60   H62   S    
C93   C94   S    
C43   H21   S    
C63   C140  S    
C56   H55   S    
C6    C124  S    
C144  C148  A    
C42   C120  S    
C81   H118  S    
C84   H126  S    
C81   C82   S    
C159  H24   S    
C143  C147  A    
C113  O17   S    
C178  N18   A    
C70   H93   S    
C156  C157  S    
C159  H68   S    
C166  N6    A    
C9    H172  S    
C131  C135  S    
C95   H151  S    
C104  C109  A    
C93   H147  S    
C15   H187  S    
C37   H4    S    
C164  N4    A    
N4    N13   A    
C95   H153  S    
C5    C121  S    
C158  H13   S    
C90   H165  S    
C170  N10   A    
C83   O9    S    
N8    N17   A    
C177  O13   S    
C34   H234  S    
N28   Ni5   S    
C28   H218  S    
C66   H82   S    
C61   H67   S    
C12   O1    S    
C134  H1    S    
C42   H19   S    
C173  N14   A    
C170  H135  S    
C2    C161  A    
C90   C100  D    
C157  H46   S    
C143  C157  S    
C39   H10   S    
C104  C133  A    
C29   H221  S    
C111  C163  S    
C76   C77   S    
N32   Ni2   S    
C11   H180  S    
C80   H116  S    
N8    Ni7   S    
C105  C129  A    
N31   Ni8   S    
C128  C163  A    
N29   Ni6   S    
N23   Ni3   S    
C158  H57   S    
C135  H112  S    
C127  C152  A    
C57   C176  A    
C169  H124  S    
C128  N31   A    
C83   H123  S    
C47   C137  S    
N9    N32   A    
C184  H162  S    
C33   C34   S    
C137  H171  S    
C14   H184  S    
C86   C87   S    
C23   H208  S    
C53   H47   S    
C61   H65   S    
C10   H175  S    
C25   H211  S    
C12   C14   S    
C60   H64   S    
C26   H212  S    
C72   H98   S    
C73   H100  S    
C136  C138  S    
C3    H163  S    
C182  N22   A    
C62   H70   S    
C45   C136  S    
C32   H228  S    
C101  O14   S    
C80   C81   S    
C175  N15   A    
C109  C113  A    
C26   H213  S    
N1    N22   A    
C18   H195  S    
C80   O8    S    
C1    C4    A    
N21   Ni7   S    
N11   Ni7   S    
C112  C118  A    
C99   O1    S    
C35   C165  A    
C179  N19   A    
C23   C25   S    
C24   C149  S    
C125  C130  A    
C22   H205  S    
C175  O10   S    
C120  C124  A    
C20   H199  S    
C3    N26   A    
C27   C28   S    
C6    C108  A    
N22   Ni2   S    
C111  C115  A    
C48   O20   S    
C91   H142  S    
C64   H76   S    
