data_mof_unit_53078.cif
_audit_creation_date              2012-12-10T17:37:23-0500
_audit_creation_method            fapswitch 2.2
_symmetry_space_group_name_H-M    P1
_symmetry_Int_Tables_number       1
_space_group_crystal_system       triclinic
_cell_length_a                    12.062326
_cell_length_b                    12.895297
_cell_length_c                    16.698635
_cell_angle_alpha                 91.727983
_cell_angle_beta                  81.833172
_cell_angle_gamma                 94.362805
_cell_volume                      2563.14301359

loop_
_atom_site_label
_atom_site_type_symbol
_atom_type_description
_atom_site_fract_x
_atom_site_fract_y
_atom_site_fract_z
_atom_type_partial_charge
C1    C     C_R   0.522849 0.700453 0.497200 0.912448
C2    C     C_R   0.559594 0.133939 0.499938 -0.245669
C3    C     C_R   0.448068 0.972940 0.490039 0.005017
C4    C     C_R   0.553290 0.027117 0.494924 0.005538
C5    C     C_R   0.955011 0.388043 0.433513 -0.004509
C6    C     C_R   0.041684 0.598654 0.576414 0.024851
C7    C     C_R   0.839705 0.401915 0.439932 -0.064715
C8    C     C_R   0.157784 0.589948 0.567027 -0.097368
C9    C     C_R   0.858434 0.547508 0.528226 0.188577
C10   C     C_R   0.144715 0.451533 0.471075 0.214772
C11   C     C_R   0.974582 0.534498 0.527987 0.019633
C12   C     C_R   0.477294 0.299583 0.500727 0.918011
C13   C     C_R   0.025438 0.456348 0.476769 -0.033381
C14   C     C_R   0.484613 0.499478 0.654000 0.863172
C15   C     C_R   0.514623 0.494256 0.346199 0.874749
C16   C     C_R   0.472902 0.483317 0.740665 -0.055505
C17   C     C_R   0.520639 0.461412 0.261822 -0.054543
C18   C     C_R   0.568499 0.488594 0.779398 -0.218226
C19   C     C_R   0.430989 0.399208 0.237406 -0.203398
C20   C     C_R   0.559622 0.460330 0.859378 -0.192183
C21   C     C_R   0.438953 0.357796 0.159695 -0.201232
C22   C     C_R   0.455086 0.424880 0.901627 0.184171
C23   C     C_R   0.463895 0.187833 0.498815 -0.138658
C24   C     C_R   0.536091 0.379954 0.104604 0.176248
C25   C     C_R   0.357588 0.423377 0.864150 0.125134
C26   C     C_R   0.629720 0.437187 0.129678 0.139794
C27   C     C_R   0.367395 0.452509 0.783387 -0.241555
C28   C     C_R   0.621157 0.477678 0.208872 -0.232977
C29   C     C_2   0.446278 0.399084 0.987066 -0.201826
C30   C     C_2   0.531474 0.362497 0.018372 -0.228451
C31   C     C_3   0.788217 0.028725 0.570388 0.072043
C32   C     C_3   0.883865 0.112087 0.573851 -0.841851
C33   C     C_3   0.177105 0.970045 0.549268 0.050425
C34   C     C_R   0.536697 0.812219 0.492581 -0.140727
C35   C     C_3   0.074457 0.898003 0.538010 -0.789058
C36   C     C_R   0.650579 0.973739 0.495339 0.494187
C37   C     C_R   0.351124 0.026795 0.488479 0.494094
C38   C     C_R   0.641728 0.865779 0.493027 -0.306287
C39   C     C_R   0.360006 0.134966 0.492336 -0.302896
C40   C     C_R   0.441246 0.865778 0.488498 -0.240776
H1    H     H_    0.650435 0.513499 0.747651 0.154148
H2    H     H_    0.634787 0.467850 0.888221 0.149882
H3    H     H_    0.639983 0.175394 0.504896 0.213307
H4    H     H_    0.360434 0.823927 0.485832 0.214648
H5    H     H_    0.286528 0.176977 0.489086 0.166267
H6    H     H_    0.716611 0.824980 0.492134 0.162165
H7    H     H_    0.979881 0.312906 0.325255 0.188369
H8    H     H_    0.954135 0.234295 0.406076 0.212837
H9    H     H_    0.948465 0.624036 0.684177 0.188454
H10   H     H_    0.054449 0.715018 0.662568 0.168082
H11   H     H_    0.224385 0.450396 0.947396 0.170422
H12   H     H_    0.355418 0.380855 0.278759 0.161048
H13   H     H_    0.189952 0.378739 0.868066 0.177783
H14   H     H_    0.767079 0.388692 0.059995 0.170331
H15   H     H_    0.787916 0.508023 0.100116 0.181108
H16   H     H_    0.818096 0.951990 0.582544 0.151576
H17   H     H_    0.718553 0.047582 0.618873 0.133601
H18   H     H_    0.853980 0.190026 0.565899 0.253606
H19   H     H_    0.914832 0.110706 0.633306 0.206587
H20   H     H_    0.954157 0.098188 0.525111 0.263513
H21   H     H_    0.149026 0.048670 0.567435 0.145375
H22   H     H_    0.217533 0.938636 0.598600 0.131237
H23   H     H_    0.210158 0.638642 0.602656 0.142184
H24   H     H_    0.100381 0.818733 0.520541 0.265690
H25   H     H_    0.015284 0.894118 0.595363 0.207248
H26   H     H_    0.031220 0.927125 0.489657 0.269014
H27   H     H_    0.189052 0.388114 0.360164 0.181514
H28   H     H_    0.176838 0.303008 0.438601 0.189340
H29   H     H_    0.796337 0.686512 0.523205 0.201396
H30   H     H_    0.738623 0.615922 0.606276 0.218759
H31   H     H_    0.786381 0.349433 0.407701 0.154267
H32   H     H_    0.692050 0.522654 0.228964 0.148240
H33   H     H_    0.293112 0.448314 0.753453 0.153907
H34   H     H_    0.606210 0.340023 0.979592 0.158394
H35   H     H_    0.372767 0.422793 0.026746 0.160912
H36   H     H_    0.367304 0.312222 0.141262 0.149470
N1    N     N_R   0.206400 0.519440 0.514690 -0.106664
N2    N     N_R   0.793600 0.480560 0.485310 -0.128160
N3    N     N_3   0.997392 0.303272 0.384029 -0.492660
N4    N     N_3   0.992442 0.669130 0.637362 -0.448853
N5    N     N_3   0.249891 0.389848 0.907615 -0.470425
N6    N     N_3   0.729944 0.458973 0.073340 -0.476507
N7    N     N_3   0.204322 0.378080 0.419328 -0.400299
N8    N     N_3   0.811757 0.637114 0.567752 -0.447080
O1    O     O_R   0.421320 0.658850 0.503920 -0.624692
O2    O     O_3   0.250723 0.974132 0.475631 -0.610637
O3    O     O_R   0.578680 0.341150 0.496080 -0.630846
O4    O     O_R   0.609840 0.646370 0.494500 -0.638753
O5    O     O_R   0.390160 0.353630 0.505500 -0.608122
O6    O     O_R   0.394600 0.506990 0.621070 -0.622590
O7    O     O_R   0.605400 0.493010 0.378930 -0.616789
O8    O     O_R   0.583120 0.494520 0.611640 -0.633082
O9    O     O_R   0.416880 0.505480 0.388360 -0.596302
O10   O     O_3   0.754889 0.027317 0.492644 -0.620192
Zn1   Zn    Zn3+2 0.374120 0.508330 0.506290 0.952848
Zn2   Zn    Zn3+2 0.625880 0.491670 0.493710 0.928054

loop_
_geom_bond_atom_site_label_1
_geom_bond_atom_site_label_2
_ccdc_geom_bond_type
O4    Zn2   S    
H27   N7    S    
C22   C29   S    
O1    Zn1   S    
C32   H18   S    
C4    C36   A    
O6    Zn1   S    
C12   C23   S    
C34   C40   A    
H8    N3    S    
C19   C21   A    
C24   C26   A    
C7    H31   S    
C30   H34   S    
C35   H25   S    
C10   N7    S    
O8    Zn2   S    
H13   N5    S    
C14   O6    A    
C17   C19   A    
O7    Zn2   S    
C19   H12   S    
N2    Zn2   S    
C33   H22   S    
C22   C25   A    
C35   H24   S    
H7    N3    S    
C31   H16   S    
C5    N3    S    
H30   N8    S    
H11   N5    S    
C5    C13   A    
C39   H5    S    
C1    O4    A    
C26   N6    S    
C25   N5    S    
C17   C28   A    
C28   H32   S    
C10   N1    A    
C1    C34   S    
C1    O1    A    
C12   O5    A    
C18   H1    S    
C6    C11   A    
C5    C7    A    
C6    C8    A    
C9    N8    S    
C35   H26   S    
N1    Zn1   S    
O5    Zn1   S    
C2    C4    A    
C33   O2    S    
C29   C30   D    
C37   O2    S    
C6    N4    S    
C31   C32   S    
C21   H36   S    
C2    H3    S    
O3    Zn2   S    
H15   N6    S    
C9    C11   A    
C14   O8    A    
C7    N2    A    
C16   C18   A    
C20   C22   A    
C3    C40   A    
C8    N1    A    
C14   C16   S    
C32   H20   S    
C3    C4    A    
H14   N6    S    
C15   C17   S    
C12   O3    A    
C34   C38   A    
H28   N7    S    
C10   C13   A    
H10   N4    S    
C15   O9    A    
C20   H2    S    
C29   H35   S    
C25   C27   A    
C31   O10   S    
C26   C28   A    
H9    N4    S    
C31   H17   S    
C36   C38   A    
C37   C39   A    
H29   N8    S    
C11   C13   A    
O9    Zn1   S    
C16   C27   A    
C23   C39   A    
C33   C35   S    
C18   C20   A    
C9    N2    A    
C24   C30   S    
C38   H6    S    
C8    H23   S    
C15   O7    A    
C36   O10   S    
C40   H4    S    
C3    C37   A    
C33   H21   S    
C21   C24   A    
C2    C23   A    
C32   H19   S    
C27   H33   S    
