data_mof_unit_35479.cif
_audit_creation_date              2012-12-10T17:25:19-0500
_audit_creation_method            fapswitch 2.2
_symmetry_space_group_name_H-M    P1
_symmetry_Int_Tables_number       1
_space_group_crystal_system       triclinic
_cell_length_a                    27.547182
_cell_length_b                    10.855689
_cell_length_c                    9.626968
_cell_angle_alpha                 89.791984
_cell_angle_beta                  87.475325
_cell_angle_gamma                 95.440422
_cell_volume                      2863.04508679

loop_
_atom_site_label
_atom_site_type_symbol
_atom_type_description
_atom_site_fract_x
_atom_site_fract_y
_atom_site_fract_z
_atom_type_partial_charge
C1    C     C_R   0.494127 0.261159 0.500283 0.874988
C2    C     C_R   0.272875 0.386843 0.487338 0.383059
C3    C     C_R   0.251835 0.492157 0.542059 -0.025282
C4    C     C_R   0.101105 0.480014 0.643626 -0.128094
C5    C     C_R   0.123716 0.369796 0.662497 -0.110228
C6    C     C_R   0.093858 0.258442 0.695003 0.300141
C7    C     C_R   0.130127 0.593970 0.637564 -0.113674
C8    C     C_R   0.353664 0.497209 0.504720 -0.320624
C9    C     C_R   0.644520 0.470666 0.499718 -0.104697
C10   C     C_R   0.971056 0.358027 0.609715 0.055120
C11   C     C_R   0.975507 0.584556 0.631797 0.066033
C12   C     C_R   0.407321 0.498604 0.501876 1.004948
C13   C     C_R   0.948012 0.469305 0.611790 0.077279
C14   C     C_R   0.943293 0.246860 0.575795 -0.206704
C15   C     C_R   0.893967 0.245250 0.548869 -0.143984
C16   C     C_R   0.870268 0.353605 0.559076 -0.032991
C17   C     C_R   0.897057 0.465331 0.593507 -0.053527
C18   C     C_R   0.872941 0.573288 0.608701 -0.018720
C19   C     C_R   0.822306 0.566786 0.593447 0.519097
C20   C     C_R   0.820376 0.353374 0.533674 0.589469
C21   C     C_R   0.710835 0.373738 0.606498 0.278286
C22   C     C_R   0.660500 0.377091 0.585843 0.159739
C23   C     C_R   0.492247 0.734419 0.501923 0.857664
C24   C     C_R   0.679457 0.550998 0.426727 -0.303860
C25   C     C_R   0.729024 0.541574 0.439403 -0.156643
C26   C     C_R   0.745327 0.456470 0.532147 0.267668
C27   C     C_R   0.021282 0.361952 0.638177 0.006489
C28   C     C_R   0.049730 0.477105 0.638554 0.078877
C29   C     C_R   0.027204 0.589111 0.632915 -0.001064
C30   C     C_R   0.043426 0.254861 0.672920 -0.215221
C31   C     C_R   0.107921 0.704935 0.625795 0.417189
C32   C     C_R   0.950188 0.691158 0.649334 -0.205730
C33   C     C_R   0.899756 0.685084 0.639637 -0.147372
C34   C     C_R   0.592205 0.491588 0.498437 0.795221
C35   C     C_R   0.057271 0.701843 0.624612 -0.260679
C36   C     C_R   0.435831 0.117451 0.728695 0.320637
C37   C     C_R   0.425988 0.060417 0.858106 0.339379
C38   C     C_R   0.434175 0.938106 0.874367 -0.199128
C39   C     C_R   0.446962 0.868147 0.759923 0.374757
C40   C     C_R   0.464350 0.927462 0.630717 -0.064848
C41   C     C_R   0.462273 0.058670 0.622045 -0.123259
C42   C     C_R   0.480744 0.124239 0.499608 -0.188149
C43   C     C_R   0.482829 0.056962 0.374450 0.349894
C44   C     C_R   0.477522 0.928261 0.377973 0.366302
C45   C     C_R   0.175515 0.376494 0.644980 0.644984
C46   C     C_R   0.478446 0.864243 0.505768 -0.202948
C47   C     C_R   0.558347 0.701524 0.124794 0.234608
C48   C     C_R   0.576185 0.804342 0.037418 0.233598
C49   C     C_R   0.576776 0.790509 0.894575 0.139697
C50   C     C_R   0.556996 0.681768 0.840211 -0.251224
C51   C     C_R   0.527948 0.592195 0.919206 0.149940
C52   C     C_R   0.528113 0.596450 0.068523 0.109122
C53   C     C_R   0.472242 0.414509 0.078019 0.059499
C54   C     C_R   0.472599 0.414266 0.930899 0.027317
C55   C     C_R   0.180831 0.591752 0.641252 0.669874
C56   C     C_R   0.280608 0.606134 0.516147 0.368639
C57   C     C_R   0.331639 0.608764 0.510633 0.288322
C58   C     C_R   0.324132 0.388916 0.471675 0.294939
Cu1   Cu    Cu3+1 0.500000 0.499990 0.640660 1.006629
Cu2   Cu    Cu3+1 0.500000 0.500010 0.359340 1.056645
H1    H     H_    0.968329 0.780158 0.674681 0.137538
H2    H     H_    0.669177 0.625732 0.364883 0.164169
H3    H     H_    0.881973 0.769228 0.654189 0.184582
H4    H     H_    0.755080 0.605240 0.381343 0.174525
H5    H     H_    0.042439 0.788996 0.608993 0.156967
H6    H     H_    0.421250 0.892050 0.970689 0.274498
H7    H     H_    0.448737 0.345512 0.136085 0.225233
H8    H     H_    0.566124 0.672522 0.733431 0.222546
H9    H     H_    0.450210 0.343728 0.880549 0.195402
H10   H     H_    0.874359 0.158186 0.521224 0.186277
H11   H     H_    0.959508 0.160589 0.563337 0.143787
H12   H     H_    0.020694 0.169836 0.691995 0.138888
N1    N     N_R   0.201784 0.486227 0.604933 -0.432747
N2    N     N_R   0.796994 0.458412 0.554039 -0.447374
N3    N     N_R   0.500460 0.501210 0.147910 -0.189844
N4    N     N_R   0.500480 0.501290 0.852040 -0.178414
O1    O     O_R   0.500000 0.319640 0.618810 -0.592213
O2    O     O_2   0.795647 0.249335 0.487596 -0.540326
O3    O     O_2   0.208013 0.688952 0.693558 -0.392392
O4    O     O_2   0.798534 0.668138 0.618483 -0.552639
O5    O     O_R   0.500000 0.319660 0.381240 -0.536557
O6    O     O_R   0.430260 0.500010 0.618770 -0.495100
O7    O     O_R   0.430270 0.500030 0.381200 -0.550770
O8    O     O_R   0.500000 0.680340 0.618760 -0.583393
O9    O     O_R   0.500000 0.680360 0.381190 -0.508167
O10   O     O_R   0.569730 0.499970 0.618800 -0.628098
O11   O     O_R   0.569740 0.499990 0.381230 -0.554312
O12   O     O_2   0.199159 0.276642 0.671520 -0.427445
Cl1   Cl    Cl    0.350606 0.262787 0.392650 -0.349764
Cl2   Cl    Cl    0.255242 0.732201 0.437809 -0.315986
Cl3   Cl    Cl    0.141871 0.849028 0.592624 -0.431180
Cl4   Cl    Cl    0.489391 0.128391 0.208301 -0.600932
Cl5   Cl    Cl    0.398732 0.234418 0.687208 -0.493560
Cl6   Cl    Cl    0.393004 0.129678 0.992934 -0.395082
Cl7   Cl    Cl    0.236816 0.269911 0.400408 -0.347741
Cl8   Cl    Cl    0.422153 0.714027 0.783083 -0.491402
Cl9   Cl    Cl    0.464487 0.850346 0.220235 -0.506752
N5    N     N_2   0.586097 0.684858 0.242224 -0.365204
H13   H     H_    0.615731 0.637996 0.214064 0.219363
C59   C     C_3   0.597135 0.784203 0.340761 -0.606555
H14   H     H_    0.594565 0.746000 0.448026 0.188687
H15   H     H_    0.571383 0.856410 0.335371 0.240361
H16   H     H_    0.635112 0.826877 0.321874 0.195539
N6    N     N_2   0.603973 0.909364 0.091810 -0.430235
H17   H     H_    0.641163 0.903709 0.087708 0.244838
C60   C     C_3   0.589957 0.030603 0.057266 -0.522706
H18   H     H_    0.590253 0.087930 0.152413 0.234567
H19   H     H_    0.552972 0.024658 0.014569 0.270242
H20   H     H_    0.616557 0.076889 0.979079 0.220546
N7    N     N_2   0.600809 0.883134 0.803758 -0.422352
H21   H     H_    0.581048 0.898982 0.717929 0.241785
C61   C     C_3   0.650919 0.864649 0.764871 -0.667117
H22   H     H_    0.652510 0.779705 0.701282 0.221831
H23   H     H_    0.672469 0.856502 0.858675 0.237975
H24   H     H_    0.667597 0.945207 0.702431 0.232981
N8    N     N_2   0.114308 0.154852 0.755489 -0.337387
H25   H     H_    0.139013 0.180155 0.830063 0.299221
C62   C     C_3   0.082845 0.045276 0.797603 -0.561858
H26   H     H_    0.105064 0.975784 0.841812 0.270496
H27   H     H_    0.064463 0.003135 0.706555 0.227485
H28   H     H_    0.055462 0.068587 0.879156 0.191736
N9    N     N_2   0.626769 0.285502 0.652525 -0.441789
H29   H     H_    0.598072 0.317867 0.708723 0.287362
C63   C     C_3   0.612451 0.180970 0.565801 -0.710202
H30   H     H_    0.594205 0.211717 0.472867 0.220172
H31   H     H_    0.586666 0.113800 0.625745 0.223313
H32   H     H_    0.644934 0.133748 0.531615 0.241667
N10   N     N_2   0.726800 0.290681 0.706072 -0.393627
H33   H     H_    0.706575 0.205813 0.713224 0.283050
C64   C     C_3   0.735322 0.344931 0.840820 -0.669765
H34   H     H_    0.749997 0.276292 0.909493 0.233253
H35   H     H_    0.700595 0.372194 0.889297 0.223098
H36   H     H_    0.762427 0.427374 0.831118 0.241597
Cl10  Cl    Cl    0.366905 0.751740 0.486676 -0.411990

loop_
_geom_bond_atom_site_label_1
_geom_bond_atom_site_label_2
_ccdc_geom_bond_type
C10   C27   A    
C21   C26   A    
C1    O1    A    
C41   C42   A    
Cu1   O6    S    
C7    C55   A    
C52   N3    A    
N10   H33   S    
Cu1   O1    S    
N6    C60   S    
C53   C54   A    
N8    H25   S    
C40   C46   A    
C28   C29   A    
C47   N5    S    
C36   C37   A    
C32   H1    S    
C34   O10   A    
C38   C39   A    
Cu2   O7    S    
C9    C22   A    
C60   H18   S    
C35   H5    S    
C1    O5    A    
C15   C16   A    
C48   N6    S    
C56   C57   A    
C44   Cl9   S    
C45   N1    A    
C18   C19   A    
C14   H11   S    
N7    H21   S    
C61   H22   S    
C8    C58   A    
C62   H26   S    
C36   Cl5   S    
C38   H6    S    
C16   C17   A    
C22   N9    S    
C16   C20   A    
C56   Cl2   S    
Cu1   Cu2   S    
C23   C46   S    
C21   C22   A    
C27   C30   A    
C36   C41   A    
C53   N3    A    
C4    C7    A    
C3    N1    S    
C61   H23   S    
N6    H17   S    
C4    C28   A    
Cu2   O11   S    
C44   C46   A    
C50   C51   A    
N7    C61   S    
C33   H3    S    
C7    C31   A    
C23   O8    A    
C12   O6    A    
C51   C52   A    
C45   O12   S    
C24   C25   A    
C10   C14   A    
C39   C40   A    
C25   C26   A    
C5    C45   A    
C59   H16   S    
C12   O7    A    
C25   H4    S    
C64   H35   S    
C43   C44   A    
C37   C38   A    
C8    C57   A    
C55   O3    S    
C3    C56   A    
C58   Cl1   S    
C47   C48   A    
C8    C12   S    
C59   H15   S    
C17   C18   A    
C20   N2    A    
Cu1   O8    S    
C21   N10   S    
C6    N8    S    
C63   H32   S    
C54   N4    A    
C40   C41   A    
C6    C30   A    
C11   C32   A    
N5    H13   S    
C31   Cl3   S    
C9    C34   S    
C31   C35   A    
C57   Cl10  S    
C64   H36   S    
C42   C43   A    
N9    C63   S    
C27   C28   A    
C63   H31   S    
C15   H10   S    
C48   C49   A    
C24   H2    S    
C19   N2    A    
C4    C5    A    
C10   C13   A    
N10   C64   S    
C30   H12   S    
Cu2   O9    S    
C2    C58   A    
C9    C24   A    
C47   C52   A    
C20   O2    S    
C29   C35   A    
Cu2   N3    S    
N5    C59   S    
C43   Cl4   S    
C13   C17   A    
C32   C33   A    
C64   H34   S    
Cu1   O10   S    
C11   C13   A    
C5    C6    A    
C54   H9    S    
C60   H19   S    
C59   H14   S    
C26   N2    S    
Cu2   O5    S    
N8    C62   S    
C37   Cl6   S    
C2    C3    A    
C34   O11   A    
C19   O4    S    
C53   H7    S    
C18   C33   A    
C62   H27   S    
C39   Cl8   S    
C55   N1    A    
C1    C42   S    
C11   C29   A    
C49   C50   A    
C23   O9    A    
C51   N4    A    
C14   C15   A    
C49   N7    S    
C2    Cl7   S    
N9    H29   S    
C50   H8    S    
Cu1   N4    S    
C62   H28   S    
C61   H24   S    
C63   H30   S    
C60   H20   S    
