data_mof_unit_15609.cif
_audit_creation_date              2012-12-11T16:23:18-0500
_audit_creation_method            fapswitch 2.2
_symmetry_space_group_name_H-M    P1
_symmetry_Int_Tables_number       1
_space_group_crystal_system       triclinic
_cell_length_a                    20.023852
_cell_length_b                    7.196125
_cell_length_c                    19.820211
_cell_angle_alpha                 89.72635
_cell_angle_beta                  98.61903
_cell_angle_gamma                 89.458019
_cell_volume                      2823.54104756

loop_
_atom_site_label
_atom_site_type_symbol
_atom_type_description
_atom_site_fract_x
_atom_site_fract_y
_atom_site_fract_z
_atom_type_partial_charge
O1    O     O_R   0.188410 0.619490 0.310050 -0.532595
O2    O     O_R   0.811590 0.380510 0.689950 -0.530563
O3    O     O_R   0.311590 0.119490 0.189950 -0.535297
O4    O     O_R   0.688410 0.880510 0.810050 -0.527573
O5    O     O_R   0.327280 0.288800 0.321740 -0.509471
O6    O     O_R   0.672720 0.711200 0.678260 -0.513151
O7    O     O_R   0.172720 0.788800 0.178260 -0.520222
O8    O     O_R   0.827280 0.211200 0.821740 -0.521648
C1    C     C_R   0.351857 0.456324 0.338566 0.740051
C2    C     C_R   0.648183 0.543918 0.661675 0.759812
C3    C     C_R   0.148621 0.958545 0.161414 0.788239
C4    C     C_R   0.851545 0.041581 0.838516 0.785527
O9    O     O_R   0.189900 0.289710 0.318190 -0.547903
O10   O     O_R   0.810100 0.710290 0.681810 -0.542135
O11   O     O_R   0.310100 0.789710 0.181810 -0.540666
O12   O     O_R   0.689900 0.210290 0.818190 -0.545379
O13   O     O_R   0.173230 0.120350 0.186370 -0.528245
O14   O     O_R   0.826770 0.879650 0.813630 -0.527050
O15   O     O_R   0.326770 0.620350 0.313630 -0.520364
O16   O     O_R   0.673230 0.379650 0.686370 -0.520526
C5    C     C_R   0.170231 0.458112 0.334159 0.700008
C6    C     C_R   0.828872 0.541386 0.664202 0.723625
C7    C     C_R   0.330170 0.957875 0.165527 0.752752
C8    C     C_R   0.668198 0.042384 0.832226 0.714925
O17   O     O_3   0.244690 0.453290 0.206760 -0.372003
O18   O     O_3   0.755310 0.546710 0.793240 -0.374081
O19   O     O_3   0.255310 0.953290 0.293240 -0.370856
O20   O     O_3   0.744690 0.046710 0.706760 -0.368081
V1    V     V_3+5 0.250980 0.178070 0.258020 1.520397
V2    V     V_3+5 0.749020 0.821930 0.741980 1.533422
V3    V     V_3+5 0.249020 0.678070 0.241980 1.521840
V4    V     V_3+5 0.750980 0.321930 0.758020 1.524750
C9    C     C_R   0.465429 0.142559 0.067584 0.376462
C10   C     C_R   0.576254 0.891456 0.976853 0.395821
C11   C     C_R   0.004173 0.500759 0.401177 0.319073
C12   C     C_R   0.961028 0.351673 0.561834 0.439757
C13   C     C_R   0.418561 0.126263 0.112962 -0.222761
C14   C     C_R   0.622953 0.901459 0.930525 -0.320972
C15   C     C_R   0.053373 0.494765 0.358048 -0.222260
C16   C     C_R   0.913036 0.366128 0.606781 -0.304132
H1    H     H_    0.414647 0.238908 0.148255 0.162649
H2    H     H_    0.665662 0.806223 0.936028 0.149692
H3    H     H_    0.037776 0.507983 0.303458 0.178086
H4    H     H_    0.905177 0.247316 0.638270 0.169199
C17   C     C_R   0.378751 0.967258 0.115086 -0.291533
C18   C     C_R   0.615995 0.034565 0.878060 -0.251118
C19   C     C_R   0.121621 0.465143 0.383482 -0.220272
C20   C     C_R   0.875717 0.530583 0.611870 -0.258598
C21   C     C_R   0.385473 0.822620 0.068243 0.319345
C22   C     C_R   0.559063 0.156432 0.870049 0.351025
C23   C     C_R   0.141542 0.438154 0.454684 0.220781
C24   C     C_R   0.885596 0.682070 0.568142 0.331265
C25   C     C_R   0.429075 0.840768 0.019260 0.415506
C26   C     C_R   0.511717 0.146975 0.915719 0.332505
C27   C     C_R   0.092750 0.457076 0.499467 0.411784
C28   C     C_R   0.936058 0.672985 0.525826 0.304637
C29   C     C_R   0.470954 0.999623 0.019334 -0.144859
C30   C     C_R   0.520362 0.014299 0.969893 -0.163875
C31   C     C_R   0.023893 0.486788 0.472985 -0.064098
C32   C     C_R   0.973396 0.505533 0.521387 -0.085151
C33   C     C_R   0.087190 0.963631 0.108617 -0.287154
C34   C     C_R   0.913213 0.036970 0.891249 -0.287965
C35   C     C_R   0.412606 0.454016 0.392993 -0.306559
C36   C     C_R   0.587489 0.547109 0.607634 -0.308455
C37   C     C_R   0.025016 0.163106 0.934102 0.351076
C38   C     C_R   0.975238 0.838948 0.066273 0.354013
C39   C     C_R   0.490865 0.723571 0.547138 0.364723
C40   C     C_R   0.509158 0.278012 0.454402 0.358465
C41   C     C_R   0.968974 0.146104 0.881562 0.290487
C42   C     C_R   0.030786 0.858660 0.119095 0.286563
C43   C     C_R   0.541888 0.699086 0.604103 0.314752
C44   C     C_R   0.457046 0.298825 0.398251 0.328155
C45   C     C_R   0.914145 0.939050 0.953186 0.434564
C46   C     C_R   0.086768 0.059327 0.046354 0.428952
C47   C     C_R   0.578367 0.410983 0.556330 0.438828
C48   C     C_R   0.423814 0.596107 0.442301 0.420293
C49   C     C_R   0.972428 0.942966 0.004721 -0.173702
C50   C     C_R   0.028333 0.056312 0.995002 -0.172655
C51   C     C_R   0.522055 0.422189 0.502862 -0.193166
C52   C     C_R   0.478898 0.582156 0.497165 -0.188271
O21   O     O_3   0.504367 0.300974 0.072639 -0.610767
H5    H     H_    0.540756 0.289066 0.044285 0.316769
O22   O     O_3   0.584220 0.762921 0.029559 -0.613887
H6    H     H_    0.625356 0.686882 0.027187 0.295934
O23   O     O_3   0.937766 0.520798 0.370687 -0.623580
H7    H     H_    0.907226 0.493720 0.404250 0.307898
O24   O     O_3   0.996481 0.188017 0.556522 -0.601741
H8    H     H_    0.983106 0.095212 0.589017 0.314431
O25   O     O_3   0.347100 0.664990 0.066708 -0.602981
H9    H     H_    0.365870 0.592562 0.108020 0.306780
O26   O     O_3   0.546058 0.282813 0.816843 -0.617478
H10   H     H_    0.568832 0.241243 0.778502 0.284800
O27   O     O_3   0.207356 0.393927 0.482415 -0.663869
H11   H     H_    0.233112 0.354260 0.446068 0.277293
O28   O     O_3   0.846541 0.841630 0.564583 -0.612449
H12   H     H_    0.799300 0.804283 0.566152 0.286413
O29   O     O_3   0.429252 0.698068 0.972728 -0.579704
H13   H     H_    0.452180 0.737765 0.934323 0.314091
O30   O     O_3   0.456928 0.267634 0.904092 -0.587527
H14   H     H_    0.423211 0.235201 0.933743 0.316260
O31   O     O_3   0.110500 0.446777 0.569641 -0.622142
H15   H     H_    0.160062 0.433215 0.581775 0.337955
O32   O     O_3   0.945480 0.829933 0.487990 -0.593252
H16   H     H_    0.989074 0.820558 0.470442 0.309278
O33   O     O_3   0.143658 0.157941 0.036671 -0.514838
C53   C     C_3   0.187893 0.038072 0.007945 -0.091518
H17   H     H_    0.205827 0.920747 0.042951 0.096134
H18   H     H_    0.232976 0.117966 0.999245 0.162408
H19   H     H_    0.163870 0.983591 0.957736 0.141486
O34   O     O_3   0.857390 0.840205 0.963063 -0.515383
C54   C     C_3   0.813675 0.959263 0.992874 -0.123180
H20   H     H_    0.772432 0.874989 0.008409 0.151594
H21   H     H_    0.790331 0.065935 0.955687 0.083175
H22   H     H_    0.839792 0.027750 0.039693 0.137987
O35   O     O_3   0.382628 0.752906 0.434997 -0.506351
C55   C     C_3   0.325929 0.722547 0.468068 -0.027203
H23   H     H_    0.288449 0.636011 0.436013 0.092124
H24   H     H_    0.301351 0.858661 0.474715 0.156185
H25   H     H_    0.339550 0.658738 0.519719 0.121456
O36   O     O_3   0.625041 0.266902 0.558824 -0.504312
C56   C     C_3   0.677219 0.321368 0.522484 -0.074322
H26   H     H_    0.714272 0.205247 0.524069 0.162459
H27   H     H_    0.704708 0.444124 0.546079 0.052389
H28   H     H_    0.657529 0.351086 0.467925 0.123699
O37   O     O_3   0.030595 0.770786 0.181347 -0.558377
C57   C     C_3   0.002053 0.894513 0.224426 -0.228571
H29   H     H_    0.948974 0.931795 0.203036 0.153458
H30   H     H_    0.032808 0.022372 0.234126 0.128265
H31   H     H_    0.001125 0.825575 0.274375 0.184920
O38   O     O_3   0.967504 0.243886 0.821039 -0.549843
C58   C     C_3   0.997589 0.132213 0.775356 -0.245352
H32   H     H_    0.049325 0.084583 0.797714 0.149340
H33   H     H_    0.002700 0.216408 0.729475 0.174845
H34   H     H_    0.965357 0.010850 0.758680 0.131510
O39   O     O_3   0.448367 0.161753 0.349014 -0.531364
C59   C     C_3   0.487733 0.206549 0.298015 -0.219927
H35   H     H_    0.542296 0.216129 0.319289 0.138664
H36   H     H_    0.469810 0.338206 0.271285 0.119476
H37   H     H_    0.482525 0.093859 0.259671 0.164600
O40   O     O_3   0.549221 0.831344 0.655153 -0.541626
C60   C     C_3   0.512582 0.773531 0.706847 -0.201516
H38   H     H_    0.457815 0.760338 0.686970 0.143588
H39   H     H_    0.517690 0.880392 0.747391 0.160494
H40   H     H_    0.532991 0.640404 0.730719 0.151746
O41   O     O_3   0.076727 0.284797 0.927136 -0.603952
H41   H     H_    0.065182 0.361290 0.885330 0.329839
O42   O     O_3   0.923236 0.718972 0.073971 -0.607741
H42   H     H_    0.934561 0.644811 0.116389 0.328287
O43   O     O_3   0.451734 0.884166 0.540001 -0.607615
H43   H     H_    0.469861 0.977447 0.574285 0.339928
O44   O     O_3   0.547769 0.116514 0.463046 -0.604379
H44   H     H_    0.528663 0.020362 0.430392 0.340351

loop_
_geom_bond_atom_site_label_1
_geom_bond_atom_site_label_2
_ccdc_geom_bond_type
C33   C42   A    
O17   V3    S    
C6    C20   S    
O24   H8    S    
O1    C5    A    
O31   H15   S    
C7    C17   S    
C27   C31   A    
O19   V1    S    
O13   V1    S    
O3    C7    A    
O28   H12   S    
C58   H34   S    
O15   V3    S    
O29   H13   S    
O39   C59   S    
C49   C50   A    
O18   V4    S    
C57   H29   S    
C11   C31   A    
C14   H2    S    
C60   H39   S    
O41   H41   S    
C11   C15   A    
O4    C8    A    
C37   C41   A    
C39   O43   S    
C35   C48   A    
O35   C55   S    
O1    V3    S    
C48   O35   S    
C55   H23   S    
C24   O28   S    
O2    V4    S    
C36   C43   A    
O3    V1    S    
C45   C49   A    
O34   C54   S    
C56   H28   S    
C14   C18   A    
C1    O15   A    
O42   H42   S    
C2    O16   A    
C41   O38   S    
O2    C6    A    
C9    C29   A    
O44   H44   S    
C34   C45   A    
O14   V2    S    
C17   C21   A    
C16   H4    S    
C39   C43   A    
O8    C4    A    
C40   C51   A    
O11   C7    A    
C31   C32   S    
O12   C8    A    
C10   C14   A    
O10   V2    S    
C59   H37   S    
O16   V4    S    
O21   H5    S    
O5    V1    S    
C12   O24   S    
O7    V3    S    
C47   O36   S    
O8    V4    S    
C45   O34   S    
O40   C60   S    
C59   H36   S    
C60   H40   S    
O26   H10   S    
C25   C29   A    
C44   O39   S    
C19   C23   A    
C57   H31   S    
C25   O29   S    
O23   H7    S    
C9    C13   A    
C28   C32   A    
C34   C41   A    
O7    C3    A    
O5    C1    A    
C4    C34   S    
O22   H6    S    
C12   C16   A    
C40   C44   A    
C56   H26   S    
O9    C5    A    
C54   H21   S    
O27   H11   S    
C22   C26   A    
C53   H17   S    
C38   O42   S    
C23   O27   S    
C42   O37   S    
O6    V2    S    
C9    O21   S    
O37   C57   S    
C26   O30   S    
C10   O22   S    
C13   C17   A    
C58   H32   S    
O36   C56   S    
C15   C19   A    
C26   C30   A    
O9    V1    S    
C16   C20   A    
C38   C49   A    
C18   C22   A    
C3    O13   A    
C57   H30   S    
C37   C50   A    
C54   H20   S    
C1    C35   S    
C2    C36   S    
C39   C52   A    
C48   C52   A    
C28   O32   S    
C21   O25   S    
C59   H35   S    
C58   H33   S    
O6    C2    A    
C15   H3    S    
C55   H25   S    
O11   V3    S    
C43   O40   S    
C33   C46   A    
O12   V4    S    
O33   C53   S    
C27   O31   S    
O30   H14   S    
C8    C18   S    
O10   C6    A    
O20   V2    S    
O38   C58   S    
C40   O44   S    
O43   H43   S    
C46   O33   S    
C11   O23   S    
C29   C30   S    
C38   C42   A    
C53   H18   S    
C21   C25   A    
C37   O41   S    
C36   C47   A    
C55   H24   S    
C54   H22   S    
C23   C27   A    
C3    C33   S    
C13   H1    S    
C56   H27   S    
C51   C52   A    
C22   O26   S    
C20   C24   A    
C35   C44   A    
C46   C50   A    
C4    O14   A    
O32   H16   S    
C10   C30   A    
C12   C32   A    
O25   H9    S    
C60   H38   S    
C47   C51   A    
O4    V2    S    
C24   C28   A    
C5    C19   S    
C53   H19   S    
