data_mof_unit_49249.cif
_audit_creation_date              2012-10-26T20:13:53-0400
_audit_creation_method            fapswitch 2.2
_symmetry_space_group_name_H-M    P1
_symmetry_Int_Tables_number       1
_space_group_crystal_system       triclinic
_cell_length_a                    8.7484
_cell_length_b                    10.820339
_cell_length_c                    9.550111
_cell_angle_alpha                 90.041422
_cell_angle_beta                  97.871793
_cell_angle_gamma                 90.192444
_cell_volume                      895.495489412

loop_
_atom_site_label
_atom_site_type_symbol
_atom_type_description
_atom_site_fract_x
_atom_site_fract_y
_atom_site_fract_z
_atom_type_partial_charge
C1    C     C_R   0.496913 0.262339 0.499532 0.545963
C2    C     C_R   0.571379 0.592810 0.935377 0.167707
C3    C     C_3   0.738801 0.624166 0.952331 -0.284154
C4    C     C_R   0.204104 0.503598 0.464263 0.579791
C5    C     C_3   0.736771 0.627703 0.110548 -0.272865
C6    C     C_R   0.497350 0.737679 0.499632 0.564643
C7    C     C_R   0.795767 0.507212 0.535937 0.515765
C8    C     C_2   0.038295 0.501202 0.447339 -0.126680
C9    C     C_2   0.959116 0.533460 0.553196 -0.031757
C10   C     C_R   0.480900 0.063688 0.623084 0.020045
C11   C     C_R   0.481275 0.129209 0.497326 0.006262
C12   C     C_R   0.460478 0.935376 0.368587 -0.158420
C13   C     C_R   0.460062 0.064236 0.368505 -0.161156
C14   C     C_2   0.024907 0.607791 0.678501 0.236698
C15   C     C_R   0.482079 0.870761 0.497485 0.019683
C16   C     C_R   0.481547 0.936485 0.623169 0.052385
C17   C     C_3   0.590560 0.930814 0.757803 -0.270132
C18   C     C_3   0.589220 0.071099 0.758059 -0.269726
C19   C     C_R   0.570457 0.593369 0.082702 0.158507
C20   C     C_R   0.417507 0.415037 0.063972 -0.013125
C21   C     C_R   0.417359 0.415112 0.915096 -0.010846
Cu1   Cu    Cu3+1 0.499990 0.499980 0.640670 0.973207
Cu2   Cu    Cu3+1 0.500010 0.500020 0.359330 0.942223
H1    H     H_    0.981101 0.458803 0.350959 0.090220
H2    H     H_    0.704415 0.891374 0.742779 0.135531
H3    H     H_    0.533262 0.110903 0.845530 0.134229
H4    H     H_    0.702395 0.113003 0.744071 0.143253
H5    H     H_    0.353120 0.344774 0.111572 0.110891
H6    H     H_    0.987840 0.591055 0.780133 0.094772
H7    H     H_    0.352770 0.344970 0.851188 0.112270
H8    H     H_    0.808826 0.546437 0.920273 0.140037
H9    H     H_    0.761834 0.715596 0.906804 0.121194
H10   H     H_    0.809337 0.554589 0.167021 0.154233
H11   H     H_    0.754441 0.721939 0.156451 0.130116
H12   H     H_    0.450713 0.112281 0.268244 0.129521
H13   H     H_    0.451373 0.887119 0.268361 0.136979
H14   H     H_    0.536105 0.889629 0.845547 0.145763
N1    N     N_R   0.500980 0.500930 0.148050 -0.232075
N2    N     N_R   0.500990 0.500890 0.852140 -0.227112
O1    O     O_R   0.500000 0.319640 0.618810 -0.510074
O2    O     O_R   0.500020 0.319680 0.381230 -0.513855
O3    O     O_R   0.274830 0.499980 0.591380 -0.462904
O4    O     O_R   0.274850 0.500020 0.353800 -0.508348
O5    O     O_R   0.499980 0.680320 0.618770 -0.476635
O6    O     O_R   0.500000 0.680360 0.381190 -0.509652
O7    O     O_R   0.725150 0.499980 0.646200 -0.521222
O8    O     O_R   0.725170 0.500020 0.408620 -0.506960
O9    O     O_2   0.115268 0.692378 0.667304 -0.494189

loop_
_geom_bond_atom_site_label_1
_geom_bond_atom_site_label_2
_ccdc_geom_bond_type
C14   O9    D    
C9    C14   S    
C5    C19   S    
C6    O6    A    
C12   H13   S    
Cu2   N1    S    
C20   N1    A    
C21   H7    S    
C1    C11   S    
C12   C15   A    
C4    C8    S    
C17   H2    S    
C5    H11   S    
C2    C3    S    
C2    C19   A    
Cu1   O1    S    
C10   C16   A    
C17   H14   S    
C20   C21   A    
C3    H8    S    
C11   C13   A    
Cu1   O3    S    
C4    O3    A    
C10   C18   S    
Cu2   O6    S    
Cu1   N2    S    
C2    N2    A    
C1    O2    A    
C8    H1    S    
C4    O4    A    
C13   H12   S    
C3    H9    S    
Cu2   O8    S    
C10   C11   A    
C14   H6    S    
C15   C16   A    
C7    O7    A    
C19   N1    A    
Cu2   O4    S    
C12   C13   A    
C17   C18   S    
C7    C9    S    
Cu1   Cu2   S    
C16   C17   S    
C6    O5    A    
C20   H5    S    
C1    O1    A    
Cu1   O7    S    
C6    C15   S    
C18   H3    S    
C21   N2    A    
Cu1   O5    S    
C18   H4    S    
C7    O8    A    
C5    H10   S    
C8    C9    D    
C3    C5    S    
Cu2   O2    S    
