data_mof_unit_63099.cif
_audit_creation_date              2012-12-10T18:09:56-0500
_audit_creation_method            fapswitch 2.2
_symmetry_space_group_name_H-M    P1
_symmetry_Int_Tables_number       1
_space_group_crystal_system       triclinic
_cell_length_a                    18.37045
_cell_length_b                    18.370523
_cell_length_c                    59.794536
_cell_angle_alpha                 89.999903
_cell_angle_beta                  89.999889
_cell_angle_gamma                 89.999855
_cell_volume                      20179.1475376

loop_
_atom_site_label
_atom_site_type_symbol
_atom_type_description
_atom_site_fract_x
_atom_site_fract_y
_atom_site_fract_z
_atom_type_partial_charge
C1    C     C_R   0.500000 1.000000 0.810452 0.510927
C2    C     C_R   0.514265 0.935382 0.441014 -0.016670
C3    C     C_R   0.859677 0.640322 0.750000 0.513561
C4    C     C_R   0.359677 0.859677 0.250000 0.513733
C5    C     C_R   0.640322 0.140322 0.750000 0.513548
C6    C     C_R   0.859677 0.640322 0.250000 0.513744
C7    C     C_R   0.140322 0.359678 0.750000 0.513560
C8    C     C_R   0.756827 0.189800 0.735845 -0.130697
C9    C     C_R   0.243172 0.810200 0.264155 -0.130604
C10   C     C_R   0.810201 0.756827 0.735845 -0.130661
C11   C     C_R   0.189799 0.243172 0.264155 -0.130567
C12   C     C_R   0.243173 0.810200 0.735845 -0.130696
C13   C     C_R   0.935587 0.515236 0.558979 -0.016590
C14   C     C_R   0.756827 0.189800 0.264155 -0.130604
C15   C     C_R   0.189799 0.243173 0.735845 -0.130660
C16   C     C_R   0.810201 0.756828 0.264155 -0.130567
C17   C     C_R   0.756828 0.810201 0.264155 -0.130672
C18   C     C_R   0.243172 0.189799 0.735845 -0.130577
C19   C     C_R   0.810200 0.243173 0.264155 -0.130708
C20   C     C_R   0.189800 0.756827 0.735845 -0.130612
C21   C     C_R   0.243172 0.189799 0.264155 -0.130673
C22   C     C_R   0.756828 0.810201 0.735845 -0.130577
C23   C     C_R   0.189799 0.756826 0.264155 -0.130708
C24   C     C_R   0.064864 0.513115 0.441005 -0.016720
C25   C     C_R   0.810200 0.243173 0.735845 -0.130611
C26   C     C_R   0.256827 0.689800 0.235845 -0.130680
C27   C     C_R   0.743172 0.310200 0.764155 -0.130589
C28   C     C_R   0.310201 0.256827 0.235845 -0.130682
C29   C     C_R   0.689799 0.743172 0.764155 -0.130591
C30   C     C_R   0.743173 0.310200 0.235845 -0.130679
C31   C     C_R   0.256827 0.689800 0.764155 -0.130589
C32   C     C_R   0.689799 0.743173 0.235845 -0.130682
C33   C     C_R   0.310201 0.256828 0.764155 -0.130591
C34   C     C_R   0.256827 0.310201 0.764155 -0.130690
C35   C     C_R   0.485903 0.935344 0.558988 -0.016641
C36   C     C_R   0.743172 0.689799 0.235845 -0.130591
C37   C     C_R   0.310200 0.743173 0.764155 -0.130686
C38   C     C_R   0.689800 0.256827 0.235845 -0.130588
C39   C     C_R   0.743172 0.689799 0.764155 -0.130690
C40   C     C_R   0.256828 0.310201 0.235845 -0.130591
C41   C     C_R   0.689800 0.256826 0.764155 -0.130686
C42   C     C_R   0.310200 0.743173 0.235845 -0.130588
C43   C     C_R   0.803640 0.303640 0.750000 0.041112
C44   C     C_R   0.196360 0.696360 0.250000 0.041129
C45   C     C_R   0.696360 0.803640 0.750000 0.041112
C46   C     C_R   0.485738 0.064635 0.441013 -0.016670
C47   C     C_R   0.303640 0.196360 0.250000 0.041128
C48   C     C_R   0.196360 0.696360 0.750000 0.041112
C49   C     C_R   0.803640 0.303640 0.250000 0.041129
C50   C     C_R   0.303640 0.196360 0.750000 0.041112
C51   C     C_R   0.696360 0.803640 0.250000 0.041129
C52   C     C_R   0.803640 0.696360 0.250000 0.041115
C53   C     C_R   0.196360 0.303640 0.750000 0.041128
C54   C     C_R   0.696360 0.196360 0.250000 0.041115
C55   C     C_R   0.303640 0.803640 0.750000 0.041128
C56   C     C_R   0.196360 0.303640 0.250000 0.041115
C57   C     C_R   0.064395 0.484761 0.558979 -0.016589
C58   C     C_R   0.803640 0.696360 0.750000 0.041128
C59   C     C_R   0.303640 0.803640 0.250000 0.041115
C60   C     C_R   0.696360 0.196360 0.750000 0.041128
C61   C     C_R   0.514064 0.063406 0.582498 0.403961
C62   C     C_R   0.514229 0.936646 0.417504 0.403929
C63   C     C_R   0.936847 0.515170 0.582489 0.403934
C64   C     C_R   0.063596 0.513112 0.417495 0.403954
C65   C     C_R   0.485933 0.936609 0.582498 0.403961
C66   C     C_R   0.485774 0.063370 0.417503 0.403930
C67   C     C_R   0.063135 0.484827 0.582489 0.403934
C68   C     C_R   0.935120 0.486888 0.441005 -0.016720
C69   C     C_R   0.936389 0.486891 0.417495 0.403954
C70   C     C_R   0.014292 0.563355 0.082496 0.403946
C71   C     C_R   0.013999 0.436594 0.917502 0.403943
C72   C     C_R   0.436623 0.014198 0.082497 0.403947
C73   C     C_R   0.563386 0.014092 0.917503 0.403941
C74   C     C_R   0.985705 0.436660 0.082496 0.403944
C75   C     C_R   0.986003 0.563421 0.917502 0.403944
C76   C     C_R   0.563361 0.985799 0.082497 0.403946
C77   C     C_R   0.436599 0.985911 0.917503 0.403942
C78   C     C_R   0.434423 0.993223 0.629547 -0.056842
C79   C     C_R   0.014330 0.564620 0.058986 -0.016645
C80   C     C_R   0.434418 0.006725 0.370453 -0.056849
C81   C     C_R   0.006262 0.434372 0.629546 -0.056821
C82   C     C_R   0.992744 0.434474 0.370451 -0.056870
C83   C     C_R   0.565575 0.006788 0.629547 -0.056843
C84   C     C_R   0.565584 0.993287 0.370453 -0.056848
C85   C     C_R   0.993724 0.565625 0.629546 -0.056822
C86   C     C_R   0.007246 0.565527 0.370451 -0.056869
C87   C     C_R   0.934412 0.493330 0.129547 -0.056842
C88   C     C_R   0.934430 0.506842 0.870452 -0.056849
C89   C     C_R   0.506702 0.934416 0.129547 -0.056844
C90   C     C_R   0.014028 0.435329 0.941012 -0.016667
C91   C     C_R   0.493179 0.934428 0.870452 -0.056847
C92   C     C_R   0.065586 0.506682 0.129547 -0.056842
C93   C     C_R   0.065571 0.493168 0.870452 -0.056848
C94   C     C_R   0.493286 0.065582 0.129547 -0.056845
C95   C     C_R   0.506811 0.065573 0.870452 -0.056845
C96   C     C_R   0.434328 0.993403 0.652906 -0.135014
C97   C     C_R   0.434323 0.006542 0.347094 -0.135029
C98   C     C_R   0.006095 0.434281 0.652905 -0.135087
C99   C     C_R   0.992939 0.434376 0.347092 -0.134957
C100  C     C_R   0.565671 0.006603 0.652906 -0.135016
C101  C     C_R   0.435358 0.014232 0.058987 -0.016651
C102  C     C_R   0.565678 0.993464 0.347094 -0.135027
C103  C     C_R   0.993897 0.565718 0.652905 -0.135088
C104  C     C_R   0.007056 0.565625 0.347092 -0.134956
C105  C     C_R   0.934318 0.493507 0.152906 -0.135029
C106  C     C_R   0.934334 0.506657 0.847094 -0.135014
C107  C     C_R   0.506524 0.934321 0.152906 -0.135022
C108  C     C_R   0.493364 0.934333 0.847094 -0.135022
C109  C     C_R   0.065681 0.506499 0.152906 -0.135031
C110  C     C_R   0.065666 0.493349 0.847093 -0.135013
C111  C     C_R   0.493469 0.065678 0.152906 -0.135023
C112  C     C_R   0.500000 0.000000 0.189547 0.510928
C113  C     C_R   0.564650 0.014124 0.941013 -0.016660
C114  C     C_R   0.506631 0.065668 0.847093 -0.135021
C115  C     C_R   0.499999 0.000007 0.617774 0.239945
C116  C     C_R   0.500001 0.000007 0.382227 0.239893
C117  C     C_R   0.999992 0.499999 0.617770 0.239694
C118  C     C_R   0.999994 0.500001 0.382223 0.240135
C119  C     C_R   0.999999 0.500007 0.117773 0.239890
C120  C     C_R   0.000001 0.500006 0.882226 0.239946
C121  C     C_R   0.499992 0.999999 0.117773 0.239917
C122  C     C_R   0.499994 0.000001 0.882226 0.239914
C123  C     C_R   0.499999 0.000008 0.547153 -0.054063
C124  C     C_R   0.985668 0.435396 0.058986 -0.016646
C125  C     C_R   0.500001 0.000008 0.452849 -0.054075
C126  C     C_R   0.999991 0.499999 0.547144 -0.054053
C127  C     C_R   0.999992 0.500001 0.452840 -0.054084
C128  C     C_R   0.999999 0.500008 0.047151 -0.054066
C129  C     C_R   0.000001 0.500008 0.952847 -0.054072
C130  C     C_R   0.499992 0.999999 0.047152 -0.054067
C131  C     C_R   0.499992 0.000001 0.952848 -0.054071
C132  C     C_R   0.985974 0.564686 0.941012 -0.016666
C133  C     C_R   0.564625 0.985765 0.058987 -0.016651
C134  C     C_R   0.435334 0.985878 0.941013 -0.016660
C135  C     C_R   0.530248 0.128437 0.547150 -0.038288
C136  C     C_R   0.530587 0.871660 0.452851 -0.038316
C137  C     C_R   0.872120 0.532526 0.547141 -0.038302
C138  C     C_R   0.128868 0.528294 0.452842 -0.038304
C139  C     C_R   0.469750 0.871580 0.547150 -0.038288
C140  C     C_R   1.000000 0.500000 0.810453 0.510926
C141  C     C_R   0.469416 0.128357 0.452851 -0.038316
C142  C     C_R   0.127862 0.467471 0.547141 -0.038302
C143  C     C_R   0.871116 0.471709 0.452842 -0.038305
C144  C     C_R   0.030718 0.628325 0.047149 -0.038302
C145  C     C_R   0.030115 0.371547 0.952849 -0.038303
C146  C     C_R   0.371628 0.030524 0.047149 -0.038301
C147  C     C_R   0.628408 0.030307 0.952850 -0.038304
C148  C     C_R   0.969279 0.371691 0.047149 -0.038302
C149  C     C_R   0.969888 0.628468 0.952849 -0.038303
C150  C     C_R   0.628355 0.969473 0.047149 -0.038301
C151  C     C_R   0.000000 0.500000 0.189547 0.510930
C152  C     C_R   0.371576 0.969695 0.952850 -0.038305
C153  C     C_R   0.500000 0.000002 0.664831 0.025955
C154  C     C_R   0.500000 0.000002 0.335169 0.025948
C155  C     C_R   0.999998 0.500000 0.664830 0.025893
C156  C     C_R   0.999998 0.500000 0.335168 0.026013
C157  C     C_R   1.000000 0.500002 0.164831 0.025943
C158  C     C_R   1.000000 0.500002 0.835168 0.025961
C159  C     C_R   0.499998 1.000000 0.164831 0.025949
C160  C     C_R   0.499998 0.000000 0.835168 0.025956
C161  C     C_R   0.992784 0.566558 0.988308 -0.009557
C162  C     C_R   1.000000 0.500000 0.310452 0.510909
C163  C     C_R   0.992469 0.433493 0.011690 -0.009549
C164  C     C_R   0.433453 0.992684 0.988309 -0.009557
C165  C     C_R   0.566518 0.992569 0.011691 -0.009550
C166  C     C_R   0.007216 0.433458 0.988308 -0.009558
C167  C     C_R   0.007530 0.566523 0.011690 -0.009549
C168  C     C_R   0.566531 0.007317 0.988309 -0.009558
C169  C     C_R   0.433465 0.007429 0.011691 -0.009550
C170  C     C_R   0.492540 0.066531 0.488310 -0.009569
C171  C     C_R   0.492714 0.933466 0.511692 -0.009538
C172  C     C_R   0.933345 0.493728 0.488301 -0.009572
C173  C     C_R   1.000000 0.500000 0.689547 0.510945
C174  C     C_R   0.066394 0.491527 0.511683 -0.009529
C175  C     C_R   0.507461 0.933486 0.488310 -0.009569
C176  C     C_R   0.507285 0.066551 0.511692 -0.009537
C177  C     C_R   0.066638 0.506273 0.488301 -0.009573
C178  C     C_R   0.933589 0.508472 0.511683 -0.009529
C179  C     C_R   0.000001 0.500008 0.976513 -0.025183
C180  C     C_R   0.999999 0.500008 0.023484 -0.025180
C181  C     C_R   0.499992 0.000001 0.976514 -0.025183
C182  C     C_R   0.499992 0.999999 0.023485 -0.025180
C183  C     C_R   0.500001 0.000008 0.476515 -0.025187
C184  C     C_R   0.500000 0.000000 0.310453 0.510931
C185  C     C_R   0.499999 0.000008 0.523486 -0.025175
C186  C     C_R   0.999992 0.500001 0.476506 -0.025190
C187  C     C_R   0.999991 0.499999 0.523477 -0.025174
C188  C     C_R   0.970109 0.629477 0.976192 0.223175
C189  C     C_R   0.969495 0.370682 0.023806 0.223175
C190  C     C_R   0.370568 0.969914 0.976193 0.223174
C191  C     C_R   0.629364 0.969691 0.023807 0.223179
C192  C     C_R   0.029893 0.370539 0.976192 0.223176
C193  C     C_R   0.030503 0.629334 0.023806 0.223175
C194  C     C_R   0.629416 0.030088 0.976193 0.223174
C195  C     C_R   0.500000 0.000000 0.689547 0.510925
C196  C     C_R   0.370619 0.030307 0.023807 0.223179
C197  C     C_R   0.469633 0.129366 0.476193 0.223159
C198  C     C_R   0.469971 0.870572 0.523808 0.223193
C199  C     C_R   0.870110 0.471948 0.476185 0.223186
C200  C     C_R   0.128873 0.467666 0.523799 0.223165
C201  C     C_R   0.530369 0.870651 0.476194 0.223159
C202  C     C_R   0.530027 0.129445 0.523808 0.223193
C203  C     C_R   0.129873 0.528054 0.476185 0.223185
C204  C     C_R   0.871110 0.532332 0.523799 0.223166
C205  C     C_R   0.640323 0.859677 0.750000 0.513739
C206  C     C_R   0.514094 0.064672 0.558988 -0.016641
C207  C     C_R   0.359677 0.140322 0.250000 0.513557
C208  C     C_R   0.140323 0.640323 0.750000 0.513727
C209  C     C_R   0.859677 0.359678 0.250000 0.513544
C210  C     C_R   0.359677 0.140322 0.750000 0.513738
C211  C     C_R   0.640322 0.859678 0.250000 0.513556
C212  C     C_R   0.859677 0.359678 0.750000 0.513727
C213  C     C_R   0.140322 0.640322 0.250000 0.513544
C214  C     C_R   0.640322 0.140322 0.250000 0.513733
C215  C     C_R   0.359678 0.859677 0.750000 0.513548
C216  C     C_R   0.140322 0.359677 0.250000 0.513744
H1    H     H_    0.762950 0.143523 0.724778 0.140095
H2    H     H_    0.237047 0.143521 0.724780 0.140325
H3    H     H_    0.856477 0.237050 0.275222 0.140078
H4    H     H_    0.143523 0.762951 0.724779 0.140290
H5    H     H_    0.237048 0.143522 0.275221 0.140111
H6    H     H_    0.762953 0.856479 0.724779 0.140325
H7    H     H_    0.143522 0.762949 0.275222 0.140079
H8    H     H_    0.856478 0.237049 0.724779 0.140290
H9    H     H_    0.262951 0.643523 0.224778 0.140106
H10   H     H_    0.737048 0.356477 0.775221 0.140314
H11   H     H_    0.356479 0.262951 0.224779 0.140105
H12   H     H_    0.237048 0.856477 0.275221 0.140299
H13   H     H_    0.643521 0.737047 0.775221 0.140313
H14   H     H_    0.737050 0.356478 0.224778 0.140106
H15   H     H_    0.262951 0.643523 0.775221 0.140315
H16   H     H_    0.643521 0.737049 0.224779 0.140105
H17   H     H_    0.356479 0.262952 0.775220 0.140314
H18   H     H_    0.262952 0.356478 0.775221 0.140100
H19   H     H_    0.737047 0.643521 0.224779 0.140310
H20   H     H_    0.356477 0.737050 0.775222 0.140101
H21   H     H_    0.643522 0.262952 0.224779 0.140312
H22   H     H_    0.737048 0.643521 0.775221 0.140099
H23   H     H_    0.856479 0.762951 0.724779 0.140128
H24   H     H_    0.262953 0.356478 0.224779 0.140310
H25   H     H_    0.643523 0.262949 0.775222 0.140101
H26   H     H_    0.356478 0.737049 0.224779 0.140312
H27   H     H_    0.617095 0.011858 0.661610 0.139066
H28   H     H_    0.617107 0.988256 0.338390 0.139074
H29   H     H_    0.989046 0.617183 0.661608 0.139127
H30   H     H_    0.012682 0.617008 0.338387 0.139011
H31   H     H_    0.382904 0.988146 0.661610 0.139067
H32   H     H_    0.382893 0.011748 0.338390 0.139073
H33   H     H_    0.010949 0.382816 0.661608 0.139127
H34   H     H_    0.143521 0.237048 0.275220 0.140336
H35   H     H_    0.987315 0.382992 0.338388 0.139010
H36   H     H_    0.117114 0.511671 0.161609 0.139078
H37   H     H_    0.117086 0.488047 0.838389 0.139061
H38   H     H_    0.488272 0.117108 0.161610 0.139074
H39   H     H_    0.511915 0.117089 0.838389 0.139066
H40   H     H_    0.882885 0.488333 0.161610 0.139078
H41   H     H_    0.882915 0.511956 0.838390 0.139061
H42   H     H_    0.511723 0.882891 0.161610 0.139074
H43   H     H_    0.488081 0.882911 0.838390 0.139065
H44   H     H_    0.616503 0.011940 0.620568 0.134812
H45   H     H_    0.237050 0.856477 0.724778 0.140096
H46   H     H_    0.616517 0.988187 0.379431 0.134854
H47   H     H_    0.988982 0.616596 0.620569 0.135128
H48   H     H_    0.012769 0.616413 0.379432 0.134551
H49   H     H_    0.383495 0.988073 0.620568 0.134812
H50   H     H_    0.383485 0.011827 0.379432 0.134854
H51   H     H_    0.011002 0.383401 0.620569 0.135128
H52   H     H_    0.987219 0.383589 0.379432 0.134551
H53   H     H_    0.116523 0.511749 0.120568 0.134872
H54   H     H_    0.116495 0.487974 0.879431 0.134798
H55   H     H_    0.488193 0.116516 0.120568 0.134839
H56   H     H_    0.762951 0.143522 0.275221 0.140299
H57   H     H_    0.511988 0.116499 0.879431 0.134836
H58   H     H_    0.883475 0.488264 0.120569 0.134872
H59   H     H_    0.883507 0.512038 0.879432 0.134798
H60   H     H_    0.511793 0.883481 0.120568 0.134838
H61   H     H_    0.488001 0.883503 0.879431 0.134836
H62   H     H_    0.545685 0.177596 0.555973 0.200624
H63   H     H_    0.546154 0.822541 0.444029 0.200695
H64   H     H_    0.823243 0.548834 0.555964 0.200594
H65   H     H_    0.178256 0.542981 0.444020 0.200724
H66   H     H_    0.454311 0.822421 0.555972 0.200624
H67   H     H_    0.143521 0.237049 0.724779 0.140128
H68   H     H_    0.453850 0.177475 0.444028 0.200695
H69   H     H_    0.176739 0.451162 0.555964 0.200595
H70   H     H_    0.821728 0.457023 0.444019 0.200724
H71   H     H_    0.046336 0.677427 0.055971 0.200648
H72   H     H_    0.045501 0.322372 0.944027 0.200672
H73   H     H_    0.322502 0.046068 0.055972 0.200650
H74   H     H_    0.677560 0.045767 0.944028 0.200670
H75   H     H_    0.953661 0.322589 0.055971 0.200649
H76   H     H_    0.954502 0.677643 0.944027 0.200672
H77   H     H_    0.677481 0.953929 0.055972 0.200650
H78   H     H_    0.856479 0.762952 0.275220 0.140336
H79   H     H_    0.322424 0.954236 0.944028 0.200670
H80   H     H_    0.920568 0.676435 0.000828 0.352576
H81   H     H_    0.919733 0.323960 0.999169 0.352540
H82   H     H_    0.323686 0.920300 0.000829 0.352574
H83   H     H_    0.676162 0.920000 0.999170 0.352541
H84   H     H_    0.079432 0.323581 0.000829 0.352575
H85   H     H_    0.080267 0.676057 0.999170 0.352541
H86   H     H_    0.676297 0.079700 0.000829 0.352573
H87   H     H_    0.323822 0.080000 0.999171 0.352541
H88   H     H_    0.419918 0.176140 0.500830 0.352635
H89   H     H_    0.762952 0.856479 0.275221 0.140111
H90   H     H_    0.420383 0.823666 0.499171 0.352482
H91   H     H_    0.822449 0.423081 0.500821 0.352643
H92   H     H_    0.174885 0.417243 0.499163 0.352476
H93   H     H_    0.580082 0.823877 0.500830 0.352635
H94   H     H_    0.579618 0.176351 0.499171 0.352482
H95   H     H_    0.177534 0.576919 0.500821 0.352643
H96   H     H_    0.825098 0.582757 0.499163 0.352476
N1    N     N_R   0.499999 0.000008 0.593739 -0.391056
N2    N     N_R   0.500001 0.000008 0.406262 -0.391055
N3    N     N_R   0.999991 0.499998 0.593732 -0.390977
N4    N     N_R   0.999993 0.500001 0.406256 -0.391130
N5    N     N_R   0.999999 0.500008 0.093737 -0.391044
N6    N     N_R   0.000001 0.500007 0.906261 -0.391065
N7    N     N_R   0.499992 0.999998 0.093738 -0.391052
N8    N     N_R   0.499993 0.000001 0.906262 -0.391057
O1    O     O_3   0.500000 0.000000 0.750000 -0.433999
O2    O     O_R   0.500000 0.060550 0.200300 -0.544446
O3    O     O_R   0.060550 0.500000 0.799700 -0.544443
O4    O     O_R   0.939450 0.500000 0.200300 -0.544447
O5    O     O_R   0.000000 0.560550 0.299700 -0.544431
O6    O     O_R   1.000000 0.439450 0.700300 -0.544458
O7    O     O_R   0.439450 0.000000 0.299700 -0.544447
O8    O     O_R   0.560550 1.000000 0.700300 -0.544443
O9    O     O_R   1.000000 0.439450 0.299700 -0.544431
O10   O     O_R   1.000000 0.560550 0.700300 -0.544458
O11   O     O_R   0.560550 0.000000 0.299700 -0.544447
O12   O     O_3   0.500000 0.000000 0.250000 -0.433998
O13   O     O_R   0.439450 1.000000 0.700300 -0.544443
O14   O     O_R   0.585450 0.853690 0.762850 -0.546798
O15   O     O_R   0.414550 0.146310 0.237150 -0.547158
O16   O     O_R   0.146310 0.585450 0.762850 -0.546792
O17   O     O_R   0.853690 0.414550 0.237150 -0.547152
O18   O     O_R   0.414550 0.146310 0.762850 -0.546798
O19   O     O_R   0.585450 0.853690 0.237150 -0.547158
O20   O     O_R   0.853690 0.414550 0.762850 -0.546793
O21   O     O_R   0.146310 0.585450 0.237150 -0.547153
O22   O     O_R   0.585450 0.146310 0.237150 -0.546799
O23   O     O_3   1.000000 0.500000 0.750000 -0.433995
O24   O     O_R   0.414550 0.853690 0.762850 -0.547162
O25   O     O_R   0.146310 0.414550 0.237150 -0.546806
O26   O     O_R   0.853690 0.585450 0.762850 -0.547167
O27   O     O_R   0.414550 0.853690 0.237150 -0.546800
O28   O     O_R   0.585450 0.146310 0.762850 -0.547161
O29   O     O_R   0.853690 0.585450 0.237150 -0.546807
O30   O     O_R   0.146310 0.414550 0.762850 -0.547167
O31   O     O_R   0.085450 0.353690 0.262850 -0.546771
O32   O     O_R   0.914550 0.646310 0.737150 -0.547133
O33   O     O_R   0.646310 0.085450 0.262850 -0.546805
O34   O     O_3   1.000000 0.500000 0.250000 -0.434002
O35   O     O_R   0.353690 0.914550 0.737150 -0.547163
O36   O     O_R   0.914550 0.646310 0.262850 -0.546772
O37   O     O_R   0.085450 0.353690 0.737150 -0.547133
O38   O     O_R   0.353690 0.914550 0.262850 -0.546805
O39   O     O_R   0.646310 0.085450 0.737150 -0.547164
O40   O     O_R   0.085450 0.646310 0.737150 -0.546826
O41   O     O_R   0.914550 0.353690 0.262850 -0.547186
O42   O     O_R   0.646310 0.914550 0.737150 -0.546794
O43   O     O_R   0.353690 0.085450 0.262850 -0.547156
O44   O     O_R   0.914550 0.353690 0.737150 -0.546826
O45   O     O_R   0.500000 0.060550 0.799700 -0.544444
O46   O     O_R   0.085450 0.646310 0.262850 -0.547186
O47   O     O_R   0.353690 0.085450 0.737150 -0.546794
O48   O     O_R   0.646310 0.914550 0.262850 -0.547156
O49   O     O_2   0.527494 0.125093 0.594036 -0.484847
O50   O     O_2   0.527813 0.874992 0.405966 -0.484839
O51   O     O_2   0.875394 0.529651 0.594025 -0.485045
O52   O     O_2   0.125471 0.525632 0.405955 -0.484648
O53   O     O_2   0.472503 0.874923 0.594036 -0.484848
O54   O     O_2   0.472190 0.125024 0.405965 -0.484839
O55   O     O_2   0.124589 0.470345 0.594025 -0.485046
O56   O     O_R   0.500000 0.939450 0.200300 -0.544446
O57   O     O_2   0.874516 0.474371 0.405954 -0.484648
O58   O     O_2   0.027940 0.624995 0.094034 -0.484871
O59   O     O_2   0.027364 0.374893 0.905964 -0.484816
O60   O     O_2   0.374963 0.027755 0.094035 -0.484850
O61   O     O_2   0.625069 0.027545 0.905965 -0.484840
O62   O     O_2   0.972057 0.375020 0.094034 -0.484872
O63   O     O_2   0.972639 0.625121 0.905963 -0.484816
O64   O     O_2   0.625020 0.972241 0.094035 -0.484851
O65   O     O_2   0.374917 0.972458 0.905964 -0.484839
O66   O     O_3   0.942419 0.690937 0.986352 -0.635338
O67   O     O_R   0.939450 0.500000 0.799700 -0.544443
O68   O     O_3   0.941514 0.309355 0.013645 -0.635409
O69   O     O_3   0.309150 0.942130 0.986353 -0.635340
O70   O     O_3   0.690734 0.941803 0.013646 -0.635407
O71   O     O_3   0.057583 0.309079 0.986353 -0.635339
O72   O     O_3   0.058485 0.690662 0.013645 -0.635408
O73   O     O_3   0.690833 0.057872 0.986353 -0.635340
O74   O     O_3   0.309249 0.058196 0.013646 -0.635405
O75   O     O_3   0.441715 0.190723 0.486354 -0.635226
O76   O     O_3   0.442217 0.809141 0.513647 -0.635522
O77   O     O_3   0.808261 0.445137 0.486345 -0.635203
O78   O     O_R   0.060550 0.500000 0.200300 -0.544447
O79   O     O_3   0.189797 0.438815 0.513639 -0.635555
O80   O     O_3   0.558287 0.809294 0.486354 -0.635227
O81   O     O_3   0.557782 0.190876 0.513647 -0.635521
O82   O     O_3   0.191722 0.554864 0.486345 -0.635205
O83   O     O_3   0.810185 0.561183 0.513639 -0.635552
O84   O     O_R   0.500000 0.939450 0.799700 -0.544444
Zn1   Zn    Zn3+2 0.586770 0.000000 0.731050 0.942106
Zn2   Zn    Zn3+2 0.913230 0.500000 0.768950 0.942106
Zn3   Zn    Zn3+2 0.500000 0.086770 0.231050 0.942105
Zn4   Zn    Zn3+2 0.500000 0.913230 0.768950 0.942103
Zn5   Zn    Zn3+2 0.913230 0.500000 0.231050 0.942103
Zn6   Zn    Zn3+2 0.086770 0.500000 0.768950 0.942105
Zn7   Zn    Zn3+2 0.500000 0.913230 0.231050 0.942105
Zn8   Zn    Zn3+2 0.500000 0.086770 0.768950 0.942103
Zn9   Zn    Zn3+2 0.413230 0.000000 0.268950 0.942103
Zn10  Zn    Zn3+2 1.000000 0.586770 0.731050 0.942098
Zn11  Zn    Zn3+2 1.000000 0.413230 0.268950 0.942111
Zn12  Zn    Zn3+2 0.413230 0.000000 0.731050 0.942106
Zn13  Zn    Zn3+2 0.586770 0.000000 0.268950 0.942103
Zn14  Zn    Zn3+2 1.000000 0.413230 0.731050 0.942098
Zn15  Zn    Zn3+2 1.000000 0.586770 0.268950 0.942110
Zn16  Zn    Zn3+2 0.086770 0.500000 0.231050 0.942103

loop_
_geom_bond_atom_site_label_1
_geom_bond_atom_site_label_2
_ccdc_geom_bond_type
C100  C153  A    
C209  O17   A    
C214  O22   A    
C28   C47   A    
C4    O27   A    
O32   Zn10  S    
C78   C115  A    
O12   Zn13  S    
C137  H64   S    
C170  C176  A    
C36   H19   S    
C21   H5    S    
C107  H42   S    
C175  C183  A    
C126  C187  A    
C92   C119  A    
C71   N6    A    
C76   O64   S    
C92   C109  A    
C72   C101  A    
C28   C40   A    
C81   C117  A    
C94   C111  A    
C216  O25   A    
C30   C38   A    
C172  C199  A    
C152  C190  A    
C35   C139  A    
C116  N2    S    
C80   C116  A    
C78   C96   A    
C91   C122  A    
C31   H15   S    
C24   C127  A    
C128  C180  A    
C93   C120  A    
C169  C196  A    
C74   N5    A    
C85   C103  A    
O26   Zn2   S    
C93   C110  A    
O18   Zn8   S    
C101  C130  A    
C167  C180  A    
O34   Zn5   S    
O42   Zn1   S    
O35   Zn12  S    
C144  H71   S    
O24   Zn4   S    
C69   N4    A    
C84   H46   S    
C141  C197  A    
C85   H47   S    
C73   O61   S    
C86   H48   S    
C205  O42   A    
C46   C141  A    
C101  C146  A    
C192  O71   S    
H92   O79   S    
C171  C185  A    
C136  H63   S    
C99   H35   S    
C7    O37   A    
C214  O33   A    
C65   O53   S    
C33   C50   A    
C148  H75   S    
O44   Zn14  S    
C42   H26   S    
C177  C186  A    
C119  N5    S    
C29   C45   A    
C9    C59   A    
C123  C185  A    
H83   O70   S    
O27   Zn7   S    
C64   O52   S    
C83   C115  A    
C22   H6    S    
C19   C49   A    
C13   C63   A    
C62   N2    A    
C99   C156  A    
C12   C20   A    
C83   H44   S    
C97   C154  A    
C85   C117  A    
C174  C177  A    
C135  C206  A    
C95   C122  A    
C30   C49   A    
C83   C100  A    
O46   Zn15  S    
C209  O41   A    
C102  H28   S    
C7    C53   S    
C151  C157  S    
O15   Zn3   S    
C54   C214  S    
O37   Zn14  S    
H88   O75   S    
C70   C79   A    
C14   C19   A    
C173  O10   A    
C98   H33   S    
O34   Zn16  S    
C76   C133  A    
C3    O32   A    
C137  C204  A    
C90   C145  A    
O23   Zn10  S    
O1    Zn4   S    
O2    Zn3   S    
O22   Zn3   S    
C39   C58   A    
C162  O5    A    
C112  O2    A    
C171  C175  A    
C207  O15   A    
C138  H65   S    
C9    H12   S    
C63   N3    A    
C2    C136  A    
C169  C182  A    
O39   Zn1   S    
O13   Zn12  S    
C22   C45   A    
O34   Zn11  S    
C143  H70   S    
C168  C181  A    
C41   H25   S    
O67   Zn2   S    
C6    C52   S    
C72   O60   S    
C11   C56   A    
C204  O83   S    
O20   Zn2   S    
C121  N7    S    
C15   C18   A    
C32   H16   S    
C122  N8    S    
C80   C97   A    
C135  H62   S    
C84   C102  A    
C69   O57   S    
C6    O29   A    
C86   C104  A    
C210  O47   A    
C25   C43   A    
C26   C44   A    
O23   Zn6   S    
C103  H29   S    
C57   C142  A    
C68   C143  A    
H82   O69   S    
C80   H50   S    
C32   C36   A    
C10   C58   A    
C161  C188  A    
C55   C215  S    
C65   N1    A    
C26   H9    S    
C190  O69   S    
C188  O66   S    
C7    O30   A    
C211  O48   A    
C8    H1    S    
C140  C158  S    
C90   C129  A    
C215  O24   A    
C161  C179  A    
C96   H31   S    
C195  O13   A    
C10   H23   S    
C84   C116  A    
C205  O14   A    
C167  C193  A    
C208  O40   A    
C164  C190  A    
O38   Zn9   S    
C136  C201  A    
O43   Zn9   S    
O7    Zn9   S    
C150  H77   S    
C176  C202  A    
C195  O8    A    
C9    C23   A    
C1    O84   A    
C77   N8    A    
C11   C21   A    
C16   H78   S    
C210  O18   A    
C3    C58   S    
C141  H68   S    
C87   C119  A    
C174  C187  A    
C87   C105  A    
O30   Zn6   S    
O28   Zn8   S    
C184  O11   A    
C114  C160  A    
C161  C167  A    
C149  C188  A    
H94   O81   S    
C87   H58   S    
C23   H7    S    
O8    Zn1   S    
C104  H30   S    
C145  C192  A    
C193  O72   S    
C77   C134  A    
C17   H89   S    
C18   H2    S    
C33   H17   S    
C75   C132  A    
C26   C42   A    
C117  N3    S    
C172  C178  A    
C118  N4    S    
H85   O72   S    
C5    C60   S    
C208  O16   A    
C133  C150  A    
O5    Zn15  S    
C41   C60   A    
C42   C59   A    
C197  O75   S    
C198  O76   S    
C61   C206  A    
C196  O74   S    
C35   C123  A    
C29   H13   S    
C40   H24   S    
C71   C90   A    
O1    Zn1   S    
C56   C216  S    
C12   C55   A    
C142  H69   S    
C37   C55   A    
C2    C125  A    
C50   C210  S    
C81   H51   S    
C108  H43   S    
C82   H52   S    
C189  O68   S    
C173  O6    A    
C170  C197  A    
C21   C47   A    
C74   C124  A    
C151  O78   A    
C8    C25   A    
C213  O21   A    
C82   C99   A    
C46   C125  A    
C199  O77   S    
C131  C134  A    
C17   C51   A    
C139  C198  A    
C176  C185  A    
C76   N7    A    
C77   O65   S    
C10   C22   A    
C114  H39   S    
C124  C148  A    
C165  C182  A    
C15   C53   A    
C88   H59   S    
C46   C66   A    
C171  C198  A    
C146  H73   S    
H90   O76   S    
O19   Zn7   S    
C81   C98   A    
C35   C65   A    
C95   C114  A    
O17   Zn5   S    
C25   H8    S    
C91   H61   S    
C111  C159  A    
C150  C191  A    
C105  C157  A    
C16   C17   A    
C40   C56   A    
C106  H41   S    
C177  C203  A    
C88   C120  A    
C102  C154  A    
O25   Zn16  S    
C110  C158  A    
C124  C128  A    
C129  C132  A    
H84   O71   S    
C61   N1    A    
C109  C157  A    
C24   C64   A    
C149  H76   S    
C132  C149  A    
C74   O62   S    
O1    Zn12  S    
O6    Zn14  S    
C28   H11   S    
C66   N2    A    
C5    O28   A    
O14   Zn4   S    
C44   C213  S    
C11   H34   S    
C78   H49   S    
C152  H79   S    
C66   O54   S    
C147  C194  A    
O12   Zn3   S    
O56   Zn7   S    
C23   C44   A    
C123  C206  A    
O47   Zn12  S    
C32   C51   A    
C200  O79   S    
C138  C203  A    
C96   C153  A    
C38   C54   A    
C134  C152  A    
C89   C107  A    
C86   C118  A    
C43   C212  S    
C68   C127  A    
C20   C48   A    
C194  O73   S    
H86   O73   S    
C13   C126  A    
C103  C155  A    
C67   N3    A    
C62   O50   S    
O33   Zn13  S    
C140  O3    A    
C130  C133  A    
C75   N6    A    
C18   C50   A    
C98   C155  A    
C45   C205  S    
C139  H66   S    
C14   H56   S    
C142  C200  A    
C91   C108  A    
C1    C160  S    
C16   C52   A    
O40   Zn10  S    
C4    O38   A    
O1    Zn8   S    
O9    Zn11  S    
O12   Zn7   S    
C174  C200  A    
C95   H57   S    
O11   Zn13  S    
C184  O7    A    
C63   O51   S    
C113  C147  A    
H96   O83   S    
O29   Zn5   S    
C8    C60   A    
C61   O49   S    
C131  C181  A    
C89   C121  A    
H87   O74   S    
C165  C191  A    
O36   Zn15  S    
C166  C192  A    
C12   H45   S    
C207  O43   A    
C94   C121  A    
C27   C43   A    
O23   Zn14  S    
C34   C53   A    
C49   C209  S    
C112  O56   A    
O21   Zn16  S    
C162  O9    A    
C105  H40   S    
C147  H74   S    
C79   C128  A    
C109  H36   S    
C112  C159  S    
C178  C204  A    
C170  C183  A    
C125  C183  A    
C70   O58   S    
C15   H67   S    
C97   H32   S    
O34   Zn15  S    
O48   Zn13  S    
C129  C179  A    
O3    Zn6   S    
O31   Zn11  S    
C212  O44   A    
C203  O82   S    
O78   Zn16  S    
C110  H37   S    
C191  O70   S    
C127  C186  A    
C145  H72   S    
O45   Zn8   S    
C68   C69   A    
C93   H54   S    
C172  C186  A    
O23   Zn2   S    
C153  C195  S    
C89   H60   S    
C164  C181  A    
C120  N6    S    
C73   C113  A    
C155  C173  S    
C111  H38   S    
C156  C162  S    
C168  C194  A    
C20   H4    S    
C48   C208  S    
C164  C169  A    
C64   N4    A    
C57   C67   A    
C163  C166  A    
C135  C202  A    
C75   O63   S    
H91   O77   S    
C31   C37   A    
O12   Zn9   S    
O10   Zn10  S    
C175  C201  A    
C163  C189  A    
O4    Zn5   S    
C130  C182  A    
C57   C126  A    
H95   O82   S    
C144  C193  A    
C24   C138  A    
C106  C158  A    
C67   O55   S    
C211  O19   A    
C154  C184  S    
C13   C137  A    
C5    O39   A    
C88   C106  A    
C27   C41   A    
C72   N7    A    
C79   C144  A    
C29   C39   A    
C33   C34   A    
C216  O31   A    
C104  C156  A    
C100  H27   S    
C71   O59   S    
C14   C54   A    
C165  C168  A    
C3    O26   A    
C73   N8    A    
C19   H3    S    
C178  C187  A    
C146  C196  A    
C34   H18   S    
C37   H20   S    
C213  O46   A    
C148  C189  A    
H80   O66   S    
C113  C131  A    
C1    O45   A    
O84   Zn4   S    
C70   N5    A    
C201  O80   S    
C36   C52   A    
C151  O4    A    
H81   O68   S    
C107  C159  A    
C212  O20   A    
C27   H10   S    
O16   Zn6   S    
C108  C160  A    
C140  O67   A    
C143  C199  A    
C202  O81   S    
C215  O35   A    
C47   C207  S    
C31   C48   A    
H93   O80   S    
C30   H14   S    
C38   H21   S    
C92   H53   S    
O41   Zn11  S    
C94   H55   S    
C4    C59   S    
C115  N1    S    
C51   C211  S    
C163  C180  A    
C82   C118  A    
C166  C179  A    
C39   H22   S    
C2    C62   A    
C6    O36   A    
