data_mof_unit_60903.cif
_audit_creation_date              2012-12-11T19:54:14-0500
_audit_creation_method            fapswitch 2.2
_symmetry_space_group_name_H-M    P1
_symmetry_Int_Tables_number       1
_space_group_crystal_system       triclinic
_cell_length_a                    8.247935
_cell_length_b                    16.069186
_cell_length_c                    17.345501
_cell_angle_alpha                 112.275039
_cell_angle_beta                  83.363295
_cell_angle_gamma                 95.486921
_cell_volume                      2109.7580816

loop_
_atom_site_label
_atom_site_type_symbol
_atom_type_description
_atom_site_fract_x
_atom_site_fract_y
_atom_site_fract_z
_atom_type_partial_charge
Ba1   Ba    Ba6+2 0.325860 0.460280 0.530510 1.898342
Ba2   Ba    Ba6+2 0.863950 0.539650 0.469460 1.879027
C1    C     C_3   0.056171 0.161243 0.724945 0.633395
C2    C     C_3   0.815284 0.421521 0.758592 -0.099967
C3    C     C_2   0.775972 0.454126 0.851818 0.670688
C4    C     C_3   0.526856 0.251722 0.695064 0.846407
C5    C     C_2   0.643787 0.503125 0.887579 -0.016601
C6    C     C_2   0.560206 0.539487 0.834721 -0.015232
C7    C     C_1   0.620093 0.528016 0.756512 0.063705
C8    C     C_R   0.400904 0.539136 0.147496 -0.114852
C9    C     C_R   0.343099 0.551179 0.229657 0.096240
C10   C     C_R   0.567634 0.471056 0.242433 -0.060056
C11   C     C_R   0.624526 0.456889 0.158454 0.640839
C12   C     C_3   0.012294 0.238902 0.702774 0.809186
C13   C     C_R   0.543019 0.492561 0.110757 -0.145748
C14   C     C_2   0.589245 0.527223 0.978934 0.488995
C15   C     C_2   0.592787 0.469419 0.019595 0.685165
C16   C     C_3   0.524329 0.203324 0.755717 1.102642
C17   C     C_R   0.428961 0.520011 0.277479 -0.362133
C18   C     C_2   0.395825 0.763501 0.528154 -0.196559
C19   C     C_R   0.809773 0.247418 0.478539 -0.178067
C20   C     C_2   0.208352 0.884892 0.600170 -0.046013
C21   C     C_2   0.239416 0.797664 0.574950 -0.027487
C22   C     C_2   0.509600 0.817567 0.506286 0.137774
C23   C     C_3   0.996830 0.682693 0.739834 0.287587
C24   C     C_3   0.461082 0.908671 0.512389 0.030541
C25   C     C_3   0.335275 0.952252 0.585839 0.236547
C26   C     C_2   0.599440 0.975034 0.510354 0.464735
C27   C     C_2   0.590993 0.025395 0.464897 0.566002
C28   C     C_3   0.637065 0.250582 0.305537 0.881080
C29   C     C_R   0.872435 0.065248 0.422000 0.192528
C30   C     C_R   0.719344 0.094014 0.462046 -0.050014
C31   C     C_R   0.992190 0.126556 0.408392 0.004540
C32   C     C_R   0.959372 0.217412 0.434838 0.146532
C33   C     C_R   0.687222 0.185983 0.490342 -0.027974
C34   C     C_3   0.983729 0.711300 0.834581 1.090036
C35   C     C_3   0.526988 0.165376 0.270712 1.236701
C36   C     C_3   0.511013 0.746478 0.698245 0.826527
C37   C     C_3   0.515204 0.847342 0.750529 1.561353
C38   C     C_3   0.193756 0.327664 0.263971 0.278857
C39   C     C_3   0.194791 0.294179 0.169079 1.124096
C40   C     C_3   0.706641 0.715662 0.291092 0.266462
C41   C     C_3   0.712481 0.740765 0.214509 1.220300
C42   C     C_3   0.168247 0.772107 0.343036 0.803830
C43   C     C_3   0.142937 0.863811 0.340478 1.197403
C44   C     C_2   0.745590 0.477698 0.718673 -0.259487
F1    F     F_    0.026138 0.212632 0.616549 -0.763985
F2    F     F_    0.909783 0.642509 0.857565 -0.745259
F3    F     F_    0.138045 0.732296 0.863023 -0.588287
F4    F     F_    0.053173 0.187474 0.810798 -0.579283
F5    F     F_    0.621030 0.251699 0.819778 -0.603337
F6    F     F_    0.611366 0.810358 0.230449 -0.539648
F7    F     F_    0.870435 0.766880 0.193323 -0.635542
F8    F     F_    0.331081 0.768234 0.352264 -0.755443
F9    F     F_    0.158933 0.930125 0.418637 -0.701066
F10   F     F_    0.464346 0.335455 0.737458 -0.726056
F11   F     F_    0.256843 0.881724 0.282864 -0.516832
F12   F     F_    0.586615 0.113598 0.190431 -0.553369
F13   F     F_    0.634493 0.383227 0.975673 -0.525039
F14   F     F_    0.535332 0.611238 0.021509 -0.678250
F15   F     F_    0.872815 0.430928 0.898094 -0.588467
F16   F     F_    0.755771 0.406557 0.122615 -0.540417
F17   F     F_    0.723916 0.989516 0.559905 -0.659785
F18   F     F_    0.461261 0.013082 0.419265 -0.564659
F19   F     F_    0.582960 0.118487 0.714339 -0.655126
F20   F     F_    0.791458 0.224858 0.304794 -0.700074
F21   F     F_    0.521096 0.115376 0.320537 -0.636317
F22   F     F_    0.624103 0.730938 0.630012 -0.729920
F23   F     F_    0.389755 0.865541 0.813809 -0.606041
F24   F     F_    0.497505 0.895632 0.701403 -0.700128
F25   F     F_    0.663127 0.874574 0.785501 -0.613477
F26   F     F_    0.267303 0.358420 0.139649 -0.724542
F27   F     F_    0.036181 0.274475 0.146210 -0.539635
H1    H     H_    0.320984 0.342674 0.281786 -0.139880
H2    H     H_    0.124532 0.389621 0.292323 0.034282
H3    H     H_    0.178883 0.138694 0.695735 -0.025311
H4    H     H_    0.883739 0.252107 0.727539 -0.016089
H5    H     H_    0.966164 0.103381 0.701081 0.081704
H6    H     H_    0.872382 0.666327 0.717928 -0.077890
H7    H     H_    0.069487 0.621958 0.711862 0.019287
H8    H     H_    0.909551 0.771367 0.863996 0.072598
H9    H     H_    0.580049 0.690597 0.302936 -0.038167
H10   H     H_    0.670405 0.681553 0.161099 -0.065313
H11   H     H_    0.019071 0.865359 0.322612 -0.018339
H12   H     H_    0.264302 0.232296 0.139914 0.029843
H13   H     H_    0.452908 0.578174 0.862008 0.170208
H14   H     H_    0.381632 0.528869 0.340727 0.081517
H15   H     H_    0.096382 0.909538 0.638364 0.128769
H16   H     H_    0.655858 0.259879 0.671223 -0.252091
H17   H     H_    0.107145 0.102397 0.373873 0.151839
H18   H     H_    0.421052 0.694250 0.515467 0.073168
H19   H     H_    0.784742 0.317734 0.498333 0.034173
H20   H     H_    0.589567 0.289558 0.370740 -0.281251
H21   H     H_    0.790124 0.660680 0.277363 -0.044011
H22   H     H_    0.092199 0.765937 0.397859 -0.090386
H23   H     H_    0.328921 0.560995 0.111023 0.182795
H24   H     H_    0.782475 0.463452 0.653048 0.050559
H25   H     H_    0.397842 0.196701 0.783214 0.046904
H26   H     H_    0.401564 0.183210 0.268715 -0.188976
H27   H     H_    0.387829 0.723243 0.677234 -0.226880
O1    O     O_2   0.351410 0.559500 0.703710 -0.459360
O2    O     O_2   0.848551 0.813289 0.504991 -0.406155
O3    O     O_3   0.755169 0.791244 0.359772 -0.627139
O4    O     O_3   0.622300 0.553110 0.604480 -0.471542
O5    O     O_3   0.040530 0.390860 0.438530 -0.506104
O6    O     O_2   0.927940 0.718960 0.581060 -0.375304
O7    O     O_3   0.072569 0.754436 0.719420 -0.606830
O8    O     O_2   0.006435 0.535528 0.224797 -0.407282
O9    O     O_3   0.122223 0.703552 0.268603 -0.611134
O10   O     O_3   0.077860 0.395310 0.623380 -0.483633
O11   O     O_2   0.139907 0.491554 0.780391 -0.386720
O12   O     O_3   0.120435 0.258477 0.288550 -0.581239
O13   O     O_3   0.550081 0.702139 0.748344 -0.638118
O14   O     O_3   0.116473 0.315619 0.738934 -0.517073
O15   O     O_2   0.261760 0.281010 0.418880 -0.499611
O16   O     O_3   0.488390 0.347430 0.574410 -0.466722
O17   O     O_2   0.348704 0.186504 0.486393 -0.353677
O18   O     O_3   0.428867 0.201175 0.630241 -0.645487
O19   O     O_2   0.838300 0.440470 0.296230 -0.410717
O20   O     O_3   0.567380 0.446810 0.395500 -0.530249
O21   O     O_3   0.111820 0.604620 0.376600 -0.520796
O22   O     O_3   0.644327 0.297403 0.251513 -0.600681
O23   O     O_3   0.149150 0.609060 0.561440 -0.507104
O24   O     O_3   0.701290 0.652490 0.425560 -0.497868
P1    P     P_3+3 0.533580 0.585010 0.696460 1.092113
P2    P     P_3+3 0.097450 0.292710 0.397510 1.090998
P3    P     P_3+3 0.488840 0.230077 0.543179 1.128463
P4    P     P_3+3 0.656110 0.414920 0.303520 1.110994
P5    P     P_3+3 0.703966 0.769016 0.451128 1.097344
P6    P     P_3+3 0.038067 0.407603 0.727523 1.177997
P7    P     P_3+3 0.100755 0.721651 0.610673 1.044717
P8    P     P_3+3 0.144752 0.598270 0.273638 1.076969

loop_
_geom_bond_atom_site_label_1
_geom_bond_atom_site_label_2
_ccdc_geom_bond_type
C23   H7    S    
C41   H10   S    
C40   H9    S    
O2    P5    D    
C40   O3    S    
C5    C6    S    
C38   O12   S    
C2    C44   S    
Ba2   O23   S    
C16   F19   S    
C43   F11   S    
C24   C25   S    
O15   P2    D    
O5    P2    S    
C26   C27   D    
C22   C24   S    
C27   C30   S    
C17   H14   S    
C8    C13   A    
C36   C37   S    
C41   F6    S    
O13   P1    S    
Ba1   Ba2   S    
C14   F14   S    
C12   H4    S    
C22   P5    S    
C41   F7    S    
C11   F16   S    
C28   O22   S    
C14   C15   D    
O16   P3    S    
O1    P1    D    
C29   C31   A    
C34   F2    S    
Ba1   O16   S    
C20   H15   S    
O12   P2    S    
C35   F12   S    
O19   P4    D    
C27   F18   S    
C7    C44   D    
C40   H21   S    
C9    P8    S    
O14   P6    S    
C1    F4    S    
C16   F5    S    
O6    P7    D    
C4    C16   S    
C18   H18   S    
O4    P1    S    
C3    F15   S    
C30   C33   A    
C18   C22   D    
Ba1   O15   S    
Ba1   P2    S    
C36   H27   S    
C3    C5    D    
C36   O13   S    
Ba2   O20   S    
C6    C7    D    
C2    P6    S    
C19   C32   A    
C12   O14   S    
Ba2   O6    S    
C7    P1    S    
C28   C35   S    
Ba1   O20   S    
Ba1   O23   S    
Ba1   O10   S    
O17   P3    D    
O11   P6    D    
C29   C30   A    
C18   C21   S    
C8    H23   S    
C34   H8    S    
C32   P2    S    
C9    C17   A    
O9    P8    S    
C31   C32   A    
C37   F23   S    
C21   P7    S    
C33   P3    S    
C1    H3    S    
O3    P5    S    
Ba1   O4    S    
C28   F20   S    
C1    C12   S    
C15   F13   S    
C39   F26   S    
C19   C33   A    
O7    P7    S    
C5    C14   S    
C44   H24   S    
C36   F22   S    
Ba2   O4    S    
C20   C25   S    
C11   C13   A    
C43   H11   S    
C40   C41   S    
O21   P8    S    
Ba1   O1    S    
C35   H26   S    
C42   C43   S    
C23   O7    S    
Ba2   O21   S    
C13   C15   S    
C38   C39   S    
O23   P7    S    
C23   H6    S    
C4    F10   S    
C2    C3    S    
Ba2   O19   S    
O20   P4    S    
C12   F1    S    
C10   P4    S    
Ba2   O24   S    
C28   H20   S    
C4    H16   S    
C39   H12   S    
Ba2   O5    S    
C24   C26   S    
C38   H2    S    
Ba1   P1    S    
C42   H22   S    
C31   H17   S    
C42   O9    S    
C35   F21   S    
C10   C17   A    
C37   F24   S    
C38   H1    S    
O24   P5    S    
O10   P6    S    
C6    H13   S    
O22   P4    S    
O8    P8    D    
C8    C9    A    
C23   C34   S    
C39   F27   S    
C26   F17   S    
C42   F8    S    
C10   C11   A    
C43   F9    S    
O18   P3    S    
C37   F25   S    
C20   C21   D    
C16   H25   S    
C1    H5    S    
C4    O18   S    
C34   F3    S    
Ba1   O5    S    
C19   H19   S    
Ba2   P4    S    
