data_mof_unit_49955.cif
_audit_creation_date              2012-12-10T16:50:11-0500
_audit_creation_method            fapswitch 2.2
_symmetry_space_group_name_H-M    P1
_symmetry_Int_Tables_number       1
_space_group_crystal_system       triclinic
_cell_length_a                    7.798376
_cell_length_b                    8.558594
_cell_length_c                    10.690415
_cell_angle_alpha                 91.450179
_cell_angle_beta                  83.676039
_cell_angle_gamma                 93.711501
_cell_volume                      707.563825055

loop_
_atom_site_label
_atom_site_type_symbol
_atom_type_description
_atom_site_fract_x
_atom_site_fract_y
_atom_site_fract_z
_atom_type_partial_charge
C1    C     C_R   0.545851 0.794789 0.499539 0.988158
C2    C     C_R   0.454249 0.205355 0.505107 0.971322
C3    C     C_R   0.503718 0.514537 0.260660 0.950601
C4    C     C_R   0.173042 0.555519 0.917495 -0.155016
C5    C     C_R   0.054642 0.646939 0.987668 -0.249374
C6    C     C_R   0.101113 0.727214 0.094293 -0.117964
C7    C     C_R   0.259410 0.703781 0.137880 0.399712
C8    C     C_R   0.371254 0.595221 0.074953 0.013983
C9    C     C_R   0.341375 0.542848 0.953985 0.072693
C10   C     C_R   0.483913 0.484317 0.875473 -0.081968
C11   C     C_R   0.630798 0.441695 0.926232 -0.230550
C12   C     C_R   0.640150 0.459512 0.052680 -0.203245
C13   C     C_R   0.510090 0.533465 0.127645 -0.095526
C14   C     C_2   0.570129 0.958474 0.500190 -0.341433
C15   C     C_2   0.430278 0.042097 0.511888 -0.298879
C16   C     C_R   0.495363 0.491373 0.740599 0.843251
Cl1   Cl    Cl    0.327300 0.837821 0.251830 -0.637711
Cl2   Cl    Cl    0.040700 0.319729 0.363569 -0.461376
H1    H     H_    0.737781 0.392282 0.868450 0.169914
H2    H     H_    0.985868 0.620384 0.593731 0.148508
H3    H     H_    0.126608 0.491802 0.838394 0.175596
H4    H     H_    0.929557 0.660984 0.956085 0.173950
H5    H     H_    0.014616 0.808707 0.142465 0.183885
H6    H     H_    0.748627 0.413383 0.091712 0.201112
H7    H     H_    0.702209 0.009507 0.488298 0.196873
H8    H     H_    0.298222 0.991062 0.524300 0.203035
N1    N     N_2   0.950330 0.457950 0.466250 0.100454
N2    N     N_2   0.049670 0.542050 0.533750 -0.113548
O1    O     O_R   0.389250 0.738570 0.508280 -0.588098
O2    O     O_R   0.678390 0.711630 0.486650 -0.642368
O3    O     O_R   0.355400 0.513470 0.694050 -0.652637
O4    O     O_R   0.644540 0.486530 0.672420 -0.648277
O5    O     O_R   0.321610 0.288370 0.513350 -0.576859
O6    O     O_R   0.610750 0.261430 0.491720 -0.600339
O7    O     O_R   0.355460 0.513470 0.327580 -0.544172
O8    O     O_R   0.644600 0.486530 0.305950 -0.611239
Zn1   Zn    Zn3+2 0.306930 0.517990 0.514440 1.033817
Zn2   Zn    Zn3+2 0.693070 0.482010 0.485560 1.023715

loop_
_geom_bond_atom_site_label_1
_geom_bond_atom_site_label_2
_ccdc_geom_bond_type
C11   C12   A    
C6    C7    A    
C2    C15   S    
O4    Zn2   S    
C16   O4    A    
C9    C10   A    
C12   H6    S    
C3    C13   S    
C3    O7    A    
C2    O6    A    
C1    O1    A    
C7    C8    A    
C10   C16   S    
C16   O3    A    
C4    H3    S    
C11   H1    S    
C8    C13   A    
C3    O8    A    
C6    H5    S    
N2    Zn1   S    
C2    O5    A    
O8    Zn2   S    
C1    O2    A    
O7    Zn1   S    
C14   H7    S    
C5    C6    A    
C10   C11   A    
C5    H4    S    
N1    Zn2   S    
C12   C13   A    
O2    Zn2   S    
O1    Zn1   S    
N1    N2    D    
C14   C15   D    
C8    C9    A    
C15   H8    S    
C1    C14   S    
H2    N2    S    
C4    C9    A    
O6    Zn2   S    
O5    Zn1   S    
Cl2   N1    S    
O3    Zn1   S    
C4    C5    A    
C7    Cl1   S    
