data_mof_unit_40613.cif
_audit_creation_date              2012-10-26T20:50:49-0400
_audit_creation_method            fapswitch 2.2
_symmetry_space_group_name_H-M    P1
_symmetry_Int_Tables_number       1
_space_group_crystal_system       triclinic
_cell_length_a                    11.098773
_cell_length_b                    10.823282
_cell_length_c                    9.568301
_cell_angle_alpha                 89.134704
_cell_angle_beta                  102.646224
_cell_angle_gamma                 90.480556
_cell_volume                      1121.36672663

loop_
_atom_site_label
_atom_site_type_symbol
_atom_type_description
_atom_site_fract_x
_atom_site_fract_y
_atom_site_fract_z
_atom_type_partial_charge
C1    C     C_R   0.503467 0.262456 0.501720 0.552576
C2    C     C_R   0.407393 0.444054 0.050675 0.222064
C3    C     C_R   0.407176 0.446304 0.902145 -0.025527
C4    C     C_R   0.262878 0.503496 0.442178 0.607426
C5    C     C_R   0.597181 0.548763 0.949815 0.167264
C6    C     C_3   0.639350 0.679966 0.952616 0.005931
C7    C     C_3   0.643128 0.678715 0.112527 -0.265772
C8    C     C_R   0.502171 0.737565 0.499725 0.547934
C9    C     C_R   0.736748 0.501667 0.558034 0.551642
C10   C     C_2   0.127412 0.504467 0.410281 0.145258
C11   C     C_2   0.065571 0.537013 0.512386 0.112316
C12   C     C_R   0.516550 0.129413 0.506949 -0.014718
C13   C     C_2   0.870779 0.508499 0.590481 -0.136091
C14   C     C_2   0.930361 0.527544 0.484528 -0.152891
C15   C     C_R   0.493824 0.061012 0.623294 0.045062
C16   C     C_3   0.543018 0.076199 0.933822 -0.322599
C17   C     C_3   0.310500 0.256488 0.115667 -0.265882
C18   C     C_3   0.806458 0.816846 0.916884 -0.324474
C19   C     C_3   0.105158 0.713291 0.669978 -0.310780
C20   C     C_3   0.045226 0.557967 0.162123 -0.325566
C21   C     C_3   0.168017 0.118116 0.669553 -0.305797
C22   C     C_R   0.555131 0.066873 0.396671 -0.178754
C23   C     C_R   0.553613 0.937809 0.394739 -0.163648
C24   C     C_R   0.513021 0.870724 0.502717 -0.000481
C25   C     C_R   0.490186 0.933757 0.619817 -0.043451
C26   C     C_3   0.382021 0.923747 0.688985 -0.195298
C27   C     C_3   0.388374 0.064445 0.698812 0.287275
C28   C     C_R   0.597777 0.548294 0.097492 0.097444
Cu1   Cu    Cu3+1 0.499990 0.499980 0.640670 0.964353
Cu2   Cu    Cu3+1 0.500010 0.500020 0.359330 0.954715
H1    H     H_    0.330727 0.405272 0.827103 0.123946
H2    H     H_    0.552566 0.974499 0.943777 0.134389
H3    H     H_    0.221176 0.418218 0.036512 0.223059
H4    H     H_    0.259715 0.210494 0.017313 0.100407
H5    H     H_    0.266146 0.230445 0.205289 0.161376
H6    H     H_    0.406940 0.222614 0.141447 0.161487
H7    H     H_    0.824200 0.628374 0.966580 0.244013
H8    H     H_    0.894528 0.816917 0.879855 0.131601
H9    H     H_    0.823789 0.855336 0.026514 0.128292
H10   H     H_    0.739471 0.876148 0.842403 0.157469
H11   H     H_    0.569016 0.742803 0.888856 0.150440
H12   H     H_    0.737353 0.685671 0.181902 0.122158
H13   H     H_    0.128075 0.528597 0.733240 0.233739
H14   H     H_    0.172713 0.747008 0.765243 0.133912
H15   H     H_    0.010723 0.723177 0.689498 0.138832
H16   H     H_    0.113671 0.770958 0.575572 0.142267
H17   H     H_    0.919955 0.499591 0.701407 0.100278
H18   H     H_    0.988956 0.406796 0.270269 0.239057
H19   H     H_    0.980298 0.628501 0.185088 0.123722
H20   H     H_    0.006295 0.515492 0.056909 0.125572
H21   H     H_    0.133813 0.603745 0.155664 0.173568
H22   H     H_    0.582049 0.117223 0.309702 0.122601
H23   H     H_    0.573983 0.741754 0.140300 0.121119
H24   H     H_    0.299187 0.888447 0.612720 0.105252
H25   H     H_    0.262434 0.108488 0.505649 0.230459
H26   H     H_    0.093615 0.172105 0.598754 0.134191
H27   H     H_    0.183834 0.157885 0.778041 0.154528
H28   H     H_    0.136940 0.020552 0.673336 0.125327
H29   H     H_    0.580050 0.891532 0.306982 0.120874
H30   H     H_    0.402388 0.873560 0.793195 0.119017
H31   H     H_    0.878576 0.536626 0.374668 0.139084
H32   H     H_    0.409625 0.204602 0.849446 0.268865
H33   H     H_    0.551526 0.112844 0.043063 0.121744
H34   H     H_    0.619542 0.115896 0.889357 0.146129
N1    N     N_R   0.500780 0.500930 0.148120 -0.214597
N2    N     N_R   0.500790 0.500890 0.852210 -0.261273
N3    N     N_2   0.424263 0.111324 0.844855 -0.494760
N4    N     N_2   0.305547 0.389237 0.095741 -0.453512
N5    N     N_2   0.759561 0.691934 0.917485 -0.496270
N6    N     N_2   0.130396 0.585327 0.646353 -0.490963
N7    N     N_2   0.064810 0.462934 0.272370 -0.540093
N8    N     N_2   0.279192 0.125842 0.614035 -0.496343
O1    O     O_R   0.500000 0.319640 0.618810 -0.490249
O2    O     O_R   0.500010 0.319680 0.381230 -0.503164
O3    O     O_R   0.320680 0.500000 0.575130 -0.489669
O4    O     O_R   0.320690 0.500040 0.337550 -0.456817
O5    O     O_R   0.499990 0.680320 0.618770 -0.495064
O6    O     O_R   0.500000 0.680360 0.381190 -0.517217
O7    O     O_R   0.679310 0.499960 0.662450 -0.479947
O8    O     O_R   0.679320 0.500000 0.424870 -0.508366

loop_
_geom_bond_atom_site_label_1
_geom_bond_atom_site_label_2
_ccdc_geom_bond_type
C6    N5    S    
H7    N5    S    
C2    N1    A    
C19   H16   S    
C23   H29   S    
C26   C27   S    
Cu1   Cu2   S    
H32   N3    S    
C1    O2    A    
C20   H21   S    
C2    N4    S    
C5    C6    S    
Cu2   O2    S    
C11   C14   S    
C15   C25   A    
Cu1   O1    S    
C12   C22   A    
C9    C13   S    
C9    O7    A    
C7    H12   S    
C18   H10   S    
C4    O3    A    
C20   H20   S    
C6    H11   S    
C23   C24   A    
C20   N7    S    
C16   H33   S    
H25   N8    S    
Cu2   O8    S    
C10   N7    S    
C18   N5    S    
C13   C14   D    
C8    O6    A    
C1    C12   S    
C26   H24   S    
C11   N6    S    
C21   N8    S    
C24   C25   A    
C13   H17   S    
C25   C26   S    
C14   H31   S    
C7    C28   S    
C9    O8    A    
C18   H9    S    
C21   H27   S    
C20   H19   S    
C5    C28   A    
Cu2   O4    S    
C15   C27   S    
Cu1   O7    S    
C12   C15   A    
C16   N3    S    
C3    H1    S    
C17   H6    S    
H13   N6    S    
C8    O5    A    
C3    N2    A    
C17   H4    S    
C7    H23   S    
H18   N7    S    
C4    C10   S    
C19   H14   S    
C22   H22   S    
C17   N4    S    
C5    N2    A    
C21   H26   S    
C19   H15   S    
C6    C7    S    
Cu1   O3    S    
C16   H2    S    
C17   H5    S    
C1    O1    A    
C28   N1    A    
C18   H8    S    
C21   H28   S    
C8    C24   S    
C2    C3    A    
C4    O4    A    
Cu2   N1    S    
C27   N3    S    
C10   C11   D    
Cu1   N2    S    
Cu2   O6    S    
Cu1   O5    S    
C22   C23   A    
C19   N6    S    
C16   H34   S    
C26   H30   S    
C27   N8    S    
H3    N4    S    
