data_mof_unit_40726.cif
_audit_creation_date              2013-03-05T15:48:44-0500
_audit_creation_method            fapswitch 2.2
_symmetry_space_group_name_H-M    P1
_symmetry_Int_Tables_number       1
_space_group_crystal_system       triclinic
_cell_length_a                    22.206937
_cell_length_b                    7.016516
_cell_length_c                    19.692016
_cell_angle_alpha                 89.998708
_cell_angle_beta                  98.707954
_cell_angle_gamma                 90.000765
_cell_volume                      3032.94907321

loop_
_atom_site_label
_atom_site_type_symbol
_atom_site_description
_atom_site_fract_x
_atom_site_fract_y
_atom_site_fract_z
_atom_type_partial_charge
O1    O     O_R   0.448420 0.506120 0.415750 -0.586895
O2    O     O_R   0.551580 0.006120 0.584250 -0.586897
O3    O     O_R   0.436490 0.174470 0.555610 -0.561198
O4    O     O_R   0.563510 0.674470 0.444390 -0.561200
C1    C     C_R   0.423753 0.342697 0.578530 1.019899
C2    C     C_R   0.576243 0.842701 0.421466 1.019878
O5    O     O_R   0.441310 0.176330 0.414520 -0.583095
O6    O     O_R   0.558690 0.676330 0.585480 -0.583078
O7    O     O_R   0.556430 0.007110 0.442150 -0.556835
O8    O     O_R   0.443570 0.507110 0.557850 -0.556834
C3    C     C_R   0.425741 0.345698 0.389733 1.067300
C4    C     C_R   0.574262 0.845695 0.610265 1.067293
O9    O     O_3   0.537770 0.339560 0.509230 -0.261732
O10   O     O_3   0.462230 0.839560 0.490770 -0.261757
V1    V     V_3+5 0.492990 0.064280 0.498290 1.350105
V2    V     V_3+5 0.507010 0.564280 0.501710 1.350108
C5    C     C_R   0.874823 0.828478 0.703563 0.298285
C6    C     C_R   0.125187 0.327804 0.296371 0.298235
C7    C     C_R   0.886307 0.930648 0.822826 -0.451103
C8    C     C_R   0.113696 0.430590 0.177173 -0.450935
C9    C     C_R   0.590691 0.840044 0.737024 0.431009
C10   C     C_R   0.409332 0.340389 0.262973 0.430987
C11   C     C_R   0.627246 0.840765 0.800841 -0.092855
C12   C     C_R   0.372785 0.341215 0.199151 -0.092855
C13   C     C_R   0.689973 0.862348 0.806405 -0.091877
C14   C     C_R   0.310052 0.362609 0.193584 -0.091859
C15   C     C_R   0.718737 0.890724 0.748053 0.127331
C16   C     C_R   0.281271 0.390672 0.251941 0.127359
C17   C     C_R   0.682045 0.878865 0.681580 -0.151784
C18   C     C_R   0.317956 0.378671 0.318414 -0.151761
C19   C     C_R   0.783881 0.910694 0.754226 -0.074802
C20   C     C_R   0.216123 0.410488 0.245765 -0.074835
C21   C     C_R   0.811816 0.873011 0.695485 -0.275944
C22   C     C_R   0.188187 0.372432 0.304480 -0.275842
C23   C     C_R   0.776084 0.883905 0.630189 0.485258
C24   C     C_R   0.223906 0.383125 0.369789 0.485368
C25   C     C_R   0.712380 0.887373 0.623298 0.209627
C26   C     C_R   0.287609 0.386833 0.376693 0.209610
C27   C     C_R   0.822626 0.962524 0.816517 0.282194
C28   C     C_R   0.177375 0.462504 0.183495 0.282293
C29   C     C_R   0.911307 0.853331 0.767456 0.191611
C30   C     C_R   0.088703 0.353043 0.232505 0.191945
C31   C     C_R   0.616836 0.856156 0.676476 -0.306484
C32   C     C_R   0.383171 0.356183 0.323521 -0.306476
H1    H     H_    0.715593 0.846089 0.857124 0.192008
H2    H     H_    0.284442 0.346457 0.142855 0.192002
H3    H     H_    0.606909 0.820858 0.846976 0.207839
H4    H     H_    0.393135 0.321548 0.153012 0.207845
C33   C     C_3   0.816226 0.791210 0.267994 0.145994
C34   C     C_3   0.183771 0.291178 0.732013 0.145971
C35   C     C_3   0.780782 0.126692 0.247983 0.421792
C36   C     C_3   0.219222 0.626670 0.752006 0.421783
C37   C     C_3   0.731605 0.085070 0.299510 0.433136
C38   C     C_3   0.268383 0.585028 0.700465 0.433145
H5    H     H_    0.851625 0.861892 0.304859 0.220765
H6    H     H_    0.148375 0.361864 0.695145 0.220754
C39   C     C_1   0.621125 0.844479 0.374883 -0.050018
C40   C     C_1   0.378868 0.344461 0.625109 -0.050011
C41   C     C_3   0.792014 0.934455 0.209222 -0.380751
C42   C     C_3   0.207986 0.434441 0.790776 -0.380732
C43   C     C_3   0.763141 0.725588 0.307684 0.014227
C44   C     C_3   0.236856 0.225539 0.692327 0.014244
C45   C     C_3   0.707285 0.871126 0.291297 -0.415648
C46   C     C_3   0.292710 0.371099 0.708695 -0.415656
C47   C     C_3   0.680909 0.821939 0.215164 0.238397
C48   C     C_3   0.319092 0.321958 0.784833 0.238377
C49   C     C_3   0.730903 0.851781 0.168176 0.276404
C50   C     C_3   0.269097 0.351771 0.831821 0.276438
C51   C     C_1   0.659370 0.846540 0.336702 0.368625
C52   C     C_1   0.340623 0.346511 0.663289 0.368581
C53   C     C_1   0.837442 0.951287 0.159885 0.426967
C54   C     C_1   0.162559 0.451288 0.840114 0.427004
C55   C     C_1   0.875142 0.950323 0.120956 -0.109662
C56   C     C_1   0.124858 0.450331 0.879042 -0.109768
H7    H     H_    0.742287 0.707922 0.150046 0.157052
H8    H     H_    0.257715 0.207903 0.849947 0.157045
H9    H     H_    0.670278 0.666730 0.213377 0.151482
H10   H     H_    0.329737 0.166759 0.786629 0.151468
H11   H     H_    0.748261 0.583270 0.287006 0.181718
H12   H     H_    0.251742 0.083240 0.713018 0.181705
O11   O     O_R   0.056480 0.288780 0.942210 -0.584458
O12   O     O_R   0.943520 0.788780 0.057790 -0.584528
O13   O     O_R   0.058700 0.616820 0.085490 -0.574345
O14   O     O_R   0.941300 0.116820 0.914510 -0.574483
C57   C     C_R   0.073540 0.447468 0.110408 1.124251
C58   C     C_R   0.926457 0.947472 0.889595 1.124639
O15   O     O_R   0.063520 0.618570 0.944410 -0.562822
O16   O     O_R   0.936480 0.118570 0.055590 -0.562915
O17   O     O_R   0.948420 0.787670 0.915740 -0.599706
O18   O     O_R   0.051580 0.287670 0.084260 -0.599625
C59   C     C_R   0.079000 0.451326 0.924422 1.015232
C60   C     C_R   0.921000 0.951322 0.075577 1.015694
O19   O     O_3   0.962260 0.453430 0.990800 -0.276500
O20   O     O_3   0.037740 0.953430 0.009200 -0.276325
V3    V     V_3+5 0.007000 0.728750 0.001710 1.331378
V4    V     V_3+5 0.993000 0.228750 0.998290 1.331290
N1    N     N_R   0.973982 0.794418 0.776477 0.266333
O21   O     O_R   0.017124 0.913661 0.799535 -0.295814
O22   O     O_R   0.987602 0.617587 0.765952 -0.310169
N2    N     N_R   0.026017 0.294324 0.223467 0.266406
O23   O     O_R   0.012365 0.117137 0.233350 -0.311228
O24   O     O_R   0.982902 0.414145 0.200851 -0.295069
Cl1   Cl    Cl    0.756547 0.304630 0.183812 -0.489475
Cl2   Cl    Cl    0.243474 0.804600 0.816172 -0.489453
N3    N     N_R   0.838792 0.200993 0.286782 0.271533
O25   O     O_R   0.891035 0.162397 0.267664 -0.260358
O26   O     O_R   0.838163 0.334873 0.332357 -0.208542
N4    N     N_R   0.161215 0.700997 0.713216 0.271540
O27   O     O_R   0.108971 0.662391 0.732331 -0.260341
O28   O     O_R   0.161847 0.834894 0.667645 -0.208586
Cl3   Cl    Cl    0.765771 0.101710 0.389906 -0.359875
Cl4   Cl    Cl    0.234189 0.601593 0.610073 -0.359889
N5    N     N_R   0.680546 0.225325 0.290526 0.252827
O29   O     O_R   0.648225 0.259393 0.231117 -0.240543
O30   O     O_R   0.665416 0.315597 0.343224 -0.295058
N6    N     N_R   0.319437 0.725305 0.709413 0.252822
O31   O     O_R   0.351769 0.759447 0.768808 -0.240616
O32   O     O_R   0.334560 0.815490 0.656691 -0.295004
Cl5   Cl    Cl    0.703802 0.972685 0.088744 -0.363276
Cl6   Cl    Cl    0.296195 0.472652 0.911258 -0.363359
Cl7   Cl    Cl    0.858794 0.602713 0.236849 -0.421460
Cl8   Cl    Cl    0.141200 0.102686 0.763168 -0.421510
Cl9   Cl    Cl    0.809676 0.922630 0.555136 -0.295351
Cl10  Cl    Cl    0.190283 0.421373 0.444850 -0.295298
Cl11  Cl    Cl    0.606084 0.911147 0.183140 -0.347113
Cl12  Cl    Cl    0.393908 0.411253 0.816848 -0.347069
N7    N     N_R   0.901028 0.738056 0.649471 0.287364
O33   O     O_R   0.878185 0.579070 0.622961 -0.250835
O34   O     O_R   0.950551 0.805354 0.630610 -0.179006
N8    N     N_R   0.098998 0.236847 0.350375 0.287257
O35   O     O_R   0.121923 0.077851 0.376788 -0.251189
O36   O     O_R   0.049414 0.303657 0.369241 -0.179057
N9    N     N_R   0.798903 0.065394 0.869851 0.230667
O37   O     O_R   0.812545 0.014451 0.933882 -0.414636
O38   O     O_R   0.763401 0.211527 0.854283 -0.345944
N10   N     N_R   0.201091 0.565599 0.130206 0.230685
O39   O     O_R   0.187456 0.514856 0.066153 -0.414503
O40   O     O_R   0.236568 0.711758 0.145833 -0.345981
Cl13  Cl    Cl    0.511400 0.812087 0.734852 -0.515014
Cl14  Cl    Cl    0.488633 0.312704 0.265149 -0.515023
N11   N     N_R   0.679688 0.887206 0.555481 0.207259
O41   O     O_R   0.679046 0.730511 0.520188 -0.350506
O42   O     O_R   0.669907 0.049088 0.523530 -0.331468
N12   N     N_R   0.320294 0.386655 0.444514 0.207239
O43   O     O_R   0.320982 0.229907 0.479787 -0.350311
O44   O     O_R   0.330029 0.548520 0.476485 -0.331631
N13   N     N_R   0.783289 0.693165 0.381636 0.323998
O45   O     O_R   0.839614 0.720467 0.409577 -0.174798
O46   O     O_R   0.747490 0.602706 0.417098 -0.212473
N14   N     N_R   0.216703 0.193066 0.618379 0.324014
O47   O     O_R   0.160370 0.220267 0.590449 -0.174742
O48   O     O_R   0.252507 0.102643 0.582917 -0.212435

loop_
_geom_bond_atom_site_label_1
_geom_bond_atom_site_label_2
_geom_bond_distance
_ccdc_geom_bond_type
C48   C50   1.563207 S    
C45   C47   1.563326 S    
O4    V2    1.968464 S    
O15   C59   1.300432 A    
C15   C17   1.435741 A    
N13   O45   1.302139 A    
O1    C3    1.305757 A    
C7    C58   1.477393 S    
O2    C4    1.305771 A    
C2    O7    1.320802 A    
O16   V4    1.968493 S    
N1    O21   1.300907 A    
N6    O31   1.298711 A    
O5    C3    1.311069 A    
C28   N10   1.438437 S    
C41   C53   1.507425 S    
C25   N11   1.420191 S    
C1    C40   1.453220 S    
C10   C12   1.389022 A    
C44   H12   1.109679 S    
C24   Cl10  1.774415 S    
C12   C14   1.388925 A    
C4    C31   1.491956 S    
N11   O42   1.300690 A    
C8    C28   1.418462 A    
C42   C54   1.507435 S    
C35   Cl1   1.799788 S    
C10   Cl14  1.765769 S    
O12   C60   1.313984 A    
N4    O27   1.301254 A    
C18   C26   1.417280 A    
C47   Cl11  1.798128 S    
O14   V4    2.020704 S    
C43   C45   1.601353 S    
C44   C46   1.601360 S    
C36   C42   1.588066 S    
C41   C49   1.580927 S    
C9    C31   1.407528 A    
C10   C32   1.407532 A    
O16   C60   1.300426 A    
C36   C38   1.625692 S    
C47   C49   1.563199 S    
C34   Cl8   1.787398 S    
C19   C21   1.417754 A    
O10   V2    2.168220 S    
C46   C52   1.499805 S    
C22   C24   1.407063 A    
O6    C4    1.311068 A    
C37   Cl3   1.830023 S    
O5    V1    2.020674 S    
C33   Cl7   1.787343 S    
O6    V2    2.020692 S    
C17   C31   1.445109 A    
C2    C39   1.453222 S    
C18   C32   1.445090 A    
C5    C21   1.418910 A    
N1    O22   1.301105 A    
C37   N5    1.491530 S    
C9    C11   1.389018 A    
C48   H10   1.113749 S    
C47   H9    1.113747 S    
C15   C19   1.440124 A    
C12   H4    1.083083 S    
C45   C51   1.499810 S    
C16   C20   1.440109 A    
C33   C43   1.578454 S    
N12   O44   1.300691 A    
C53   C55   1.217765 T    
O11   V4    1.963553 S    
C40   C52   1.216624 T    
C33   H5    1.103680 S    
C34   H6    1.103690 S    
C48   Cl12  1.798120 S    
C38   N6    1.491535 S    
C35   C37   1.625712 S    
C46   C48   1.563341 S    
C56   C59   1.453009 S    
O17   V3    2.015519 S    
N8    O36   1.301576 A    
N7    O34   1.301554 A    
C30   N2    1.436736 S    
N3    O26   1.300728 A    
C35   N3    1.488968 S    
O13   V3    2.020688 S    
C8    C57   1.477423 S    
N2    O24   1.301069 A    
C38   Cl4   1.830079 S    
C3    C32   1.491930 S    
O1    V2    2.014411 S    
O20   V4    2.168058 S    
O2    V1    2.014404 S    
C6    C22   1.418882 A    
C42   C50   1.580915 S    
C7    C27   1.418482 A    
C54   C56   1.217772 T    
O13   C57   1.308569 A    
O19   V4    1.715384 S    
O9    V1    2.168205 S    
N9    O37   1.301440 A    
C34   C44   1.578469 S    
N14   O48   1.300200 A    
C6    N8    1.436561 S    
O4    C2    1.309842 A    
C35   C41   1.588041 S    
C9    Cl13  1.765768 S    
N7    O33   1.301563 A    
C13   H1    1.078034 S    
O3    V1    1.968496 S    
C23   C25   1.400763 A    
N10   O40   1.301413 A    
N9    O38   1.301412 A    
N5    O29   1.298712 A    
C27   N9    1.438450 S    
O15   V3    1.968525 S    
C36   Cl2   1.799786 S    
O12   V3    1.963573 S    
C44   N14   1.474906 S    
N13   O46   1.300205 A    
O10   V1    1.715819 S    
C26   N12   1.420196 S    
C5    N7    1.436507 S    
C55   C60   1.452996 S    
O14   C58   1.308551 A    
N10   O39   1.301443 A    
O3    C1    1.309832 A    
C58   O17   1.297734 A    
C8    C30   1.405145 A    
C57   O18   1.297720 A    
N4    O28   1.300726 A    
O18   V4    2.015529 S    
C50   H8    1.112467 S    
N3    O25   1.301276 A    
C14   C16   1.410771 A    
C33   C41   1.565330 S    
N12   O43   1.299649 A    
C34   C42   1.565326 S    
C11   H3    1.083080 S    
C6    C30   1.400322 A    
N8    O35   1.301575 A    
C43   N13   1.474915 S    
C16   C18   1.435735 A    
O8    V2    1.959426 S    
N11   O41   1.299640 A    
C50   Cl6   1.800954 S    
C24   C26   1.400767 A    
C37   C45   1.595247 S    
C38   C46   1.595220 S    
C43   H11   1.109689 S    
C23   Cl9   1.774391 S    
N2    O23   1.301259 A    
C21   C23   1.407074 A    
N6    O32   1.302533 A    
C29   N1    1.436908 S    
C20   C28   1.434493 A    
O7    V1    1.959446 S    
O20   V3    1.715374 S    
C5    C29   1.400429 A    
C14   H2    1.078035 S    
O11   C59   1.313984 A    
C1    O8    1.320808 A    
C11   C13   1.388921 A    
C49   H7    1.112465 S    
C36   N4    1.488924 S    
O19   V3    2.168043 S    
O9    V2    1.715829 S    
C17   C25   1.417273 A    
C19   C27   1.434450 A    
N14   O47   1.302139 A    
C39   C51   1.216626 T    
C49   Cl5   1.800949 S    
C7    C29   1.405229 A    
C20   C22   1.417794 A    
N5    O30   1.302533 A    
C13   C15   1.410767 A    
