data_mof_unit_41374.cif
_audit_creation_date              2012-12-11T14:13:06-0500
_audit_creation_method            fapswitch 2.2
_symmetry_space_group_name_H-M    P1
_symmetry_Int_Tables_number       1
_space_group_crystal_system       triclinic
_cell_length_a                    11.51559
_cell_length_b                    18.411514
_cell_length_c                    10.130633
_cell_angle_alpha                 90.000342
_cell_angle_beta                  109.404172
_cell_angle_gamma                 90.0009
_cell_volume                      2025.88769253

loop_
_atom_site_label
_atom_site_type_symbol
_atom_type_description
_atom_site_fract_x
_atom_site_fract_y
_atom_site_fract_z
_atom_type_partial_charge
C1    C     C_R   0.074474 0.646136 0.141341 0.533763
C2    C     C_R   0.925611 0.353849 0.858673 0.533447
C3    C     C_R   0.925608 0.146150 0.858672 0.533430
C4    C     C_R   0.074475 0.853864 0.141342 0.533755
C5    C     C_R   0.398237 0.453529 0.448875 -0.034505
C6    C     C_R   0.603706 0.546019 0.548193 -0.035138
C7    C     C_R   0.603707 0.953985 0.548187 -0.035152
C8    C     C_R   0.398231 0.046467 0.448881 -0.034500
C9    C     C_2   0.407933 0.929012 0.937367 -0.053894
C10   C     C_2   0.579905 0.076051 0.077122 -0.061612
C11   C     C_2   0.579858 0.423914 0.077183 -0.061748
C12   C     C_2   0.407940 0.571008 0.937316 -0.053866
C13   C     C_2   0.437088 0.977574 0.040371 -0.185863
C14   C     C_2   0.467118 0.050862 0.011171 -0.179566
C15   C     C_2   0.467155 0.449163 0.011030 -0.179673
C16   C     C_2   0.437136 0.522438 0.040299 -0.185847
C17   C     C_2   0.009195 0.922175 0.112197 -0.118757
C18   C     C_2   0.991292 0.077934 0.887891 -0.119724
C19   C     C_2   0.991301 0.422064 0.887897 -0.119713
C20   C     C_2   0.009193 0.577824 0.112195 -0.118754
C21   C     C_2   0.028913 0.964906 0.015192 -0.161685
C22   C     C_2   0.972775 0.035470 0.985957 -0.162031
C23   C     C_2   0.972775 0.464529 0.985954 -0.162031
C24   C     C_2   0.028919 0.535093 0.015197 -0.161690
C25   C     C_R   0.466747 0.646186 0.440842 0.542938
C26   C     C_R   0.533557 0.353726 0.559143 0.548518
C27   C     C_R   0.533553 0.146275 0.559140 0.548525
C28   C     C_R   0.466749 0.853813 0.440845 0.542940
C29   C     C_R   0.376818 0.644197 0.966861 0.606063
C30   C     C_R   0.622360 0.355982 0.033262 0.605112
C31   C     C_R   0.622368 0.144010 0.033247 0.605118
C32   C     C_R   0.376817 0.855809 0.966870 0.606074
C33   C     C_R   0.517140 0.425113 0.490440 0.006427
C34   C     C_R   0.484334 0.574398 0.508453 -0.004131
C35   C     C_R   0.484337 0.925601 0.508455 -0.004114
C36   C     C_R   0.517130 0.074887 0.490440 0.006492
C37   C     C_R   0.296923 0.408303 0.383386 -0.091943
C38   C     C_R   0.705522 0.591419 0.611102 -0.091103
C39   C     C_R   0.705531 0.908591 0.611081 -0.091110
C40   C     C_R   0.296913 0.091688 0.383396 -0.091946
C41   C     C_R   0.177943 0.433395 0.356094 -0.150274
C42   C     C_R   0.824427 0.566216 0.637326 -0.151678
C43   C     C_R   0.824431 0.933802 0.637282 -0.151689
C44   C     C_R   0.177937 0.066590 0.356109 -0.150294
C45   C     C_R   0.158842 0.501000 0.405706 -0.084265
C46   C     C_R   0.843150 0.497917 0.590204 -0.086207
C47   C     C_R   0.843137 0.002103 0.590151 -0.086241
C48   C     C_R   0.158844 0.998985 0.405726 -0.084276
C49   C     C_R   0.258032 0.547223 0.471544 0.284195
C50   C     C_R   0.743843 0.451382 0.526892 0.283556
C51   C     C_R   0.743819 0.048630 0.526858 0.283580
C52   C     C_R   0.258040 0.952768 0.471559 0.284225
C53   C     C_R   0.380198 0.526669 0.477633 -0.021929
C54   C     C_R   0.621643 0.472567 0.520722 -0.017823
C55   C     C_R   0.621633 0.027438 0.520716 -0.017783
C56   C     C_R   0.380200 0.973327 0.477639 -0.021923
Cr1   Cr    Cr6+3 0.187610 0.750000 0.979860 1.066039
Cr2   Cr    Cr6+3 0.812390 0.250000 0.020140 1.058322
Cr3   Cr    Cr6+3 0.245810 0.750000 0.341640 1.202639
Cr4   Cr    Cr6+3 0.754190 0.250000 0.658360 1.203344
Cr5   Cr    Cr6+3 0.485760 0.750000 0.219910 1.040064
Cr6   Cr    Cr6+3 0.514240 0.250000 0.780090 1.033492
H1    H     H_    0.101079 0.398020 0.305901 0.124552
H2    H     H_    0.901640 0.601841 0.685105 0.128882
H3    H     H_    0.901650 0.898182 0.685050 0.128871
H4    H     H_    0.101071 0.101961 0.305916 0.124527
H5    H     H_    0.066551 0.515293 0.401811 0.161936
H6    H     H_    0.935284 0.483131 0.594219 0.157218
H7    H     H_    0.935264 0.016897 0.594148 0.157179
H8    H     H_    0.066556 0.984688 0.401838 0.161891
H9    H     H_    0.310194 0.353269 0.353148 0.132812
H10   H     H_    0.692784 0.646726 0.640304 0.133269
H11   H     H_    0.692803 0.853282 0.640285 0.133274
H12   H     H_    0.310179 0.146723 0.353157 0.132816
H13   H     H_    0.402543 0.079618 0.923626 0.178640
H14   H     H_    0.446217 0.962418 0.147217 0.155383
H15   H     H_    0.446323 0.537583 0.147169 0.155369
H16   H     H_    0.402692 0.420482 0.923276 0.178707
H17   H     H_    0.642643 0.041703 0.154490 0.198592
H18   H     H_    0.405168 0.945179 0.833708 0.190768
H19   H     H_    0.405143 0.554851 0.833640 0.190765
H20   H     H_    0.642505 0.458204 0.154759 0.198742
H21   H     H_    0.912468 0.052157 0.043508 0.167669
H22   H     H_    0.089945 0.948368 0.958456 0.168205
H23   H     H_    0.089960 0.551629 0.958471 0.168200
H24   H     H_    0.912455 0.447846 0.043492 0.167665
H25   H     H_    0.046618 0.060284 0.825411 0.121941
H26   H     H_    0.953065 0.939627 0.173889 0.124642
H27   H     H_    0.953054 0.560374 0.173879 0.124672
H28   H     H_    0.046640 0.439710 0.825430 0.121963
O1    O     O_R   0.267710 0.668200 0.902110 -0.438674
O2    O     O_R   0.732290 0.331800 0.097890 -0.445618
O3    O     O_R   0.732290 0.168200 0.097890 -0.445586
O4    O     O_R   0.267710 0.831800 0.902110 -0.438637
O5    O     O_R   0.099480 0.674460 0.038850 -0.521282
O6    O     O_R   0.900520 0.325540 0.961150 -0.522438
O7    O     O_R   0.900520 0.174460 0.961150 -0.522438
O8    O     O_R   0.099480 0.825540 0.038850 -0.521280
O9    O     O_R   0.116720 0.669210 0.267660 -0.453174
O10   O     O_R   0.883280 0.330790 0.732340 -0.453516
O11   O     O_R   0.883280 0.169210 0.732340 -0.453574
O12   O     O_R   0.116720 0.830790 0.267660 -0.453201
O13   O     O_R   0.366710 0.675440 0.427590 -0.438781
O14   O     O_R   0.633290 0.324560 0.572410 -0.439509
O15   O     O_R   0.633290 0.175440 0.572410 -0.439511
O16   O     O_R   0.366710 0.824560 0.427590 -0.438786
O17   O     O_R   0.534870 0.669390 0.371760 -0.519292
O18   O     O_R   0.465130 0.330610 0.628240 -0.519415
O19   O     O_R   0.465130 0.169390 0.628240 -0.519406
O20   O     O_R   0.534870 0.830610 0.371760 -0.519296
O21   O     O_R   0.453080 0.674480 0.075160 -0.514288
O22   O     O_R   0.546920 0.325520 0.924840 -0.518718
O23   O     O_R   0.546920 0.174480 0.924840 -0.518721
O24   O     O_R   0.453080 0.825520 0.075160 -0.514290
O25   O     O_3   0.306390 0.750000 0.180470 -0.306971
O26   O     O_3   0.693610 0.250000 0.819530 -0.301343
S1    S     S_3+6 0.227141 0.609317 0.589577 0.016546
O27   O     O_2   0.338186 0.653890 0.666692 -0.277969
O28   O     O_2   0.122423 0.659373 0.517245 -0.248140
O29   O     O_3   0.182713 0.558089 0.702011 -0.595397
H29   H     H_    0.111750 0.583695 0.714900 0.353846
S2    S     S_3+6 0.774183 0.386719 0.412162 0.019599
O30   O     O_2   0.867862 0.330888 0.486229 -0.231254
O31   O     O_2   0.658327 0.348306 0.328078 -0.276057
O32   O     O_3   0.835697 0.433561 0.308816 -0.610145
H30   H     H_    0.897124 0.400750 0.291629 0.359410
S3    S     S_3+6 0.774101 0.113299 0.412109 0.019662
O33   O     O_2   0.658195 0.151651 0.327986 -0.276092
O34   O     O_2   0.867688 0.169183 0.486163 -0.231155
O35   O     O_3   0.835697 0.066482 0.308811 -0.610131
H31   H     H_    0.897153 0.099300 0.291705 0.359396
S4    S     S_3+6 0.227173 0.890676 0.589605 0.016556
O36   O     O_2   0.122480 0.840606 0.517282 -0.248126
O37   O     O_2   0.338231 0.846124 0.666730 -0.277986
O38   O     O_3   0.182731 0.941901 0.702027 -0.595378
H32   H     H_    0.111748 0.916300 0.714879 0.353836

loop_
_geom_bond_atom_site_label_1
_geom_bond_atom_site_label_2
_ccdc_geom_bond_type
C32   O4    A    
C4    O8    A    
C12   C29   S    
C17   H26   S    
Cr3   O9    S    
C44   H4    S    
C50   S2    S    
C7    C55   A    
C1    O9    A    
O38   H32   S    
Cr1   O25   S    
Cr6   O26   S    
C50   C54   A    
C5    C53   A    
Cr2   O3    S    
C38   C42   A    
C5    C37   A    
S1    O28   D    
C42   C46   A    
C15   H16   S    
Cr6   O18   S    
C27   O15   A    
C15   C16   S    
C3    C18   S    
C16   H15   S    
C8    C36   A    
Cr2   O6    S    
C47   H7    S    
C9    C13   D    
C9    C32   S    
C26   O14   A    
C11   C15   D    
C10   C31   S    
C49   S1    S    
C20   C24   D    
C11   C30   S    
C28   O16   A    
S4    O36   D    
C23   H24   S    
C4    O12   A    
Cr5   O25   S    
C23   C24   S    
C6    C38   A    
C24   H23   S    
C40   C44   A    
C43   H3    S    
C25   C34   S    
C3    O11   A    
C35   C56   A    
C2    O10   A    
C13   C14   S    
Cr2   O26   S    
C8    C56   A    
Cr2   O7    S    
C6    C54   A    
Cr5   O20   S    
C11   H20   S    
C38   H10   S    
Cr3   O16   S    
C52   S4    S    
C12   C16   D    
C44   C48   A    
C28   C35   S    
Cr6   O23   S    
C30   O2    A    
C10   C14   D    
S1    O29   S    
C26   O18   A    
C25   O13   A    
C39   C43   A    
C28   O20   A    
C31   O3    A    
C17   C21   D    
C6    C34   A    
C30   O22   A    
C9    H18   S    
C19   C23   D    
S3    O34   D    
C46   H6    S    
C3    O7    A    
C26   C33   S    
C21   H22   S    
C45   C49   A    
C1    O5    A    
C4    C17   S    
S4    O37   D    
Cr1   O4    S    
C37   H9    S    
O32   H30   S    
Cr4   O26   S    
C41   H1    S    
S2    O31   D    
Cr4   O11   S    
Cr5   O21   S    
C42   H2    S    
C29   O1    A    
O29   H29   S    
C25   O17   A    
C33   C54   A    
C1    C20   S    
C7    C39   A    
Cr1   O1    S    
C2    C19   S    
C18   C22   D    
Cr3   O12   S    
C7    C35   A    
C29   O21   A    
C48   H8    S    
Cr4   O10   S    
C47   C51   A    
C10   H17   S    
C45   H5    S    
C27   C36   S    
C13   H14   S    
C20   H27   S    
C46   C50   A    
C18   H25   S    
Cr3   O13   S    
C14   H13   S    
S2    O32   S    
C2    O6    A    
O35   H31   S    
S3    O35   S    
C51   S3    S    
C19   H28   S    
Cr4   O14   S    
S1    O27   D    
C22   H21   S    
Cr6   O19   S    
Cr2   O2    S    
S4    O38   S    
C49   C53   A    
Cr1   O8    S    
C40   H12   S    
C12   H19   S    
C51   C55   A    
C5    C33   A    
C39   H11   S    
C37   C41   A    
Cr5   O17   S    
C52   C56   A    
C48   C52   A    
Cr6   O22   S    
C27   O19   A    
C34   C53   A    
Cr3   O25   S    
Cr1   O5    S    
Cr5   O24   S    
C36   C55   A    
C41   C45   A    
C8    C40   A    
C32   O24   A    
S2    O30   D    
C21   C22   S    
C43   C47   A    
C31   O23   A    
Cr4   O15   S    
S3    O33   D    
