data_mof_unit_39225.cif
_audit_creation_date              2012-12-10T17:17:26-0500
_audit_creation_method            fapswitch 2.2
_symmetry_space_group_name_H-M    P1
_symmetry_Int_Tables_number       1
_space_group_crystal_system       triclinic
_cell_length_a                    10.260855
_cell_length_b                    10.683329
_cell_length_c                    12.207146
_cell_angle_alpha                 91.117813
_cell_angle_beta                  109.03455
_cell_angle_gamma                 95.884623
_cell_volume                      1256.31911965

loop_
_atom_site_label
_atom_site_type_symbol
_atom_type_description
_atom_site_fract_x
_atom_site_fract_y
_atom_site_fract_z
_atom_type_partial_charge
C1    C     C_R   0.048770 0.733290 0.487763 0.876750
C2    C     C_R   0.204777 0.516009 0.839385 -0.052888
C3    C     C_2   0.067271 0.866623 0.465643 0.013522
C4    C     C_R   0.132753 0.508491 0.714465 0.867087
C5    C     C_2   0.953306 0.928625 0.431799 0.532854
C6    C     C_2   0.904649 0.131800 0.486580 -0.296164
C7    C     C_2   0.966120 0.063945 0.428961 -0.126137
C8    C     C_2   0.429667 0.511601 0.513654 0.665224
C9    C     C_2   0.564323 0.491569 0.492504 -0.137547
C10   C     C_R   0.945535 0.266512 0.502467 0.895574
C11   C     C_R   0.866089 0.485827 0.285062 0.904906
C12   C     C_R   0.422458 0.499397 0.993006 0.144733
C13   C     C_R   0.719774 0.327138 0.984312 0.649815
C14   C     C_R   0.789270 0.461470 0.160884 -0.279438
C15   C     C_R   0.168743 0.601897 0.909635 -0.136721
C16   C     C_R   0.256398 0.634122 0.021998 -0.106179
C17   C     C_R   0.382846 0.585158 0.063442 -0.082958
C18   C     C_R   0.324765 0.454920 0.885051 0.013139
C19   C     C_R   0.556144 0.458026 0.024595 -0.050167
C20   C     C_R   0.585138 0.363793 0.954857 -0.199453
C21   C     C_R   0.478831 0.308261 0.856885 0.736058
C22   C     C_R   0.350253 0.352499 0.823466 -0.257775
C23   C     C_R   0.662373 0.509554 0.123057 -0.227396
C24   C     C_R   0.824024 0.376652 0.086726 0.217766
F1    F     F_    0.822569 0.868666 0.408847 -0.622670
F2    F     F_    0.425105 0.597787 0.594622 -0.550748
F3    F     F_    0.498647 0.212493 0.791372 -0.544873
F4    F     F_    0.748321 0.240878 0.914675 -0.541267
H1    H     H_    0.829716 0.088146 0.524022 0.224324
H2    H     H_    0.065107 0.529621 0.123929 0.331110
H3    H     H_    0.364903 0.804866 0.466209 0.382322
H4    H     H_    0.881607 0.796045 0.765592 0.372188
H5    H     H_    0.558153 0.419106 0.426878 0.094429
H6    H     H_    0.316604 0.380846 0.393002 0.171333
H7    H     H_    0.647669 0.585180 0.175889 0.191327
H8    H     H_    0.075900 0.648147 0.876292 0.189435
H9    H     H_    0.445604 0.615019 0.151274 0.134884
H10   H     H_    0.228435 0.700766 0.076096 0.159222
H11   H     H_    0.270626 0.306095 0.747876 0.191172
H12   H     H_    0.039904 0.108661 0.391278 0.231090
N1    N     N_2   0.313640 0.446500 0.454900 -0.221658
N2    N     N_2   0.686360 0.553430 0.545150 0.087803
O1    O     O_R   0.936910 0.692950 0.509080 -0.509824
O2    O     O_2   0.012251 0.267447 0.014251 -0.184958
O3    O     O_3   0.113599 0.458229 0.161237 -0.540789
O4    O     O_2   0.246580 0.997188 0.379854 -0.303658
O5    O     O_2   0.266323 0.050615 0.580608 -0.213546
O6    O     O_3   0.357555 0.844665 0.537647 -0.392267
O7    O     O_2   0.626192 0.773786 0.606874 -0.171499
O8    O     O_2   0.669149 0.612306 0.751908 -0.248533
O9    O     O_3   0.878097 0.728812 0.707322 -0.527530
O10   O     O_R   0.138320 0.658600 0.480130 -0.570529
O11   O     O_R   0.002900 0.525670 0.675280 -0.564033
O12   O     O_R   0.204310 0.491320 0.646330 -0.554995
O13   O     O_R   0.861680 0.341400 0.519870 -0.606016
O14   O     O_R   0.063090 0.307050 0.490920 -0.585743
O15   O     O_R   0.795690 0.508680 0.353670 -0.628057
O16   O     O_R   0.997100 0.474330 0.324720 -0.553360
O17   O     O_2   0.019176 0.241794 0.214406 -0.267199
S1    S     S_3+6 0.994234 0.331280 0.118344 0.097066
S2    S     S_3+6 0.237174 0.944115 0.490576 0.061599
S3    S     S_3+6 0.710688 0.668345 0.654418 0.217131
Zn1   Zn    Zn3+2 0.865520 0.522940 0.519330 1.109940
Zn2   Zn    Zn3+2 0.134480 0.477060 0.480670 1.092772

loop_
_geom_bond_atom_site_label_1
_geom_bond_atom_site_label_2
_ccdc_geom_bond_type
C12   C17   A    
O5    S2    D    
C2    C4    S    
C7    H12   S    
O14   Zn2   S    
O3    S1    S    
C6    C10   S    
C6    C7    D    
C10   O13   A    
C4    O11   A    
C2    C18   A    
C11   O16   A    
C10   O14   A    
N2    S3    S    
H2    O3    S    
C19   C23   A    
C19   C20   A    
N1    Zn2   S    
C24   S1    S    
C18   C22   A    
C21   F3    S    
O1    Zn1   S    
O17   S1    D    
C13   F4    S    
C17   H9    S    
C21   C22   A    
C8    N1    D    
C9    H5    S    
C2    C15   A    
O11   Zn1   S    
C9    N2    D    
H6    N1    S    
O12   Zn2   S    
C14   C24   A    
O2    S1    D    
O9    S3    S    
C22   H11   S    
C12   C19   A    
C11   C14   S    
C14   C23   A    
O15   Zn1   S    
C23   H7    S    
H3    O6    S    
C3    S2    S    
O16   Zn2   S    
O8    S3    D    
C1    O10   A    
C5    F1    S    
O4    S2    D    
C12   C18   A    
C15   C16   A    
C3    C5    D    
C15   H8    S    
C6    H1    S    
C8    F2    S    
C20   C21   A    
O10   Zn2   S    
H4    O9    S    
O6    S2    S    
C5    C7    S    
C16   C17   A    
O7    S3    D    
C13   C20   A    
C4    O12   A    
C11   O15   A    
N2    Zn1   S    
C1    O1    A    
C13   C24   A    
C16   H10   S    
C8    C9    S    
C1    C3    S    
O13   Zn1   S    
