data_mof_unit_19115.cif
_audit_creation_date              2012-10-26T21:01:04-0400
_audit_creation_method            fapswitch 2.2
_symmetry_space_group_name_H-M    P1
_symmetry_Int_Tables_number       1
_space_group_crystal_system       triclinic
_cell_length_a                    10.895206
_cell_length_b                    10.87047
_cell_length_c                    9.547772
_cell_angle_alpha                 90.941964
_cell_angle_beta                  90.876508
_cell_angle_gamma                 90.551293
_cell_volume                      1130.45977437

loop_
_atom_site_label
_atom_site_type_symbol
_atom_type_description
_atom_site_fract_x
_atom_site_fract_y
_atom_site_fract_z
_atom_type_partial_charge
C1    C     C_R   0.493446 0.262578 0.498446 0.571751
C2    C     C_R   0.405651 0.449027 0.071761 0.013670
C3    C     C_R   0.405601 0.449045 0.923048 0.003858
C4    C     C_R   0.265482 0.502990 0.498595 0.551229
C5    C     C_R   0.601661 0.538078 0.928480 0.154686
C6    C     C_3   0.661067 0.661204 0.921254 -0.263889
C7    C     C_3   0.653209 0.668816 0.080212 -0.144821
C8    C     C_R   0.498942 0.737638 0.500802 0.561157
C9    C     C_R   0.733963 0.489053 0.501188 0.598415
C10   C     C_2   0.934166 0.426866 0.402618 0.061414
C11   C     C_2   0.865459 0.469584 0.508484 -0.069972
C12   C     C_R   0.489605 0.128964 0.494829 -0.004574
C13   C     C_2   0.068933 0.430333 0.419111 -0.154615
C14   C     C_2   0.133801 0.517239 0.491899 0.028824
C15   C     C_R   0.525733 0.067969 0.615625 0.010435
C16   C     C_2   0.881855 0.359555 0.278028 0.628043
C17   C     C_2   0.776161 0.679443 0.155137 0.624376
C18   C     C_2   0.084804 0.637377 0.541339 0.551279
C19   C     C_2   0.400636 0.112632 0.245944 0.596837
C20   C     C_R   0.458580 0.059145 0.372176 0.036598
C21   C     C_R   0.468679 0.931188 0.374926 -0.156678
C22   C     C_R   0.498538 0.871033 0.499872 -0.014956
C23   C     C_R   0.529402 0.941042 0.619362 0.011028
C24   C     C_3   0.472769 0.940126 0.761439 -0.246311
C25   C     C_3   0.469486 0.078714 0.756432 -0.256229
C26   C     C_R   0.600581 0.540970 0.076213 0.180142
Cu1   Cu    Cu3+1 0.499990 0.499980 0.640670 0.984428
Cu2   Cu    Cu3+1 0.500010 0.500020 0.359330 1.035116
H1    H     H_    0.532609 0.124853 0.833852 0.171034
H2    H     H_    0.380181 0.896100 0.761344 0.179935
H3    H     H_    0.536562 0.910251 0.845089 0.150504
H4    H     H_    0.374784 0.116022 0.752607 0.142739
H5    H     H_    0.748114 0.248920 0.196332 0.344046
H6    H     H_    0.720213 0.816712 0.283996 0.296372
H7    H     H_    0.968262 0.777525 0.508754 0.357510
H8    H     H_    0.383628 0.110164 0.035889 0.330668
H9    H     H_    0.328131 0.409817 0.125091 0.173146
H10   H     H_    0.328210 0.409297 0.865716 0.137091
H11   H     H_    0.755519 0.655325 0.879273 0.169224
H12   H     H_    0.601546 0.726691 0.866602 0.138223
H13   H     H_    0.585176 0.737627 0.116340 0.099450
H14   H     H_    0.908843 0.493159 0.608668 0.104796
H15   H     H_    0.118035 0.354067 0.371253 0.162896
H16   H     H_    0.443291 0.877937 0.281734 0.167072
N1    N     N_R   0.500780 0.500930 0.147930 -0.253315
N2    N     N_R   0.500780 0.500890 0.852020 -0.243073
O1    O     O_R   0.500000 0.319640 0.618810 -0.517423
O2    O     O_R   0.773083 0.291049 0.288068 -0.684141
O3    O     O_2   0.860623 0.612809 0.121202 -0.416707
O4    O     O_R   0.795432 0.765903 0.263357 -0.622863
O5    O     O_2   0.129499 0.687825 0.645875 -0.503182
O6    O     O_R   0.992527 0.695935 0.464855 -0.635016
O7    O     O_2   0.320212 0.189620 0.258152 -0.525466
O8    O     O_R   0.432515 0.069233 0.112992 -0.720476
O9    O     O_R   0.500010 0.319680 0.381230 -0.454876
O10   O     O_R   0.321940 0.499980 0.618760 -0.490320
O11   O     O_R   0.321950 0.500020 0.381180 -0.500300
O12   O     O_R   0.499990 0.680320 0.618770 -0.495122
O13   O     O_R   0.500000 0.680360 0.381190 -0.524991
O14   O     O_R   0.678050 0.499980 0.618820 -0.512240
O15   O     O_R   0.678060 0.500020 0.381240 -0.450574
O16   O     O_2   0.937928 0.358832 0.168025 -0.465861

loop_
_geom_bond_atom_site_label_1
_geom_bond_atom_site_label_2
_ccdc_geom_bond_type
C4    O11   A    
C17   O4    S    
C19   O7    D    
C8    C22   S    
C23   C24   S    
C6    C7    S    
C4    O10   A    
C21   H16   S    
C5    N2    A    
C14   C18   S    
C3    N2    A    
C19   C20   S    
C12   C15   A    
C9    O14   A    
Cu2   O15   S    
C16   O2    S    
C25   H4    S    
C15   C23   A    
C2    C3    A    
C1    O9    A    
C24   H3    S    
C18   O6    S    
C8    O13   A    
C10   C16   S    
C13   C14   D    
C20   C21   A    
C4    C14   S    
C9    C11   S    
C2    H9    S    
C12   C20   A    
C1    C12   S    
C16   O16   D    
C9    O15   A    
C19   O8    S    
C21   C22   A    
Cu2   O9    S    
C18   O5    D    
C6    H12   S    
Cu1   O14   S    
C7    H13   S    
C2    N1    A    
C25   H1    S    
C5    C6    S    
C24   H2    S    
Cu2   N1    S    
H6    O4    S    
C15   C25   S    
C10   C11   D    
Cu1   O1    S    
C5    C26   A    
C13   H15   S    
H8    O8    S    
C24   C25   S    
Cu1   N2    S    
C11   H14   S    
Cu2   O13   S    
C17   O3    D    
Cu1   Cu2   S    
C6    H11   S    
H5    O2    S    
Cu1   O10   S    
H7    O6    S    
C26   N1    A    
C8    O12   A    
Cu2   O11   S    
C7    C26   S    
Cu1   O12   S    
C22   C23   A    
C1    O1    A    
C3    H10   S    
C7    C17   S    
C10   C13   S    
