data_mof_unit_49591.cif
_audit_creation_date              2013-03-05T15:40:27-0500
_audit_creation_method            fapswitch 2.2
_symmetry_space_group_name_H-M    P1
_symmetry_Int_Tables_number       1
_space_group_crystal_system       triclinic
_cell_length_a                    19.310114
_cell_length_b                    11.256963
_cell_length_c                    18.769512
_cell_angle_alpha                 90.11005
_cell_angle_beta                  89.823121
_cell_angle_gamma                 90.450617
_cell_volume                      4079.83665442

loop_
_atom_site_label
_atom_site_type_symbol
_atom_site_description
_atom_site_fract_x
_atom_site_fract_y
_atom_site_fract_z
_atom_type_partial_charge
O1    O     O_R   0.215090 0.709860 0.828130 -0.397497
O2    O     O_R   0.784910 0.709860 0.171870 -0.385394
O3    O     O_R   0.715090 0.209860 0.828130 -0.393696
O4    O     O_R   0.284910 0.209860 0.171870 -0.380776
O5    O     O_R   0.236990 0.958390 0.823710 -0.441370
O6    O     O_R   0.763010 0.958390 0.176290 -0.437314
O7    O     O_R   0.736990 0.458390 0.823710 -0.434872
O8    O     O_R   0.263010 0.458390 0.176290 -0.442507
C1    C     C_R   0.274797 0.037598 0.854303 0.564895
C2    C     C_R   0.728401 0.044038 0.148465 0.572104
C3    C     C_R   0.771695 0.543212 0.852218 0.564476
C4    C     C_R   0.229148 0.545546 0.150043 0.597766
O9    O     O_R   0.332380 0.074750 0.830850 -0.500976
O10   O     O_R   0.667620 0.074750 0.169150 -0.479691
O11   O     O_R   0.832380 0.574750 0.830850 -0.480073
O12   O     O_R   0.167620 0.574750 0.169150 -0.444960
O13   O     O_R   0.445800 0.917770 0.825070 -0.461093
O14   O     O_R   0.554200 0.917770 0.174930 -0.439889
O15   O     O_R   0.945800 0.417770 0.825070 -0.451393
O16   O     O_R   0.054200 0.417770 0.174930 -0.442530
C5    C     C_R   0.464112 0.820694 0.858027 0.633261
C6    C     C_R   0.526595 0.821789 0.149511 0.616919
C7    C     C_R   0.972321 0.323555 0.851377 0.595231
C8    C     C_R   0.031994 0.320243 0.144300 0.669760
O17   O     O_R   0.456410 0.716580 0.829970 -0.452305
O18   O     O_R   0.543590 0.716580 0.170030 -0.455850
O19   O     O_R   0.956410 0.216580 0.829970 -0.458102
O20   O     O_R   0.043590 0.216580 0.170030 -0.442008
O21   O     O_R   0.321080 0.625290 0.822650 -0.484719
O22   O     O_R   0.678920 0.625290 0.177350 -0.499874
O23   O     O_R   0.821080 0.125290 0.822650 -0.497581
O24   O     O_R   0.178920 0.125290 0.177350 -0.478971
C9    C     C_R   0.257156 0.628081 0.842954 0.582023
C10   C     C_R   0.738799 0.636038 0.149808 0.582892
C11   C     C_R   0.760408 0.134597 0.848819 0.568512
C12   C     C_R   0.244307 0.121298 0.162756 0.584672
O25   O     O_R   0.214930 0.711450 0.668160 -0.535245
O26   O     O_R   0.785070 0.711450 0.331840 -0.525693
O27   O     O_R   0.714930 0.211450 0.668160 -0.531486
O28   O     O_R   0.285070 0.211450 0.331840 -0.523469
O29   O     O_R   0.236850 0.959870 0.675420 -0.499438
O30   O     O_R   0.763150 0.959870 0.324580 -0.498492
O31   O     O_R   0.736850 0.459870 0.675420 -0.499664
O32   O     O_R   0.263150 0.459870 0.324580 -0.505313
C13   C     C_R   0.274105 0.041978 0.646806 0.541115
C14   C     C_R   0.725710 0.041513 0.353327 0.536887
C15   C     C_R   0.774098 0.541997 0.646821 0.539760
C16   C     C_R   0.225708 0.541506 0.353335 0.533084
O33   O     O_R   0.332230 0.076350 0.670880 -0.496511
O34   O     O_R   0.667770 0.076350 0.329120 -0.487825
O35   O     O_R   0.832230 0.576350 0.670880 -0.489606
O36   O     O_R   0.167770 0.576350 0.329120 -0.494428
O37   O     O_R   0.445660 0.919250 0.676780 -0.494970
O38   O     O_R   0.554340 0.919250 0.323220 -0.484953
O39   O     O_R   0.945660 0.419250 0.676780 -0.489722
O40   O     O_R   0.054340 0.419250 0.323220 -0.488920
C17   C     C_R   0.471424 0.824413 0.649522 0.553009
C18   C     C_R   0.533280 0.822843 0.353799 0.541568
C19   C     C_R   0.971478 0.324421 0.649563 0.554016
C20   C     C_R   0.033338 0.322839 0.353842 0.546888
O41   O     O_R   0.456260 0.718170 0.670000 -0.493762
O42   O     O_R   0.543740 0.718170 0.330000 -0.484999
O43   O     O_R   0.956260 0.218170 0.670000 -0.485833
O44   O     O_R   0.043740 0.218170 0.330000 -0.495466
O45   O     O_R   0.320940 0.626760 0.674370 -0.458097
O46   O     O_R   0.679060 0.626760 0.325630 -0.467890
O47   O     O_R   0.820940 0.126760 0.674370 -0.455579
O48   O     O_R   0.179060 0.126760 0.325630 -0.476244
C21   C     C_R   0.260062 0.635139 0.647461 0.531981
C22   C     C_R   0.739765 0.635046 0.352563 0.535297
C23   C     C_R   0.760074 0.135169 0.647446 0.537695
C24   C     C_R   0.239768 0.135047 0.352571 0.529246
Cr1   Cr    Cr6+3 0.230530 0.836340 0.748870 1.152553
Cr2   Cr    Cr6+3 0.769470 0.836340 0.251130 1.152786
Cr3   Cr    Cr6+3 0.730530 0.336340 0.748870 1.146004
Cr4   Cr    Cr6+3 0.269470 0.336340 0.251130 1.172757
Cr5   Cr    Cr6+3 0.387420 0.989430 0.750820 1.138778
Cr6   Cr    Cr6+3 0.612580 0.989430 0.249180 1.158987
Cr7   Cr    Cr6+3 0.887420 0.489430 0.750820 1.154426
Cr8   Cr    Cr6+3 0.112580 0.489430 0.249180 1.179617
Cr9   Cr    Cr6+3 0.385640 0.677860 0.749230 1.142868
Cr10  Cr    Cr6+3 0.614360 0.677860 0.250770 1.153429
Cr11  Cr    Cr6+3 0.885640 0.177860 0.749230 1.155750
Cr12  Cr    Cr6+3 0.114360 0.177860 0.250770 1.156905
O49   O     O_3   0.334530 0.834540 0.749640 -0.318614
O50   O     O_3   0.665470 0.834540 0.250360 -0.324864
O51   O     O_3   0.834530 0.334540 0.749640 -0.321517
O52   O     O_3   0.165470 0.334540 0.250360 -0.309755
C25   C     C_R   0.481676 0.831256 0.086428 0.029842
C26   C     C_R   0.483465 0.827097 0.936113 0.032421
C27   C     C_R   0.008174 0.326113 0.068069 0.041472
C28   C     C_R   0.011574 0.337535 0.917939 0.050503
C29   C     C_R   0.474611 0.940463 0.050372 -0.119618
C30   C     C_R   0.481804 0.937936 0.974213 -0.109245
C31   C     C_R   0.005945 0.437039 0.032886 -0.108330
C32   C     C_R   0.012546 0.445737 0.957139 -0.095407
C33   C     C_R   0.483686 0.720059 0.976218 0.175738
C34   C     C_R   0.470798 0.724732 0.049586 0.192547
C35   C     C_R   0.023419 0.231106 0.952932 0.239957
C36   C     C_R   0.010016 0.222431 0.026006 0.190424
C37   C     C_R   0.463444 0.052223 0.086614 0.188991
C38   C     C_R   0.491094 0.046749 0.938421 0.227988
C39   C     C_R   0.997906 0.540313 0.072991 0.236338
C40   C     C_R   0.019165 0.562106 0.925672 0.205862
C41   C     C_R   0.017834 0.648011 0.045073 0.188018
C42   C     C_R   0.017767 0.661851 0.971130 0.138888
C43   C     C_R   0.460137 0.155389 0.044976 0.156216
C44   C     C_R   0.468862 0.151835 0.971088 0.166982
C45   C     C_2   0.235119 0.557115 0.901367 -0.070199
C46   C     C_2   0.746453 0.581625 0.080644 -0.028750
C47   C     C_2   0.751639 0.078685 0.916756 -0.003066
C48   C     C_2   0.262327 0.050752 0.102578 -0.036755
C49   C     C_2   0.252931 0.584848 0.081564 0.029056
C50   C     C_2   0.741557 0.602578 0.914185 -0.087585
C51   C     C_2   0.757875 0.104869 0.086832 -0.076959
C52   C     C_2   0.255398 0.083821 0.922400 -0.016818
C53   C     C_2   0.244363 0.515923 0.024225 0.228880
C54   C     C_2   0.703556 0.545460 0.963937 0.251559
C55   C     C_2   0.790773 0.046480 0.034516 0.253235
C56   C     C_2   0.243278 0.015167 0.979093 0.223472
C57   C     C_2   0.275004 0.552526 0.957757 -0.034419
C58   C     C_2   0.696274 0.598611 0.032997 -0.031242
C59   C     C_2   0.798601 0.102883 0.966802 -0.028694
C60   C     C_2   0.225558 0.070345 0.044770 -0.041439
H1    H     H_    0.325804 0.593765 0.956467 0.214913
H2    H     H_    0.649968 0.649345 0.045064 0.176181
H3    H     H_    0.841742 0.163962 0.958063 0.157423
H4    H     H_    0.182090 0.130677 0.045553 0.235113
H5    H     H_    0.283471 0.665640 0.078564 0.192436
H6    H     H_    0.756205 0.694029 0.923193 0.146597
H7    H     H_    0.744894 0.197717 0.079541 0.133510
H8    H     H_    0.264330 0.177244 0.929421 0.152205
H9    H     H_    0.180453 0.534863 0.905334 0.180693
H10   H     H_    0.792369 0.531780 0.066649 0.158495
H11   H     H_    0.707977 0.020125 0.927213 0.173660
H12   H     H_    0.309021 0.997448 0.101873 0.151944
C61   C     C_2   0.511341 0.839291 0.584751 -0.102335
C62   C     C_2   0.514742 0.828654 0.428394 -0.101715
C63   C     C_2   0.011501 0.339332 0.584857 -0.106365
C64   C     C_2   0.014907 0.328667 0.428485 -0.097280
C65   C     C_2   0.546442 0.751851 0.472358 -0.129878
C66   C     C_2   0.531028 0.744337 0.547833 -0.134403
C67   C     C_2   0.046654 0.251910 0.472445 -0.133015
C68   C     C_2   0.031258 0.244405 0.547943 -0.133391
H13   H     H_    0.581261 0.684655 0.451560 0.192274
H14   H     H_    0.530520 0.656251 0.571421 0.185409
H15   H     H_    0.081456 0.184712 0.451617 0.192441
H16   H     H_    0.030757 0.156322 0.571535 0.187189
H17   H     H_    0.480121 0.897407 0.447377 0.096409
H18   H     H_    0.515907 0.927952 0.562268 0.105454
H19   H     H_    0.980302 0.397414 0.447505 0.101444
H20   H     H_    0.016074 0.428004 0.562391 0.103301
C69   C     C_2   0.243881 0.561581 0.585384 0.198648
C70   C     C_2   0.755519 0.562330 0.414738 0.195622
C71   C     C_2   0.743915 0.061666 0.585343 0.199984
C72   C     C_2   0.255558 0.062221 0.414691 0.195497
C73   C     C_2   0.237792 0.571036 0.427067 -0.000035
C74   C     C_2   0.761672 0.572045 0.573340 -0.004225
C75   C     C_2   0.737807 0.071089 0.427042 -0.003082
C76   C     C_2   0.261705 0.071949 0.573298 -0.002107
C77   C     C_2   0.183043 0.563394 0.471471 -0.078579
C78   C     C_2   0.816288 0.566483 0.528773 -0.076294
C79   C     C_2   0.683063 0.063470 0.471446 -0.079709
C80   C     C_2   0.316328 0.066321 0.528732 -0.076036
C81   C     C_2   0.188523 0.591377 0.546528 -0.130894
C82   C     C_2   0.810572 0.594480 0.453910 -0.125342
C83   C     C_2   0.688563 0.091496 0.546485 -0.127251
C84   C     C_2   0.310640 0.094272 0.453846 -0.131273
H21   H     H_    0.131173 0.545346 0.451580 0.144757
H22   H     H_    0.868279 0.550091 0.548382 0.143925
H23   H     H_    0.631188 0.045409 0.451569 0.145662
H24   H     H_    0.368309 0.049916 0.548362 0.143539
H25   H     H_    0.149846 0.652591 0.566613 0.157487
H26   H     H_    0.849035 0.657286 0.434146 0.163345
H27   H     H_    0.649901 0.152747 0.566556 0.158907
H28   H     H_    0.349130 0.157014 0.434061 0.162166
H29   H     H_    0.289983 0.589212 0.445750 0.146978
H30   H     H_    0.709376 0.588461 0.554842 0.131741
H31   H     H_    0.789999 0.089281 0.445713 0.146658
H32   H     H_    0.209416 0.088378 0.554784 0.132002
S1    S     S_3+6 0.510028 0.582668 0.937872 0.115527
O53   O     O_2   0.539366 0.501125 0.992833 -0.138475
O54   O     O_2   0.448136 0.523617 0.904441 -0.196547
O55   O     O_3   0.571046 0.608623 0.875383 -0.519322
H33   H     H_    0.563588 0.546897 0.838464 0.384485
S2    S     S_3+6 0.437182 0.600641 0.097244 0.090186
O56   O     O_2   0.394942 0.525036 0.048431 -0.227979
O57   O     O_2   0.494583 0.526496 0.126612 -0.154603
O58   O     O_3   0.388105 0.649376 0.165340 -0.547409
H34   H     H_    0.386332 0.582655 0.199633 0.370109
S3    S     S_3+6 0.063867 0.115973 0.903971 0.123799
O59   O     O_2   0.110512 0.052371 0.952875 -0.238386
O60   O     O_2   0.011861 0.029493 0.874235 -0.150179
O61   O     O_3   0.110486 0.174505 0.836570 -0.525029
H35   H     H_    0.122786 0.106061 0.805956 0.362335
S4    S     S_3+6 0.983512 0.084830 0.061405 0.111279
O62   O     O_2   0.948200 0.012582 0.004875 -0.157332
O63   O     O_2   0.046945 0.022053 0.087604 -0.206195
O64   O     O_3   0.927429 0.105619 0.129102 -0.521711
H36   H     H_    0.930598 0.033131 0.158667 0.391397
N1    N     N_R   0.288853 0.465557 0.564082 0.063686
O65   O     O_R   0.263029 0.370636 0.534249 -0.365039
O66   O     O_R   0.354863 0.469357 0.577695 -0.299223
N2    N     N_R   0.710794 0.464520 0.435520 0.059282
O67   O     O_R   0.736615 0.371665 0.466653 -0.358242
O68   O     O_R   0.645451 0.463385 0.418817 -0.312817
N3    N     N_R   0.788894 0.965656 0.564030 0.062893
O69   O     O_R   0.763076 0.870730 0.534198 -0.365113
O70   O     O_R   0.854907 0.969484 0.577625 -0.297065
N4    N     N_R   0.210831 0.964404 0.435454 0.061022
O71   O     O_R   0.236653 0.871530 0.466565 -0.357562
O72   O     O_R   0.145491 0.963270 0.418740 -0.313068
S5    S     S_3+6 0.449628 0.071206 0.182143 0.051763
O73   O     O_2   0.516081 0.110462 0.216675 -0.208118
O74   O     O_2   0.400877 0.167941 0.200000 -0.236592
O75   O     O_3   0.419245 0.945848 0.220207 -0.537478
H37   H     H_    0.413895 0.965497 0.271383 0.354349
S6    S     S_3+6 0.558338 0.059165 0.874219 0.045701
O76   O     O_2   0.531285 0.103155 0.804076 -0.230545
O77   O     O_2   0.607833 0.148397 0.904022 -0.254227
O78   O     O_3   0.600512 0.930488 0.861630 -0.551823
H38   H     H_    0.632614 0.945947 0.821379 0.354164
S7    S     S_3+6 0.935070 0.547006 0.141180 0.033430
O79   O     O_2   0.965739 0.585559 0.211120 -0.221983
O80   O     O_2   0.888377 0.641350 0.115344 -0.264073
O81   O     O_3   0.890200 0.419272 0.150958 -0.559371
H39   H     H_    0.852393 0.438484 0.184745 0.356479
S8    S     S_3+6 0.045195 0.591567 0.835084 0.056542
O82   O     O_2   0.983574 0.619446 0.789575 -0.213721
O83   O     O_2   0.089682 0.700507 0.833088 -0.215260
O84   O     O_3   0.089184 0.476885 0.800016 -0.545825
H40   H     H_    0.103596 0.503948 0.751983 0.351962
N5    N     N_R   0.026851 0.746380 0.092674 0.130124
O85   O     O_R   0.977801 0.823181 0.098950 -0.176917
O86   O     O_R   0.072255 0.739735 0.143398 -0.286224
N6    N     N_R   0.013227 0.778242 0.942456 0.152392
O87   O     O_R   0.048186 0.863071 0.971833 -0.153790
O88   O     O_R   0.968994 0.802267 0.892486 -0.218695
N7    N     N_R   0.460038 0.268118 0.079050 0.164237
O89   O     O_R   0.401272 0.315848 0.095697 -0.159762
O90   O     O_R   0.515940 0.302347 0.111826 -0.219890
N8    N     N_R   0.452595 0.255242 0.929792 0.138331
O91   O     O_R   0.493490 0.294156 0.879791 -0.188058
O92   O     O_R   0.392801 0.305597 0.938660 -0.255793
S9    S     S_3+6 0.213008 0.369523 0.027427 -0.022640
O93   O     O_2   0.276911 0.295917 0.032205 -0.263642
O94   O     O_2   0.168502 0.346122 0.091283 -0.308346
O95   O     O_3   0.167690 0.332530 0.954288 -0.545942
H41   H     H_    0.201065 0.332514 0.914291 0.355159
S10   S     S_3+6 0.683865 0.394195 0.961814 0.070597
O96   O     O_2   0.635292 0.371428 0.901039 -0.148086
O97   O     O_2   0.751008 0.331543 0.951073 -0.374389
O98   O     O_3   0.647291 0.349387 0.038699 -0.465778
H42   H     H_    0.632679 0.266132 0.029878 0.380900
S11   S     S_3+6 0.802125 0.893083 0.032508 0.046587
O99   O     O_2   0.848952 0.860660 0.092328 -0.159649
O100  O     O_2   0.732169 0.836788 0.041562 -0.373752
O101  O     O_3   0.838080 0.850494 0.955144 -0.480427
H43   H     H_    0.859378 0.772829 0.965935 0.378232
S12   S     S_3+6 0.231590 0.862392 0.978280 0.009022
O102  O     O_2   0.175072 0.831238 0.927390 -0.160304
O103  O     O_2   0.298737 0.806336 0.957031 -0.371319
O104  O     O_3   0.206216 0.818959 0.059839 -0.556809
H44   H     H_    0.159667 0.853526 0.066245 0.407771

loop_
_geom_bond_atom_site_label_1
_geom_bond_atom_site_label_2
_geom_bond_distance
_ccdc_geom_bond_type
C18   O42   1.276674 A    
Cr11  O51   2.027849 S    
C61   C66   1.330092 D    
O4    C12   1.275052 A    
O47   Cr11  1.965324 S    
C29   C30   1.436019 A    
C24   C72   1.460932 S    
O39   C19   1.285976 A    
O20   Cr12  2.092559 S    
C50   H6    1.078627 S    
N1    O65   1.301922 A    
C66   H14   1.086675 S    
C79   C83   1.446789 S    
C31   C32   1.430515 A    
C64   C67   1.348111 D    
C28   C32   1.421816 A    
C68   H16   1.086675 S    
C45   C57   1.312225 D    
C55   C59   1.428878 S    
S11   O100  1.496926 D    
C33   C34   1.399602 A    
S7    O81   1.682963 S    
O1    C9    1.264459 A    
O104  H44   0.989184 S    
C51   H7    1.085752 S    
S5    O73   1.502381 D    
O55   H33   0.990416 S    
C67   H15   1.087148 S    
C33   S1    1.781733 S    
C5    O17   1.291675 A    
C49   H5    1.081499 S    
C77   C81   1.446984 S    
C76   C80   1.345983 D    
C83   H27   1.086309 S    
C50   C54   1.347065 D    
N7    O89   1.296449 A    
C48   C60   1.318405 D    
O25   C21   1.287160 A    
S12   O104  1.678393 S    
O30   C14   1.290207 A    
O98   H42   0.990404 S    
S1    O55   1.684252 S    
C72   C84   1.341400 D    
C81   H25   1.086324 S    
C67   C68   1.449512 S    
O21   C9    1.291348 A    
C63   H20   1.087179 S    
O8    Cr4   1.971699 S    
O23   Cr11  1.945336 S    
N6    O87   1.289085 A    
C54   C58   1.433579 S    
C73   C77   1.346525 D    
O32   Cr4   1.960472 S    
C3    C50   1.461854 S    
C1    O9    1.263107 A    
O44   Cr12  2.066793 S    
C40   S8    1.802189 S    
C53   C57   1.438701 S    
C39   S7    1.762811 S    
C57   H1    1.082178 S    
C78   C82   1.445384 S    
C3    O11   1.284979 A    
C39   C41   1.373427 A    
O11   Cr7   2.075836 S    
C4    O12   1.285051 A    
C37   S5    1.824354 S    
C52   H8    1.072316 S    
C12   C48   1.423382 S    
N8    O92   1.300355 A    
C43   C44   1.397038 A    
C26   C30   1.437456 A    
C7    O19   1.303481 A    
C27   C36   1.408440 A    
C79   H23   1.087559 S    
N5    O85   1.292376 A    
Cr4   O52   2.008289 S    
C26   C33   1.421992 A    
O47   C23   1.285050 A    
O2    Cr2   2.079666 S    
S9    O95   1.680237 S    
C65   H13   1.087155 S    
C60   H4    1.083915 S    
C77   H21   1.087536 S    
C58   H2    1.087784 S    
Cr6   O50   2.027800 S    
S10   O98   1.681267 S    
C36   S4    1.758425 S    
O61   H35   0.990222 S    
O42   Cr10  2.066793 S    
S11   O101  1.678323 S    
Cr5   O49   2.013866 S    
O64   H36   0.990087 S    
O18   Cr10  2.092559 S    
C22   C70   1.460909 S    
S9    O93   1.494758 D    
O17   Cr9   2.086857 S    
N1    O66   1.301146 A    
O27   Cr3   2.085692 S    
C13   C76   1.442188 S    
C48   H12   1.087033 S    
S4    O64   1.684181 S    
O95   H41   0.987896 S    
O34   Cr6   2.081411 S    
C40   C42   1.409293 A    
S8    O82   1.502393 D    
C31   C39   1.393197 A    
O6    Cr2   1.971699 S    
C69   N1    1.446861 S    
C5    C26   1.515078 S    
S5    O74   1.482273 D    
C62   H17   1.085580 S    
O31   Cr3   1.962865 S    
O24   Cr12  1.949688 S    
O9    Cr5   2.075836 S    
C82   H26   1.086354 S    
O30   Cr2   1.960472 S    
O22   C10   1.270108 A    
C45   H9    1.085365 S    
N3    O69   1.301921 A    
O48   Cr12  1.972642 S    
O16   C8    1.308200 A    
C80   C84   1.445651 S    
O75   H37   0.990554 S    
S7    O79   1.503640 D    
S4    O63   1.503413 D    
C19   C63   1.446871 S    
C2    O10   1.284850 A    
S1    O54   1.501507 D    
C29   C37   1.446391 A    
O16   Cr8   1.963386 S    
S4    O62   1.498223 D    
C38   S6    1.773668 S    
O7    Cr3   1.966566 S    
O26   Cr2   2.092796 S    
S10   O96   1.499442 D    
C56   S12   1.732810 S    
S6    O77   1.490436 D    
C43   N7    1.419959 S    
O13   C5    1.308394 A    
C52   C56   1.335338 D    
C51   C55   1.341663 D    
O43   Cr11  2.063335 S    
O48   C24   1.280778 A    
O12   Cr8   2.070763 S    
S1    O53   1.497706 D    
O15   C7    1.281806 A    
O21   Cr9   1.945336 S    
S3    O60   1.501239 D    
O5    C1    1.283788 A    
O78   H38   0.990560 S    
C15   O35   1.268534 A    
O46   Cr10  1.972642 S    
O39   Cr7   1.954547 S    
C63   C68   1.330195 D    
C16   C73   1.441945 S    
O45   Cr9   1.965324 S    
C35   C36   1.398448 A    
C78   H22   1.087605 S    
C21   C69   1.461278 S    
O3    C11   1.284297 A    
O8    C4    1.283267 A    
C23   C71   1.461233 S    
O13   Cr5   1.972846 S    
C13   O33   1.268581 A    
C17   C61   1.446749 S    
N7    O90   1.299551 A    
C73   H29   1.085891 S    
O29   C13   1.284260 A    
Cr2   O50   2.008289 S    
C38   C44   1.401144 A    
N5    O86   1.298910 A    
C64   H19   1.085571 S    
Cr1   O49   2.008612 S    
Cr7   O51   2.013866 S    
C42   N6    1.420843 S    
C20   C64   1.445937 S    
C49   C53   1.335482 D    
S12   O103  1.499062 D    
O26   C22   1.282074 A    
N2    O68   1.301031 A    
C18   C62   1.445548 S    
O81   H39   0.990466 S    
O31   C15   1.284231 A    
N4    O72   1.301030 A    
C32   C40   1.442586 A    
C54   S10   1.742212 S    
S8    O83   1.492206 D    
C10   C46   1.442036 S    
C8    O20   1.285313 A    
C75   C79   1.346431 D    
C61   H18   1.087190 S    
C46   H10   1.084340 S    
C9    C45   1.420022 S    
S2    O57   1.499721 D    
S11   O99   1.491501 D    
C8    C27   1.506022 S    
O24   C12   1.292285 A    
C59   H3    1.088215 S    
O84   H40   0.990573 S    
C11   C47   1.432083 S    
O3    Cr3   2.080366 S    
S6    O78   1.683233 S    
O14   Cr6   1.963386 S    
C4    C49   1.433198 S    
O38   C18   1.290970 A    
S5    O75   1.683526 S    
Cr3   O51   2.008612 S    
S3    O59   1.477913 D    
C84   H28   1.086374 S    
C47   C59   1.333904 D    
O25   Cr1   2.085692 S    
O37   C17   1.285958 A    
O22   Cr10  1.949688 S    
O28   C24   1.282076 A    
N8    O91   1.299180 A    
O2    C10   1.282260 A    
O14   C6    1.292161 A    
C1    C52   1.429094 S    
C41   N5    1.431393 S    
O5    Cr1   1.966566 S    
Cr12  O52   2.014329 S    
C75   H31   1.085894 S    
S12   O102  1.491847 D    
C62   C65   1.348077 D    
C55   S11   1.742675 S    
O6    C2    1.289648 A    
C70   N2    1.447404 S    
S7    O80   1.481809 D    
C17   O41   1.288173 A    
C53   S9    1.752327 S    
C44   N8    1.437077 S    
C41   C42   1.396899 A    
C14   O34   1.273861 A    
C19   O43   1.288260 A    
O40   Cr8   1.949546 S    
C25   C34   1.397838 A    
C20   O44   1.276731 A    
O1    Cr1   2.080366 S    
O33   Cr5   2.091978 S    
S2    O58   1.682478 S    
S9    O94   1.495255 D    
O101  H43   0.990628 S    
C74   H30   1.086198 S    
S3    O61   1.682808 S    
Cr8   O52   2.027800 S    
O32   C16   1.290223 A    
Cr10  O50   2.014329 S    
C65   C66   1.449148 S    
C46   C58   1.335738 D    
C35   S3    1.772351 S    
C76   H32   1.086195 S    
C47   H11   1.083830 S    
S6    O76   1.504067 D    
O46   C22   1.280669 A    
C71   N3    1.446877 S    
C71   C83   1.341089 D    
O45   C21   1.285127 A    
C14   C75   1.441774 S    
O19   Cr11  2.086857 S    
C6    C25   1.474441 S    
N6    O88   1.300749 A    
O23   C11   1.273985 A    
O10   Cr6   2.070763 S    
C25   C29   1.412195 A    
O58   H34   0.990396 S    
O35   Cr7   2.091978 S    
S2    O56   1.489886 D    
O4    Cr4   2.079666 S    
C80   H24   1.087586 S    
C74   C78   1.345856 D    
O29   Cr1   1.962865 S    
C56   C60   1.421366 S    
C16   O36   1.273912 A    
O40   C20   1.291014 A    
N2    O67   1.301922 A    
C30   C38   1.408138 A    
C27   C31   1.414699 A    
C34   S2    1.777579 S    
N4    O71   1.301920 A    
C6    O18   1.291247 A    
O28   Cr4   2.092796 S    
C69   C81   1.341082 D    
C37   C43   1.403048 A    
N3    O70   1.301150 A    
C72   N4    1.447382 S    
O27   C23   1.287177 A    
C7    C28   1.470826 S    
C70   C82   1.341418 D    
O41   Cr9   2.063335 S    
O37   Cr5   1.954547 S    
O36   Cr8   2.081411 S    
S10   O97   1.493747 D    
S8    O84   1.682840 S    
Cr9   O49   2.027849 S    
C2    C51   1.457369 S    
O15   Cr7   1.972846 S    
C28   C35   1.388281 A    
O7    C3    1.279584 A    
O38   Cr6   1.949546 S    
C15   C74   1.441974 S    
