data_mof_unit_18874.cif
_audit_creation_date              2012-12-10T19:13:34-0500
_audit_creation_method            fapswitch 2.2
_symmetry_space_group_name_H-M    P1
_symmetry_Int_Tables_number       1
_space_group_crystal_system       triclinic
_cell_length_a                    9.704347
_cell_length_b                    10.620267
_cell_length_c                    16.650998
_cell_angle_alpha                 90.121384
_cell_angle_beta                  84.954395
_cell_angle_gamma                 90.091511
_cell_volume                      1709.44233543

loop_
_atom_site_label
_atom_site_type_symbol
_atom_type_description
_atom_site_fract_x
_atom_site_fract_y
_atom_site_fract_z
_atom_type_partial_charge
C1    C     C_R   0.499738 0.742449 0.503298 0.836719
C2    C     C_R   0.533910 0.449243 0.263317 -0.117443
C3    C     C_3   0.509761 0.928257 0.417582 -0.371753
C4    C     C_R   0.480775 0.497791 0.653486 0.838454
C5    C     C_3   0.518767 0.072316 0.418004 -0.404840
C6    C     C_3   0.365220 0.928183 0.551880 -0.524537
C7    C     C_3   0.626007 0.929340 0.548314 0.489833
C8    C     C_3   0.500409 0.879000 0.505271 0.093478
C9    C     C_3   0.499565 0.121646 0.505808 0.115942
C10   C     C_3   0.361178 0.071835 0.547928 -0.412543
C11   C     C_3   0.619368 0.073138 0.553457 -0.434498
C12   C     C_R   0.360953 0.399881 0.774508 -0.215706
C13   C     C_3   0.908876 0.596140 0.558052 -0.327300
C14   C     C_3   0.072047 0.597975 0.558906 0.453195
C15   C     C_3   0.916141 0.376857 0.526182 -0.275556
C16   C     C_R   0.499464 0.257796 0.503746 0.864760
C17   C     C_3   0.928076 0.529055 0.420151 -0.376927
C18   C     C_3   0.078491 0.378271 0.525375 -0.349657
C19   C     C_3   0.092257 0.531697 0.419600 0.374231
C20   C     C_R   0.519331 0.491653 0.346824 0.920298
C21   C     C_R   0.470422 0.473008 0.739305 -0.025451
C22   C     C_R   0.580051 0.507327 0.783942 -0.222840
C23   C     C_R   0.470686 0.311091 0.156750 -0.299734
C24   C     C_R   0.582144 0.466503 0.862687 -0.147342
C25   C     C_R   0.475268 0.389217 0.897283 0.204449
C26   C     C_R   0.362953 0.358987 0.853626 -0.195530
C27   C     C_3   0.256105 0.213786 0.260991 0.076511
C28   C     C_3   0.145190 0.171802 0.325704 -0.866569
C29   C     C_3   0.100384 0.683881 0.685565 0.078969
C30   C     C_3   0.088253 0.649377 0.774454 -0.843961
C31   C     C_3   0.097335 0.754218 0.385171 0.106531
C32   C     C_3   0.050037 0.783993 0.302389 -0.863381
C33   C     C_R   0.443809 0.355887 0.236481 0.470830
C34   C     C_R   0.649993 0.489428 0.213984 -0.292058
C35   C     C_R   0.673389 0.444658 0.135836 -0.169226
C36   C     C_R   0.581111 0.359159 0.106248 0.160957
C37   C     C_2   0.471956 0.350978 0.981605 -0.236603
C38   C     C_2   0.587750 0.339160 0.019248 -0.217485
F1    F     F_    0.750271 0.895256 0.506219 -0.705866
H1    H     H_    0.665084 0.564155 0.757478 0.142139
H2    H     H_    0.720582 0.112867 0.528876 0.210727
H3    H     H_    0.602486 0.103153 0.617683 0.116494
H4    H     H_    0.360849 0.897654 0.615939 0.151995
H5    H     H_    0.343293 0.111352 0.609967 0.164993
H6    H     H_    0.859367 0.577426 0.619675 0.185232
H7    H     H_    0.871875 0.690650 0.541860 0.182179
H8    H     H_    0.112084 0.692538 0.539743 0.039395
H9    H     H_    0.869233 0.351583 0.587413 0.175277
H10   H     H_    0.109448 0.351464 0.585751 0.206475
H11   H     H_    0.899074 0.454920 0.377333 0.146746
H12   H     H_    0.759189 0.482129 0.097032 0.134355
H13   H     H_    0.721356 0.557572 0.235680 0.161641
H14   H     H_    0.881122 0.615200 0.397509 0.196217
H15   H     H_    0.127756 0.452096 0.379678 0.159409
H16   H     H_    0.884950 0.301694 0.484817 0.163477
H17   H     H_    0.122335 0.304317 0.483476 0.157641
H18   H     H_    0.688632 0.342341 0.985427 0.142183
H19   H     H_    0.278161 0.302229 0.880383 0.128180
H20   H     H_    0.405209 0.241656 0.131627 0.114558
H21   H     H_    0.276373 0.371214 0.740175 0.169582
H22   H     H_    0.370934 0.348878 0.015386 0.151746
H23   H     H_    0.417072 0.898200 0.387557 0.163907
H24   H     H_    0.666409 0.497356 0.896416 0.123539
H25   H     H_    0.323228 0.130961 0.244867 0.138401
H26   H     H_    0.202464 0.245759 0.208278 0.147523
H27   H     H_    0.069918 0.248779 0.340105 0.234405
H28   H     H_    0.088499 0.089800 0.303474 0.216317
H29   H     H_    0.192724 0.143666 0.381073 0.246781
H30   H     H_    0.009306 0.743326 0.674677 0.115238
H31   H     H_    0.196298 0.739914 0.671835 0.147046
H32   H     H_    0.182583 0.599379 0.789645 0.266043
H33   H     H_    0.076473 0.736196 0.811683 0.205751
H34   H     H_    0.602217 0.888844 0.381884 0.200020
H35   H     H_    0.996547 0.588069 0.788729 0.248905
H36   H     H_    0.173171 0.827619 0.399063 0.154935
H37   H     H_    0.011078 0.764199 0.432654 0.136525
H38   H     H_    0.984118 0.707221 0.281532 0.244202
H39   H     H_    0.989781 0.872874 0.305364 0.221816
H40   H     H_    0.141441 0.795244 0.257931 0.253494
H41   H     H_    0.621167 0.102601 0.388933 0.183662
H42   H     H_    0.438251 0.111763 0.381840 0.191748
H43   H     H_    0.271805 0.890299 0.525928 0.197775
H44   H     H_    0.272676 0.100847 0.514025 0.190203
H45   H     H_    0.623977 0.889427 0.610185 0.042632
N1    N     N_3   0.861190 0.500250 0.501720 -0.060665
N2    N     N_3   0.138550 0.503270 0.501080 -0.093438
O1    O     O_R   0.383960 0.685090 0.500020 -0.616370
O2    O     O_3   0.107145 0.572657 0.638301 -0.593805
O3    O     O_3   0.166029 0.636640 0.383153 -0.585412
O4    O     O_R   0.616040 0.685320 0.499960 -0.576803
O5    O     O_R   0.370240 0.499890 0.615830 -0.571562
O6    O     O_R   0.602330 0.500120 0.615770 -0.631123
O7    O     O_R   0.383960 0.314680 0.500040 -0.628646
O8    O     O_R   0.616040 0.314910 0.499980 -0.637281
O9    O     O_R   0.397670 0.499880 0.384230 -0.525043
O10   O     O_R   0.629760 0.500110 0.384170 -0.637175
O11   O     O_3   0.334666 0.313210 0.290625 -0.616914
Zn1   Zn    Zn3+2 0.345040 0.499850 0.500040 0.995129
Zn2   Zn    Zn3+2 0.654960 0.500150 0.499960 0.919247

loop_
_geom_bond_atom_site_label_1
_geom_bond_atom_site_label_2
_ccdc_geom_bond_type
C1    O1    A    
C15   C18   S    
C1    O4    A    
C6    H43   S    
C1    C8    S    
C35   C36   A    
C19   N2    S    
C30   H32   S    
C23   H20   S    
O9    Zn1   S    
C7    C8    S    
C7    C11   S    
C16   O7    A    
C18   N2    S    
N1    Zn2   S    
C27   H26   S    
C28   H29   S    
C9    C16   S    
C13   H7    S    
C30   H35   S    
O10   Zn2   S    
C10   H44   S    
C5    H42   S    
C11   H3    S    
C34   C35   A    
C29   O2    S    
C25   C37   S    
C32   H38   S    
C31   O3    S    
C9    C10   S    
C33   O11   S    
C18   H17   S    
C15   N1    S    
C4    O5    A    
C2    C34   A    
C7    H45   S    
C20   O10   A    
C13   C14   S    
C15   H9    S    
N2    Zn1   S    
C29   H30   S    
C10   H5    S    
C28   H28   S    
C24   C25   A    
C14   N2    S    
C3    C8    S    
C6    C8    S    
C23   C33   A    
C25   C26   A    
C2    C20   S    
C12   C21   A    
C12   C26   A    
C15   H16   S    
C37   C38   D    
C28   H27   S    
C5    C9    S    
C29   C30   S    
C19   O3    S    
C38   H18   S    
C9    C11   S    
C31   H36   S    
C31   C32   S    
C22   H1    S    
C5    H41   S    
C26   H19   S    
C2    C33   A    
C20   O9    A    
C24   H24   S    
C6    H4    S    
C35   H12   S    
C17   N1    S    
C17   H14   S    
O4    Zn2   S    
C19   H15   S    
C29   H31   S    
C3    H23   S    
C27   O11   S    
C34   H13   S    
C30   H33   S    
C3    C5    S    
C17   H11   S    
C6    C10   S    
C37   H22   S    
C14   H8    S    
C16   O8    A    
O1    Zn1   S    
C36   C38   S    
C14   O2    S    
C32   H40   S    
C13   H6    S    
C4    C21   S    
C31   H37   S    
O8    Zn2   S    
C17   C19   S    
C11   H2    S    
C22   C24   A    
O5    Zn1   S    
C3    H34   S    
C27   H25   S    
C32   H39   S    
C12   H21   S    
O6    Zn2   S    
C23   C36   A    
C13   N1    S    
C27   C28   S    
C7    F1    S    
C21   C22   A    
O7    Zn1   S    
C18   H10   S    
C4    O6    A    
