data_mof_unit_43321.cif
_audit_creation_date              2012-12-11T16:21:27-0500
_audit_creation_method            fapswitch 2.2
_symmetry_space_group_name_H-M    P1
_symmetry_Int_Tables_number       1
_space_group_crystal_system       triclinic
_cell_length_a                    7.218554
_cell_length_b                    36.94252
_cell_length_c                    41.173756
_cell_angle_alpha                 90.000085
_cell_angle_beta                  90.001051
_cell_angle_gamma                 90.000732
_cell_volume                      10979.8703797

loop_
_atom_site_label
_atom_site_type_symbol
_atom_type_description
_atom_site_fract_x
_atom_site_fract_y
_atom_site_fract_z
_atom_type_partial_charge
O1    O     O_R   0.564240 0.782760 0.216890 -0.537298
O2    O     O_R   0.435760 0.217240 0.783110 -0.536513
O3    O     O_R   0.435760 0.217240 0.716890 -0.537301
O4    O     O_R   0.564240 0.782760 0.283110 -0.536515
O5    O     O_R   0.064240 0.717240 0.283110 -0.537299
O6    O     O_R   0.935760 0.282760 0.716890 -0.536515
O7    O     O_R   0.935760 0.282760 0.783110 -0.537297
O8    O     O_R   0.064240 0.717240 0.216890 -0.536512
O9    O     O_R   0.234510 0.787070 0.282870 -0.540442
O10   O     O_R   0.765490 0.212930 0.717130 -0.540116
O11   O     O_R   0.765490 0.212930 0.782870 -0.540442
O12   O     O_R   0.234510 0.787070 0.217130 -0.540118
O13   O     O_R   0.734510 0.712930 0.217130 -0.540443
O14   O     O_R   0.265490 0.287070 0.782870 -0.540119
O15   O     O_R   0.265490 0.287070 0.717130 -0.540442
O16   O     O_R   0.734510 0.712930 0.282870 -0.540118
C1    C     C_R   0.403074 0.795823 0.293608 0.716963
C2    C     C_R   0.596812 0.204114 0.706436 0.717491
C3    C     C_R   0.596928 0.204177 0.793608 0.716963
C4    C     C_R   0.403186 0.795886 0.206437 0.717494
C5    C     C_R   0.903070 0.704177 0.206392 0.716963
C6    C     C_R   0.096815 0.295886 0.793564 0.717494
C7    C     C_R   0.096928 0.295823 0.706392 0.716962
C8    C     C_R   0.903186 0.704114 0.293563 0.717492
O17   O     O_3   0.397750 0.727090 0.250000 -0.376511
O18   O     O_3   0.602250 0.272910 0.750000 -0.376511
O19   O     O_3   0.897750 0.772910 0.250000 -0.376511
O20   O     O_3   0.102250 0.227090 0.750000 -0.376511
V1    V     V_3+5 0.122890 0.754250 0.250000 1.406803
V2    V     V_3+5 0.877110 0.245750 0.750000 1.406805
V3    V     V_3+5 0.622890 0.745750 0.250000 1.406803
V4    V     V_3+5 0.377110 0.254250 0.750000 1.406804
C9    C     C_R   0.938468 0.612055 0.428983 0.577310
C10   C     C_R   0.982205 0.387911 0.572499 0.617837
C11   C     C_R   0.061523 0.387944 0.928984 0.577312
C12   C     C_R   0.017790 0.612090 0.072498 0.617849
C13   C     C_R   0.438474 0.887946 0.071019 0.577308
C14   C     C_R   0.482205 0.112088 0.927500 0.617852
C15   C     C_R   0.561334 0.112062 0.571014 0.577330
C16   C     C_R   0.517904 0.887916 0.427500 0.617888
O21   O     O_2   0.883003 0.646363 0.434216 -0.540755
O22   O     O_2   0.892364 0.355978 0.571479 -0.530541
O23   O     O_2   0.116982 0.353636 0.934218 -0.540753
O24   O     O_2   0.107626 0.644024 0.071478 -0.530540
O25   O     O_2   0.383001 0.853639 0.065785 -0.540752
O26   O     O_2   0.392370 0.144021 0.928519 -0.530544
O27   O     O_2   0.616687 0.146376 0.565776 -0.540754
O28   O     O_2   0.607830 0.855992 0.428515 -0.530528
N1    N     N_R   0.950096 0.599963 0.397588 -0.534816
N2    N     N_R   0.060154 0.398593 0.601287 -0.535530
N3    N     N_R   0.049907 0.400036 0.897589 -0.534816
N4    N     N_R   0.939841 0.601408 0.101286 -0.535530
N5    N     N_R   0.450105 0.900039 0.102414 -0.534816
N6    N     N_R   0.560150 0.101405 0.898712 -0.535530
N7    N     N_R   0.549855 0.099967 0.602410 -0.534810
N8    N     N_R   0.439865 0.898589 0.398716 -0.535523
C17   C     C_R   0.974488 0.564054 0.390888 0.663608
C18   C     C_R   0.129080 0.432762 0.605149 0.630331
C19   C     C_R   0.025523 0.435945 0.890888 0.663607
C20   C     C_R   0.870916 0.567240 0.105147 0.630328
C21   C     C_R   0.474504 0.935948 0.109114 0.663609
C22   C     C_R   0.629070 0.067237 0.894851 0.630329
C23   C     C_R   0.525605 0.064056 0.609113 0.663573
C24   C     C_R   0.370833 0.932749 0.394859 0.630314
C25   C     C_R   0.096784 0.634373 0.352947 0.403689
C26   C     C_R   0.908838 0.365758 0.646530 0.425032
C27   C     C_R   0.903220 0.365626 0.852946 0.403685
C28   C     C_R   0.091158 0.634243 0.146529 0.425028
C29   C     C_R   0.596789 0.865629 0.147056 0.403687
C30   C     C_R   0.408835 0.134241 0.853468 0.425030
C31   C     C_R   0.403193 0.134373 0.647055 0.403666
C32   C     C_R   0.591177 0.865755 0.353473 0.425043
C33   C     C_R   0.083767 0.659925 0.327591 -0.284753
C34   C     C_R   0.919312 0.340395 0.672122 -0.291249
C35   C     C_R   0.916236 0.340075 0.827591 -0.284748
C36   C     C_R   0.080684 0.659605 0.172122 -0.291245
C37   C     C_R   0.583770 0.840077 0.172411 -0.284751
C38   C     C_R   0.419311 0.159604 0.827876 -0.291246
C39   C     C_R   0.416221 0.159924 0.672411 -0.284741
C40   C     C_R   0.580697 0.840393 0.327879 -0.291262
C41   C     C_R   0.755915 0.667141 0.338131 -0.205215
C42   C     C_R   0.246091 0.331617 0.661409 -0.197713
C43   C     C_R   0.244088 0.332858 0.838133 -0.205215
C44   C     C_R   0.753905 0.668384 0.161408 -0.197715
C45   C     C_R   0.255917 0.832860 0.161869 -0.205214
C46   C     C_R   0.746091 0.168383 0.838591 -0.197714
C47   C     C_R   0.744063 0.167147 0.661863 -0.205207
C48   C     C_R   0.253922 0.831611 0.338595 -0.197722
C49   C     C_R   0.768401 0.642034 0.363513 -0.161183
C50   C     C_R   0.235927 0.356393 0.635790 -0.187351
C51   C     C_R   0.231602 0.357965 0.863515 -0.161180
C52   C     C_R   0.764068 0.643608 0.135788 -0.187345
C53   C     C_R   0.268405 0.857968 0.136488 -0.161179
C54   C     C_R   0.735926 0.143606 0.864210 -0.187349
C55   C     C_R   0.731564 0.142041 0.636481 -0.161186
C56   C     C_R   0.264092 0.856385 0.364216 -0.187334
C57   C     C_R   0.938061 0.625570 0.371112 0.356252
C58   C     C_R   0.068156 0.373462 0.628122 0.359102
C59   C     C_R   0.061943 0.374429 0.871113 0.356253
C60   C     C_R   0.931839 0.626540 0.128121 0.359099
C61   C     C_R   0.438066 0.874432 0.128890 0.356251
C62   C     C_R   0.568154 0.126537 0.871877 0.359103
C63   C     C_R   0.561904 0.125575 0.628886 0.356298
C64   C     C_R   0.431864 0.873456 0.371883 0.359053
C65   C     C_R   0.981994 0.550689 0.448719 -0.077025
C66   C     C_R   0.037046 0.447659 0.549936 -0.087522
C67   C     C_R   0.018000 0.449311 0.948719 -0.077023
C68   C     C_R   0.962952 0.552342 0.049936 -0.087552
C69   C     C_R   0.482009 0.949312 0.051283 -0.077024
C70   C     C_R   0.537042 0.052341 0.950063 -0.087536
C71   C     C_R   0.517912 0.050691 0.551283 -0.077005
C72   C     C_R   0.462941 0.947657 0.450065 -0.087721
C73   C     C_R   0.972975 0.588221 0.455508 -0.075185
C74   C     C_R   0.985427 0.411113 0.544904 -0.096169
C75   C     C_R   0.027011 0.411778 0.955508 -0.075187
C76   C     C_R   0.014573 0.588888 0.044903 -0.096196
C77   C     C_R   0.472985 0.911780 0.044494 -0.075185
C78   C     C_R   0.485426 0.088887 0.955095 -0.096190
C79   C     C_R   0.526795 0.088224 0.544493 -0.075200
C80   C     C_R   0.514676 0.911118 0.455094 -0.096307
C81   C     C_R   0.990853 0.599905 0.488414 0.066936
C82   C     C_R   0.931219 0.400053 0.513089 0.064645
C83   C     C_R   0.009122 0.400095 0.988414 0.066932
C84   C     C_R   0.068786 0.599947 0.013089 0.064681
C85   C     C_R   0.490860 0.900096 0.011588 0.066934
C86   C     C_R   0.431223 0.099947 0.986910 0.064674
C87   C     C_R   0.508783 0.099906 0.511588 0.066903
C88   C     C_R   0.568998 0.900067 0.486905 0.064787
C89   C     C_R   0.985899 0.538679 0.416218 -0.066783
C90   C     C_R   0.114106 0.458219 0.579931 -0.049599
C91   C     C_R   0.014108 0.461320 0.916218 -0.066782
C92   C     C_R   0.885890 0.541782 0.079930 -0.049598
C93   C     C_R   0.485918 0.961322 0.083783 -0.066784
C94   C     C_R   0.614097 0.041780 0.920069 -0.049598
C95   C     C_R   0.514188 0.038680 0.583783 -0.066775
C96   C     C_R   0.385783 0.958209 0.420075 -0.049602
C97   C     C_R   0.913783 0.676610 0.319970 -0.075687
C98   C     C_R   0.087616 0.323056 0.679764 -0.075477
C99   C     C_R   0.086221 0.323389 0.819970 -0.075687
C100  C     C_R   0.912380 0.676944 0.179764 -0.075478
C101  C     C_R   0.413784 0.823390 0.180031 -0.075688
C102  C     C_R   0.587616 0.176943 0.820235 -0.075477
C103  C     C_R   0.586207 0.176612 0.680029 -0.075690
C104  C     C_R   0.412391 0.823053 0.320238 -0.075477
H1    H     H_    0.623000 0.679509 0.333071 0.141175
H2    H     H_    0.377748 0.318743 0.666470 0.143552
H3    H     H_    0.377003 0.320491 0.833073 0.141175
H4    H     H_    0.622247 0.681257 0.166468 0.143551
H5    H     H_    0.123000 0.820492 0.166928 0.141176
H6    H     H_    0.877749 0.181257 0.833531 0.143552
H7    H     H_    0.876977 0.179517 0.666921 0.141175
H8    H     H_    0.122265 0.818737 0.333534 0.143554
H9    H     H_    0.645995 0.635429 0.377486 0.166140
H10   H     H_    0.358674 0.362177 0.621603 0.163969
H11   H     H_    0.354009 0.364570 0.877489 0.166139
H12   H     H_    0.641319 0.637824 0.121601 0.163971
H13   H     H_    0.145998 0.864573 0.122514 0.166141
H14   H     H_    0.858674 0.137822 0.878397 0.163970
H15   H     H_    0.853962 0.135439 0.622504 0.166106
H16   H     H_    0.141347 0.862168 0.378403 0.163989
C105  C     C_R   0.058596 0.510511 0.530672 0.029183
C106  C     C_R   0.985148 0.487427 0.467249 0.021819
C107  C     C_R   0.941388 0.489490 0.030672 0.029182
C108  C     C_R   0.014849 0.512573 0.967249 0.021817
C109  C     C_R   0.558603 0.989489 0.969328 0.029186
C110  C     C_R   0.485167 0.012574 0.032751 0.021815
C111  C     C_R   0.441188 0.010505 0.469334 0.029169
C112  C     C_R   0.514902 0.987429 0.532751 0.021779
C113  C     C_R   0.962568 0.462471 0.493426 0.001113
C114  C     C_R   0.008272 0.536725 0.506733 0.015122
C115  C     C_R   0.037427 0.537529 0.993426 0.001126
C116  C     C_R   0.991710 0.463276 0.006732 0.015119
C117  C     C_R   0.462581 0.037530 0.006574 0.001106
C118  C     C_R   0.508282 0.963276 0.993268 0.015121
C119  C     C_R   0.537464 0.962477 0.506570 0.001280
C120  C     C_R   0.491477 0.036724 0.493271 0.015130
C121  C     C_R   0.018791 0.473521 0.524687 -0.045261
C122  C     C_R   0.992108 0.525009 0.474253 -0.025245
C123  C     C_R   0.981200 0.526479 0.024686 -0.045241
C124  C     C_R   0.007881 0.474991 0.974253 -0.025248
C125  C     C_R   0.518796 0.026479 0.975313 -0.045231
C126  C     C_R   0.492124 0.974992 0.025748 -0.025244
C127  C     C_R   0.481137 0.973521 0.475315 -0.045261
C128  C     C_R   0.507778 0.025010 0.525749 -0.025293
C129  C     C_R   0.159417 0.519478 0.559085 0.306765
C130  C     C_R   0.014144 0.476138 0.434763 0.308287
C131  C     C_R   0.840568 0.480523 0.059084 0.306767
C132  C     C_R   0.985870 0.523861 0.934762 0.308297
C133  C     C_R   0.659417 0.980522 0.940916 0.306764
C134  C     C_R   0.514167 0.023863 0.065238 0.308296
C135  C     C_R   0.340292 0.019460 0.440927 0.306773
C136  C     C_R   0.486150 0.976134 0.565242 0.308372
C137  C     C_R   0.181348 0.493546 0.583747 -0.217536
C138  C     C_R   0.009057 0.501756 0.409585 -0.214736
C139  C     C_R   0.818642 0.506455 0.083746 -0.217535
C140  C     C_R   0.990962 0.498244 0.909585 -0.214730
C141  C     C_R   0.681341 0.006454 0.916254 -0.217535
C142  C     C_R   0.509080 0.998246 0.090415 -0.214737
C143  C     C_R   0.318408 0.993526 0.416265 -0.217541
C144  C     C_R   0.491229 0.001752 0.590419 -0.214709
O29   O     O_2   0.207949 0.442314 0.633603 -0.514795
O30   O     O_2   0.984023 0.552853 0.359732 -0.510260
O31   O     O_2   0.792048 0.557688 0.133601 -0.514796
O32   O     O_2   0.015999 0.447146 0.859732 -0.510261
O33   O     O_2   0.707933 0.057685 0.866397 -0.514794
O34   O     O_2   0.484043 0.947149 0.140270 -0.510260
O35   O     O_2   0.291877 0.942292 0.366410 -0.514798
O36   O     O_2   0.516216 0.052853 0.640270 -0.510271
C145  C     C_R   0.975964 0.573898 0.513731 0.117617
C146  C     C_R   0.889728 0.426992 0.489601 0.176427
C147  C     C_R   0.024012 0.426102 0.013731 0.117621
C148  C     C_R   0.110276 0.573007 0.989601 0.176422
C149  C     C_R   0.475971 0.926102 0.986270 0.117617
C150  C     C_R   0.389747 0.073008 0.010399 0.176417
C151  C     C_R   0.523669 0.073901 0.486270 0.117662
C152  C     C_R   0.610475 0.927014 0.510387 0.176551
H17   H     H_    0.796011 0.334412 0.686121 0.133960
H18   H     H_    0.206911 0.666667 0.313831 0.134327
H19   H     H_    0.203986 0.665589 0.186121 0.133960
H20   H     H_    0.793093 0.333333 0.813830 0.134328
H21   H     H_    0.296009 0.165587 0.813877 0.133960
H22   H     H_    0.706914 0.833333 0.186171 0.134329
H23   H     H_    0.703993 0.834413 0.313879 0.133962
H24   H     H_    0.293086 0.166667 0.686175 0.134332
H25   H     H_    0.252626 0.501096 0.605888 0.166072
H26   H     H_    0.024938 0.492654 0.384729 0.166613
H27   H     H_    0.747364 0.498906 0.105887 0.166071
H28   H     H_    0.975093 0.507346 0.884728 0.166612
H29   H     H_    0.752614 0.998904 0.894112 0.166072
H30   H     H_    0.524965 0.007348 0.115271 0.166612
H31   H     H_    0.247064 0.001068 0.394128 0.166077
H32   H     H_    0.475515 0.992647 0.615277 0.166612
C153  C     C_3   0.056582 0.637993 0.497503 -0.331930
C154  C     C_3   0.255373 0.637020 0.510813 -0.339634
C155  C     C_3   0.319135 0.674597 0.521497 -0.763580
H33   H     H_    0.314866 0.693752 0.500715 0.243143
H34   H     H_    0.228826 0.684890 0.541292 0.229244
H35   H     H_    0.463603 0.673209 0.530628 0.225961
H36   H     H_    0.265128 0.618425 0.531828 0.231340
H37   H     H_    0.350659 0.626862 0.491642 0.213403
H38   H     H_    0.062495 0.656882 0.476927 0.237650
H39   H     H_    0.961813 0.650399 0.515543 0.174643
C156  C     C_3   0.942876 0.360702 0.501591 -0.334716
C157  C     C_3   0.098867 0.355895 0.476552 -0.350242
C158  C     C_3   0.105425 0.317198 0.463610 -0.758582
H40   H     H_    0.129902 0.297777 0.483758 0.237576
H41   H     H_    0.973112 0.310349 0.451280 0.231927
H42   H     H_    0.220188 0.314610 0.445802 0.221723
H43   H     H_    0.080709 0.374551 0.455701 0.235564
H44   H     H_    0.233565 0.362174 0.488308 0.200938
H45   H     H_    0.976442 0.341430 0.521074 0.233215
H46   H     H_    0.808754 0.351827 0.491157 0.174709
C159  C     C_3   0.943390 0.362007 0.997503 -0.331927
C160  C     C_3   0.744602 0.362981 0.010813 -0.339632
C161  C     C_3   0.680840 0.325404 0.021497 -0.763575
H47   H     H_    0.685108 0.306249 0.000715 0.243144
H48   H     H_    0.771150 0.315111 0.041292 0.229243
H49   H     H_    0.536373 0.326792 0.030627 0.225959
H50   H     H_    0.734851 0.381576 0.031828 0.231339
H51   H     H_    0.649312 0.373139 0.991642 0.213402
H52   H     H_    0.937468 0.343119 0.976926 0.237649
H53   H     H_    0.038162 0.349600 0.015542 0.174646
C162  C     C_3   0.057127 0.639298 0.001589 -0.334708
C163  C     C_3   0.901134 0.644103 0.976550 -0.350257
C164  C     C_3   0.894574 0.682799 0.963606 -0.758577
H54   H     H_    0.870099 0.702220 0.983753 0.237576
H55   H     H_    0.026885 0.689647 0.951276 0.231926
H56   H     H_    0.779807 0.685385 0.945798 0.221725
H57   H     H_    0.919292 0.625445 0.955699 0.235569
H58   H     H_    0.766437 0.637824 0.988305 0.200938
H59   H     H_    0.023563 0.658570 0.021071 0.233214
H60   H     H_    0.191245 0.648172 0.991155 0.174705
C165  C     C_3   0.556583 0.862008 0.002500 -0.331925
C166  C     C_3   0.755371 0.862981 0.989189 -0.339635
C167  C     C_3   0.819122 0.825403 0.978505 -0.763576
H61   H     H_    0.814848 0.806248 0.999287 0.243143
H62   H     H_    0.728809 0.815111 0.958709 0.229244
H63   H     H_    0.963590 0.826791 0.969375 0.225960
H64   H     H_    0.765125 0.881575 0.968175 0.231339
H65   H     H_    0.850664 0.873138 0.008360 0.213402
H66   H     H_    0.562502 0.843120 0.023076 0.237649
H67   H     H_    0.461807 0.849601 0.984460 0.174646
C168  C     C_3   0.442891 0.139298 0.998408 -0.334739
C169  C     C_3   0.598936 0.144105 0.023436 -0.350255
C170  C     C_3   0.605609 0.182807 0.036364 -0.758590
H68   H     H_    0.630170 0.202215 0.016210 0.237574
H69   H     H_    0.473312 0.189678 0.048687 0.231939
H70   H     H_    0.720367 0.185390 0.054174 0.221721
H71   H     H_    0.580772 0.125458 0.044294 0.235548
H72   H     H_    0.733595 0.137810 0.011675 0.200961
H73   H     H_    0.476396 0.158572 0.978924 0.233247
H74   H     H_    0.308798 0.148171 0.008852 0.174684
C171  C     C_3   0.442994 0.137991 0.502504 -0.331904
C172  C     C_3   0.244209 0.137009 0.489191 -0.339644
C173  C     C_3   0.180416 0.174586 0.478510 -0.763575
H75   H     H_    0.184660 0.193738 0.499295 0.243147
H76   H     H_    0.270724 0.184885 0.458718 0.229243
H77   H     H_    0.035954 0.173194 0.469378 0.225958
H78   H     H_    0.234474 0.118417 0.468174 0.231324
H79   H     H_    0.148926 0.126845 0.508360 0.213400
H80   H     H_    0.437035 0.156875 0.523083 0.237652
H81   H     H_    0.537757 0.150406 0.484467 0.174652
C174  C     C_3   0.557593 0.860714 0.498402 -0.334663
C175  C     C_3   0.401951 0.855881 0.523501 -0.350168
C176  C     C_3   0.395529 0.817163 0.536393 -0.758602
H82   H     H_    0.370401 0.797784 0.516236 0.237539
H83   H     H_    0.528136 0.810262 0.548604 0.231954
H84   H     H_    0.281229 0.814569 0.554291 0.221768
H85   H     H_    0.420436 0.874502 0.544370 0.235505
H86   H     H_    0.267091 0.862187 0.511815 0.200912
H87   H     H_    0.523809 0.841446 0.478927 0.233215
H88   H     H_    0.691865 0.851853 0.508784 0.174701
O37   O     O_3   0.745664 0.383377 0.639085 -0.624446
H89   H     H_    0.648470 0.375539 0.654578 0.288820
O38   O     O_3   0.262708 0.617914 0.360655 -0.634426
H90   H     H_    0.358699 0.626117 0.345090 0.283413
O39   O     O_3   0.254333 0.616625 0.139085 -0.624448
H91   H     H_    0.351527 0.624463 0.154578 0.288821
O40   O     O_3   0.737296 0.382085 0.860654 -0.634427
H92   H     H_    0.641304 0.373882 0.845089 0.283414
O41   O     O_3   0.245660 0.116622 0.860913 -0.624446
H93   H     H_    0.148465 0.124459 0.845419 0.288822
O42   O     O_3   0.762715 0.882088 0.139348 -0.634425
H94   H     H_    0.858706 0.873884 0.154913 0.283414
O43   O     O_3   0.754351 0.883375 0.360916 -0.624422
H95   H     H_    0.851542 0.875539 0.345422 0.288835
O44   O     O_3   0.237270 0.117911 0.639350 -0.634439
H96   H     H_    0.141282 0.126114 0.654915 0.283425
O45   O     O_3   0.244449 0.552889 0.561488 -0.669491
H97   H     H_    0.309949 0.554648 0.582594 0.286490
O46   O     O_3   0.058432 0.440455 0.428309 -0.668489
H98   H     H_    0.076352 0.437221 0.404611 0.286700
O47   O     O_3   0.755532 0.447112 0.061487 -0.669490
H99   H     H_    0.690033 0.445354 0.082592 0.286489
O48   O     O_3   0.941596 0.559545 0.928307 -0.668495
H100  H     H_    0.923689 0.562779 0.904608 0.286699
O49   O     O_3   0.744449 0.947112 0.938514 -0.669490
H101  H     H_    0.809945 0.945353 0.917408 0.286491
O50   O     O_3   0.558458 0.059546 0.071691 -0.668487
H102  H     H_    0.576380 0.062781 0.095389 0.286699
O51   O     O_3   0.255156 0.052861 0.438529 -0.669475
H103  H     H_    0.189604 0.054611 0.417428 0.286493
O52   O     O_3   0.442113 0.940441 0.571704 -0.668513
H104  H     H_    0.424358 0.937202 0.595405 0.286688
C177  C     C_3   0.898177 0.585572 0.546659 -0.327181
C178  C     C_3   0.697259 0.598864 0.543843 -0.351416
C179  C     C_3   0.626399 0.612159 0.576714 -0.749742
H105  H     H_    0.632898 0.590035 0.594950 0.232714
H106  H     H_    0.711099 0.635372 0.585288 0.227660
H107  H     H_    0.480489 0.621183 0.574587 0.229946
H108  H     H_    0.685938 0.621251 0.526004 0.203380
H109  H     H_    0.607769 0.576285 0.535301 0.225432
H110  H     H_    0.893465 0.562804 0.564100 0.196900
H111  H     H_    0.986330 0.606885 0.557683 0.195156
C180  C     C_3   0.739362 0.419380 0.464331 -0.312413
C181  C     C_3   0.550081 0.412137 0.480104 -0.377889
C182  C     C_3   0.474795 0.445300 0.497841 -0.662628
H112  H     H_    0.339306 0.438236 0.508616 0.219790
H113  H     H_    0.455550 0.468219 0.480704 0.228152
H114  H     H_    0.569161 0.453626 0.517783 0.229958
H115  H     H_    0.450257 0.404528 0.460716 0.205035
H116  H     H_    0.557991 0.389190 0.497433 0.199702
H117  H     H_    0.717978 0.442432 0.447555 0.193063
H118  H     H_    0.778290 0.395876 0.449027 0.166576
C183  C     C_3   0.101801 0.414428 0.046659 -0.327182
C184  C     C_3   0.302719 0.401136 0.043843 -0.351414
C185  C     C_3   0.373585 0.387842 0.076715 -0.749745
H119  H     H_    0.367090 0.409966 0.094951 0.232714
H120  H     H_    0.288887 0.364629 0.085289 0.227660
H121  H     H_    0.519495 0.378817 0.074588 0.229946
H122  H     H_    0.314037 0.378749 0.026005 0.203381
H123  H     H_    0.392207 0.423715 0.035301 0.225431
H124  H     H_    0.106514 0.437196 0.064100 0.196900
H125  H     H_    0.013650 0.393115 0.057683 0.195154
C186  C     C_3   0.260656 0.580617 0.964334 -0.312394
C187  C     C_3   0.449929 0.587866 0.980109 -0.377914
C188  C     C_3   0.525163 0.554717 0.997873 -0.662652
H126  H     H_    0.660647 0.561787 0.008647 0.219783
H127  H     H_    0.544403 0.531782 0.980753 0.228152
H128  H     H_    0.430770 0.546412 0.017816 0.229974
H129  H     H_    0.549785 0.595453 0.960720 0.205049
H130  H     H_    0.442027 0.610828 0.997420 0.199691
H131  H     H_    0.282056 0.557561 0.947563 0.193044
H132  H     H_    0.221727 0.604117 0.949025 0.166587
C189  C     C_3   0.398177 0.914427 0.953343 -0.327182
C190  C     C_3   0.197258 0.901135 0.956159 -0.351414
C191  C     C_3   0.126389 0.887841 0.923288 -0.749739
H133  H     H_    0.132886 0.909964 0.905052 0.232714
H134  H     H_    0.211084 0.864628 0.914714 0.227659
H135  H     H_    0.980478 0.878816 0.925415 0.229946
H136  H     H_    0.185937 0.878749 0.973998 0.203380
H137  H     H_    0.107773 0.923714 0.964701 0.225432
H138  H     H_    0.393466 0.937195 0.935901 0.196900
H139  H     H_    0.486325 0.893114 0.942319 0.195154
C192  C     C_3   0.239396 0.080621 0.035670 -0.312368
C193  C     C_3   0.050115 0.087876 0.019898 -0.377896
C194  C     C_3   0.974811 0.054725 0.002144 -0.662643
H140  H     H_    0.839298 0.061796 0.991381 0.219780
H141  H     H_    0.955609 0.031792 0.019267 0.228153
H142  H     H_    0.069145 0.046416 0.982194 0.229967
H143  H     H_    0.950291 0.095475 0.039288 0.205040
H144  H     H_    0.058025 0.110833 0.002581 0.199683
H145  H     H_    0.217992 0.057565 0.052441 0.193040
H146  H     H_    0.278358 0.104120 0.050978 0.166579
C195  C     C_3   0.601411 0.085580 0.453341 -0.327189
C196  C     C_3   0.802330 0.098873 0.456153 -0.351432
C197  C     C_3   0.873191 0.112162 0.423280 -0.749753
H147  H     H_    0.866691 0.090035 0.405047 0.232713
H148  H     H_    0.788494 0.135373 0.414703 0.227671
H149  H     H_    0.019103 0.121186 0.425407 0.229937
H150  H     H_    0.813650 0.121262 0.473989 0.203383
H151  H     H_    0.891820 0.076295 0.464698 0.225424
H152  H     H_    0.606104 0.062815 0.435896 0.196911
H153  H     H_    0.513247 0.106894 0.442321 0.195119
C198  C     C_3   0.761082 0.919444 0.535621 -0.312407
C199  C     C_3   0.950218 0.912198 0.519806 -0.377932
C200  C     C_3   0.025038 0.945305 0.501930 -0.662748
H154  H     H_    0.160372 0.938216 0.491117 0.219766
H155  H     H_    0.044421 0.968297 0.518982 0.228111
H156  H     H_    0.930377 0.953528 0.481999 0.230039
H157  H     H_    0.050316 0.904702 0.539184 0.205120
H158  H     H_    0.942311 0.889178 0.502558 0.199657
H159  H     H_    0.782565 0.942523 0.552364 0.192972
H160  H     H_    0.722368 0.895954 0.550957 0.166596

loop_
_geom_bond_atom_site_label_1
_geom_bond_atom_site_label_2
_ccdc_geom_bond_type
C69   C126  A    
C112  C119  A    
C140  H28   S    
C163  H57   S    
C48   H8    S    
C190  H136  S    
C10   O22   S    
C191  H135  S    
C20   C92   A    
C161  H48   S    
O49   H101  S    
C183  H124  S    
O15   V4    S    
C85   C165  S    
O47   H99   S    
O16   V3    S    
C175  H86   S    
C19   C91   A    
C182  H112  S    
C114  C122  A    
C174  H87   S    
C169  C170  S    
C194  H141  S    
C187  H130  S    
C133  C141  A    
C198  H160  S    
C66   C90   A    
C166  C167  S    
C197  H149  S    
C143  H31   S    
C188  H128  S    
C85   C149  A    
C189  H139  S    
C17   O30   S    
C11   C75   A    
C66   C121  A    
C21   O34   S    
C169  H72   S    
C196  H151  S    
C158  H40   S    
C70   C78   A    
O13   V3    S    
C75   C83   A    
C21   C93   A    
O42   H94   S    
C39   H24   S    
C193  H144  S    
C72   C80   A    
C32   O43   S    
C15   O27   S    
C6    C99   S    
C177  H110  S    
O10   V2    S    
C180  C181  S    
C86   C168  S    
O12   C4    A    
C30   C62   A    
O13   C5    A    
C188  H127  S    
C107  C116  A    
O6    V2    S    
C182  H114  S    
C23   O36   S    
C56   C64   A    
C11   N3    A    
C12   O24   S    
C13   O25   S    
C191  H133  S    
C43   C51   A    
C119  C127  A    
C151  C195  S    
C26   O37   S    
C159  H52   S    
C16   O28   S    
O1    C4    A    
O2    C3    A    
C108  C132  A    
C186  C187  S    
C82   C156  S    
C29   C61   A    
C168  H74   S    
O7    C6    A    
C111  C135  A    
C112  C136  A    
C139  H27   S    
C118  C149  A    
C199  C200  S    
C137  H25   S    
C170  H69   S    
C183  C184  S    
C119  C152  A    
C40   H23   S    
C68   C76   A    
C106  C113  A    
C33   C97   A    
C160  H50   S    
O10   C2    A    
C190  C191  S    
C185  H121  S    
C136  C144  A    
C37   C101  A    
N1    C57   S    
O48   H100  S    
C13   C77   A    
C54   C62   A    
C42   C98   A    
O41   H93   S    
C158  H42   S    
C49   C57   A    
C144  H32   S    
C195  C196  S    
C195  H152  S    
C184  H122  S    
O17   V3    S    
C24   C96   A    
O18   V4    S    
O12   V1    S    
O19   V1    S    
C29   C37   A    
C110  C126  A    
C90   C137  A    
C87   C151  A    
C118  C126  A    
C31   C39   A    
C178  H108  S    
C173  H76   S    
C133  O49   S    
C157  C158  S    
C51   H11   S    
C192  H145  S    
C181  H115  S    
C1    C104  S    
C55   H15   S    
O8    V1    S    
C65   C73   A    
C2    C103  S    
C46   H6    S    
C159  C160  S    
C36   H19   S    
C26   C34   A    
O1    V3    S    
N1    C17   A    
O2    V4    S    
N4    C20   A    
N5    C21   A    
C19   O32   S    
C39   C103  A    
C70   C125  A    
C163  C164  S    
C40   C104  A    
N7    C23   A    
C82   C146  A    
C199  H158  S    
C11   O23   S    
C153  C154  S    
C12   N4    A    
C87   C171  S    
C13   N5    A    
C162  H59   S    
C115  C123  A    
O43   H95   S    
C72   C96   A    
C113  C121  A    
C200  H155  S    
C55   C63   A    
C165  C166  S    
C24   O35   S    
C27   O40   S    
N2    C58   S    
C156  H45   S    
C157  H43   S    
C166  H64   S    
C167  H63   S    
C45   C101  A    
C88   C174  S    
C109  C118  A    
N4    C60   S    
C68   C123  A    
C28   C60   A    
C171  C172  S    
C136  O52   S    
C145  C177  S    
C120  C151  A    
C154  H37   S    
C164  H55   S    
C88   C152  A    
C30   O41   S    
C107  C123  A    
C155  H35   S    
C70   C94   A    
C27   C35   A    
C171  H80   S    
C12   C76   A    
C153  H38   S    
C31   C63   A    
C162  H60   S    
C106  C122  A    
C163  H58   S    
C4    C101  S    
C130  C138  A    
C190  H137  S    
C191  H134  S    
C25   O38   S    
C141  H29   S    
C8    C97   S    
C28   C36   A    
C9    C73   A    
O14   C6    A    
C172  H78   S    
C32   C40   A    
C35   C99   A    
C194  H140  S    
C179  H107  S    
C115  C148  A    
C15   C79   A    
C113  C146  A    
C198  H159  S    
C33   H18   S    
C197  H148  S    
C14   O26   S    
C153  H39   S    
C29   O42   S    
C73   C81   A    
C182  H113  S    
C168  C169  S    
C44   C52   A    
C149  C189  S    
C77   C85   A    
C79   C87   A    
C94   C141  A    
C48   C56   A    
C31   O44   S    
C7    C98   S    
C167  H61   S    
C116  C147  A    
C43   C99   A    
C89   C138  A    
C69   C77   A    
C162  C163  S    
C41   C97   A    
C180  H118  S    
C34   C98   A    
O11   C3    A    
C38   C102  A    
C172  C173  S    
C9    N1    A    
C156  C157  S    
C184  C185  S    
C105  C129  A    
C86   C150  A    
C15   N7    A    
C91   C140  A    
O11   V2    S    
N5    C61   S    
C16   N8    A    
C92   C139  A    
C109  C133  A    
C155  H33   S    
C50   H10   S    
C146  C180  S    
C108  C124  A    
C27   C59   A    
C41   C49   A    
C186  H132  S    
C116  C124  A    
C161  H49   S    
C117  C125  A    
O38   H90   S    
C54   H14   S    
O7    V2    S    
C44   C100  A    
C84   C148  A    
C42   H2    S    
C183  H125  S    
C72   C127  A    
C44   H4    S    
C175  H85   S    
N2    C18   A    
C193  C194  S    
N8    C64   S    
C194  H142  S    
C173  H75   S    
C120  C128  A    
C187  H129  S    
C32   C64   A    
C84   C162  S    
C168  H73   S    
C69   C93   A    
O46   H98   S    
C160  C161  S    
O50   H102  S    
C14   N6    A    
C160  H51   S    
C185  H120  S    
C26   C58   A    
O4    C1    A    
C16   C80   A    
C169  H71   S    
C3    C102  S    
C81   C153  S    
C196  H150  S    
C148  C186  S    
C154  C155  S    
C165  H67   S    
C53   C61   A    
C184  H123  S    
C179  H105  S    
C134  C142  A    
C189  C190  S    
C110  C117  A    
C76   C84   A    
N6    C62   S    
O14   V4    S    
C193  H143  S    
C192  C193  S    
C80   C88   A    
C178  H109  S    
N6    C22   A    
C181  H116  S    
C42   C50   A    
C177  H111  S    
C165  H66   S    
C138  H26   S    
C117  C150  A    
C109  C125  A    
O44   H96   S    
C71   C95   A    
O37   H89   S    
C35   H20   S    
C18   C90   A    
O20   V2    S    
O3    V4    S    
C83   C159  S    
O4    V3    S    
O40   H92   S    
C14   C78   A    
C176  H82   S    
C196  C197  S    
C5    C100  S    
C174  H88   S    
C159  H53   S    
O52   H104  S    
C93   C142  A    
C67   C124  A    
C30   C38   A    
O45   H97   S    
C185  H119  S    
C65   C122  A    
C200  H154  S    
O51   H103  S    
O5    C8    A    
C170  H68   S    
C157  H44   S    
C28   O39   S    
C66   C74   A    
C166  H65   S    
C17   C89   A    
C167  H62   S    
C135  C143  A    
C170  H70   S    
N7    C63   S    
C25   C33   A    
O3    C2    A    
C107  C131  A    
C181  C182  S    
C96   C143  A    
C46   C54   A    
C111  C127  A    
C174  C175  S    
C18   O29   S    
C112  C128  A    
C83   C147  A    
C197  H147  S    
C132  O48   S    
C81   C145  A    
C195  H153  S    
C22   O33   S    
O9    V1    S    
C131  O47   S    
O15   C7    A    
O16   C8    A    
C47   H7    S    
C155  H34   S    
C45   C53   A    
C150  C192  S    
C173  H77   S    
O5    V1    S    
C36   C100  A    
N3    C59   S    
C192  H146  S    
C10   N2    A    
C68   C92   A    
C46   C102  A    
C9    O21   S    
C67   C91   A    
C106  C130  A    
C65   C89   A    
C176  H83   S    
C47   C55   A    
C110  C134  A    
C23   C95   A    
C147  C183  S    
C172  H79   S    
C179  H106  S    
C37   H22   S    
C20   O31   S    
C49   H9    S    
C198  C199  S    
C134  O50   S    
C176  H84   S    
N8    C24   A    
O8    C5    A    
C189  H138  S    
C52   H12   S    
C199  H157  S    
C135  O51   S    
C53   H13   S    
C67   C75   A    
C188  H126  S    
C43   H3    S    
C105  C114  A    
C71   C79   A    
O9    C1    A    
C175  C176  S    
C56   H16   S    
C130  O46   S    
C41   H1    S    
N3    C19   A    
C161  H47   S    
C200  H156  S    
C187  C188  S    
C52   C60   A    
C164  H54   S    
C156  H46   S    
C131  C139  A    
C129  C137  A    
C142  H30   S    
C10   C74   A    
C180  H117  S    
C51   C59   A    
C22   C94   A    
C158  H41   S    
C171  H81   S    
C25   C57   A    
C178  C179  S    
C114  C145  A    
C129  O45   S    
O6    C7    A    
C34   H17   S    
C71   C128  A    
C48   C104  A    
C154  H36   S    
O39   H91   S    
C164  H56   S    
C45   H5    S    
C38   H21   S    
C74   C82   A    
C132  C140  A    
C152  C198  S    
C95   C144  A    
C108  C115  A    
C78   C86   A    
C47   C103  A    
C177  C178  S    
C105  C121  A    
C50   C58   A    
C111  C120  A    
C186  H131  S    
