data_mof_unit_58396.cif
_audit_creation_date              2012-12-10T17:35:40-0500
_audit_creation_method            fapswitch 2.2
_symmetry_space_group_name_H-M    P1
_symmetry_Int_Tables_number       1
_space_group_crystal_system       triclinic
_cell_length_a                    10.714578
_cell_length_b                    12.323592
_cell_length_c                    13.183005
_cell_angle_alpha                 116.658295
_cell_angle_beta                  77.538154
_cell_angle_gamma                 101.379815
_cell_volume                      1508.91281631

loop_
_atom_site_label
_atom_site_type_symbol
_atom_type_description
_atom_site_fract_x
_atom_site_fract_y
_atom_site_fract_z
_atom_type_partial_charge
C1    C     C_R   0.511555 0.854914 0.286555 0.804377
C2    C     C_3   0.122516 0.000131 0.498664 0.124682
C3    C     C_3   0.044877 0.019837 0.618160 -0.385326
C4    C     C_3   0.069828 0.876206 0.407172 -0.384797
C5    C     C_R   0.322159 0.277199 0.019685 -0.186576
C6    C     C_R   0.453141 0.228084 0.834442 -0.053873
C7    C     C_R   0.600816 0.814985 0.085924 -0.151729
C8    C     C_R   0.628577 0.735656 0.971391 -0.126907
C9    C     C_R   0.581942 0.612506 0.933416 -0.118434
C10   C     C_R   0.501142 0.566610 0.009327 0.099427
C11   C     C_R   0.461238 0.650724 0.123142 0.077217
C12   C     C_R   0.740016 0.999429 0.499259 0.791079
C13   C     C_R   0.457579 0.440260 0.975792 0.096573
C14   C     C_R   0.366015 0.401644 0.051982 0.162674
C15   C     C_R   0.316893 0.487749 0.158407 -0.226609
C16   C     C_R   0.362338 0.610565 0.192948 -0.186803
C17   C     C_R   0.502944 0.350687 0.868866 -0.190369
C18   C     C_R   0.364851 0.190727 0.910919 -0.196644
C19   C     C_R   0.520455 0.773231 0.163451 -0.098114
C20   C     C_R   0.715498 0.354954 0.340971 -0.300669
C21   C     C_R   0.327722 0.762735 0.647471 -0.006214
C22   C     C_R   0.299299 0.675251 0.690639 -0.268967
C23   C     C_R   0.480726 0.145108 0.713408 0.800951
C24   C     C_R   0.369125 0.574920 0.643702 0.357615
C25   C     C_R   0.463792 0.556543 0.544666 -0.094867
C26   C     C_R   0.494779 0.654200 0.508924 0.235670
C27   C     C_R   0.533485 0.450561 0.482336 -0.015230
C28   C     C_R   0.641276 0.453038 0.398707 0.167285
C29   C     C_R   0.673150 0.551966 0.370786 -0.280560
C30   C     C_R   0.599440 0.648262 0.422193 -0.157680
C31   C     C_R   0.499029 0.339265 0.494187 0.063025
C32   C     C_R   0.681558 0.252630 0.363644 0.060563
C33   C     C_R   0.260220 0.000222 0.499743 0.760817
C34   C     C_3   0.960594 0.103412 0.468943 -0.355107
C35   C     C_3   0.103348 0.103904 0.469292 -0.367961
C36   C     C_3   0.901056 0.020313 0.617953 -0.426438
C37   C     C_3   0.924686 0.873735 0.408242 -0.022153
C38   C     C_3   0.878477 0.998825 0.497669 0.116478
Cu1   Cu    Cu3+1 0.529690 0.098270 0.475420 0.949594
Cu2   Cu    Cu3+1 0.470310 0.901730 0.524580 0.924064
H1    H     H_    0.929885 0.193524 0.533445 0.174934
H2    H     H_    0.084146 0.799473 0.424636 0.158735
H3    H     H_    0.843311 0.947731 0.642292 0.177654
H4    H     H_    0.055906 0.945872 0.640943 0.169978
H5    H     H_    0.324875 0.095891 0.885029 0.149724
H6    H     H_    0.242948 0.460076 0.215423 0.141623
H7    H     H_    0.252024 0.247260 0.077373 0.134655
H8    H     H_    0.576196 0.373627 0.809286 0.147379
H9    H     H_    0.645531 0.908665 0.114459 0.159591
H10   H     H_    0.608636 0.556574 0.843529 0.151169
H11   H     H_    0.690172 0.769050 0.912195 0.141658
H12   H     H_    0.946625 0.092808 0.383626 0.193018
H13   H     H_    0.316269 0.673564 0.273988 0.166785
H14   H     H_    0.739437 0.177318 0.320810 0.131598
H15   H     H_    0.754435 0.553713 0.305981 0.172063
H16   H     H_    0.799159 0.357417 0.278541 0.141292
H17   H     H_    0.410306 0.321875 0.543354 0.187318
H18   H     H_    0.275408 0.841872 0.687571 0.143178
H19   H     H_    0.226525 0.689147 0.765150 0.186660
H20   H     H_    0.629785 0.717654 0.392243 0.222095
H21   H     H_    0.157762 0.091730 0.383482 0.179445
H22   H     H_    0.140661 0.194312 0.533382 0.189313
H23   H     H_    0.869216 0.109413 0.683685 0.168793
H24   H     H_    0.082231 0.108073 0.684929 0.173995
H25   H     H_    0.871143 0.800486 0.433567 0.141928
H26   H     H_    0.124753 0.862002 0.321204 0.183424
N1    N     N_R   0.574690 0.246280 0.438200 -0.194694
N2    N     N_R   0.426100 0.754320 0.561190 -0.200760
O1    O     O_R   0.537340 0.972510 0.318130 -0.575136
O2    O     O_R   0.487200 0.806530 0.359650 -0.598859
O3    O     O_R   0.707380 0.082980 0.479220 -0.584677
O4    O     O_R   0.657240 0.917000 0.520740 -0.601454
O5    O     O_R   0.512800 0.193470 0.640350 -0.562535
O6    O     O_R   0.462660 0.027490 0.681870 -0.587895
O7    O     O_R   0.342760 0.083000 0.479260 -0.590871
O8    O     O_R   0.292620 0.917020 0.520780 -0.599292
Cl1   Cl    Cl    0.347472 0.494161 0.729123 -0.696064
I1    I     I_    0.884514 0.820505 0.237370 -0.485829

loop_
_geom_bond_atom_site_label_1
_geom_bond_atom_site_label_2
_ccdc_geom_bond_type
C2    C35   S    
C17   H8    S    
C20   H16   S    
C7    C8    A    
C3    H24   S    
C31   N1    A    
C5    H7    S    
C11   C19   A    
C29   C30   A    
Cu2   O2    S    
C28   C29   A    
C15   C16   A    
C34   C35   S    
C16   H13   S    
C33   O7    A    
C8    C9    A    
C30   H20   S    
Cu1   O7    S    
C36   H23   S    
C9    C10   A    
C12   O4    A    
C13   C14   A    
C34   H1    S    
C23   O5    A    
C32   H14   S    
C6    C18   A    
C3    H4    S    
C1    C19   S    
C27   C31   A    
C24   C25   A    
C7    H9    S    
Cu1   Cu2   S    
C5    C18   A    
C29   H15   S    
C25   C26   A    
C1    O1    A    
Cu2   O8    S    
C37   H25   S    
C2    C4    S    
C37   C38   S    
C11   C16   A    
C33   O8    A    
Cu1   O1    S    
C35   H21   S    
C8    H11   S    
C5    C14   A    
C32   N1    A    
C2    C33   S    
C12   O3    A    
C26   C30   A    
C7    C19   A    
C21   N2    A    
C22   C24   A    
C23   O6    A    
C18   H5    S    
C22   H19   S    
C20   C32   A    
C6    C17   A    
Cu2   O4    S    
C34   C38   S    
Cu1   N1    S    
C9    H10   S    
C10   C13   A    
C25   C27   A    
C20   C28   A    
C37   I1    S    
C34   H12   S    
C1    O2    A    
C13   C17   A    
C26   N2    A    
C31   H17   S    
C36   C38   S    
C2    C3    S    
C21   H18   S    
C4    H26   S    
C4    H2    S    
C3    C36   S    
C6    C23   S    
Cu2   O6    S    
C35   H22   S    
Cu1   O5    S    
C12   C38   S    
C10   C11   A    
C24   Cl1   S    
C4    C37   S    
Cu2   N2    S    
C27   C28   A    
Cu1   O3    S    
C14   C15   A    
C36   H3    S    
C15   H6    S    
C21   C22   A    
