data_mof_unit_39496.cif
_audit_creation_date              2012-12-10T17:06:14-0500
_audit_creation_method            fapswitch 2.2
_symmetry_space_group_name_H-M    P1
_symmetry_Int_Tables_number       1
_space_group_crystal_system       triclinic
_cell_length_a                    10.630446
_cell_length_b                    11.064647
_cell_length_c                    9.883649
_cell_angle_alpha                 111.946796
_cell_angle_beta                  98.437666
_cell_angle_gamma                 91.041509
_cell_volume                      1063.23397957

loop_
_atom_site_label
_atom_site_type_symbol
_atom_type_description
_atom_site_fract_x
_atom_site_fract_y
_atom_site_fract_z
_atom_type_partial_charge
C1    C     C_R   0.490667 0.253706 0.439486 0.800817
C2    C     C_R   0.509330 0.746294 0.560513 0.800819
C3    C     C_R   0.259574 0.497953 0.500363 0.886139
C4    C     C_R   0.740426 0.502046 0.499637 0.886147
C5    C     C_3   0.052985 0.470075 0.612994 0.466195
C6    C     C_3   0.947017 0.529923 0.387009 0.466187
C7    C     C_3   0.951555 0.378954 0.484694 -0.470121
C8    C     C_3   0.048447 0.621043 0.515310 -0.470121
C9    C     C_3   0.876648 0.500970 0.498149 -0.231623
C10   C     C_3   0.123352 0.499028 0.501853 -0.231613
C11   C     C_3   0.978309 0.589989 0.626298 0.461932
C12   C     C_3   0.021693 0.410009 0.373706 0.461936
C13   C     C_2   0.485431 0.112880 0.403311 -0.036351
C14   C     C_2   0.514559 0.887120 0.596689 -0.036348
C15   C     C_2   0.501774 0.069540 0.513855 -0.115843
C16   C     C_2   0.498182 0.930459 0.486146 -0.115861
C17   C     C_2   0.509440 0.510621 0.081167 0.081380
C18   C     C_2   0.490525 0.489417 0.918843 0.081336
Cu1   Cu    Cu3+1 0.522260 0.521810 0.644920 0.962969
Cu2   Cu    Cu3+1 0.477740 0.478190 0.355080 0.962966
H1    H     H_    0.908565 0.282330 0.471878 0.163413
H2    H     H_    0.091437 0.717667 0.528124 0.163406
H3    H     H_    0.481638 0.861405 0.371970 0.188765
H4    H     H_    0.518295 0.138594 0.628031 0.188779
H5    H     H_    0.418126 0.415032 0.843340 0.172774
H6    H     H_    0.581787 0.585058 0.156684 0.172736
N1    N     N_2   0.444270 0.445410 0.137360 -0.150049
N2    N     N_2   0.555730 0.554590 0.862640 -0.150054
O1    O     O_R   0.511880 0.332340 0.577400 -0.603579
O2    O     O_R   0.488120 0.667660 0.422600 -0.603601
O3    O     O_R   0.474280 0.295500 0.332650 -0.580882
O4    O     O_R   0.525720 0.704500 0.667350 -0.580855
O5    O     O_R   0.335640 0.518390 0.622350 -0.562999
O6    O     O_R   0.664360 0.481610 0.377650 -0.562980
O7    O     O_R   0.298050 0.481550 0.377590 -0.563647
O8    O     O_R   0.701950 0.518450 0.622410 -0.563668
O9    O     O_3   0.118655 0.442517 0.731690 -0.571337
C19   C     C_3   0.029835 0.400316 0.800594 -0.296941
H7    H     H_    0.982923 0.302428 0.727158 0.164992
H8    H     H_    0.957071 0.471718 0.835280 0.183130
H9    H     H_    0.081539 0.390889 0.901601 0.181834
O10   O     O_3   0.881354 0.557481 0.268309 -0.571306
C20   C     C_3   0.970185 0.599679 0.199414 -0.296846
H10   H     H_    0.042962 0.528277 0.164749 0.183164
H11   H     H_    0.017089 0.697579 0.272853 0.164969
H12   H     H_    0.918488 0.609092 0.098391 0.181800
O11   O     O_3   0.944266 0.680488 0.757312 -0.580661
C21   C     C_3   0.053780 0.758498 0.848006 -0.321196
H13   H     H_    0.091731 0.822098 0.796459 0.164083
H14   H     H_    0.129091 0.698473 0.874276 0.199373
H15   H     H_    0.026823 0.823287 0.954179 0.177950
O12   O     O_3   0.055732 0.319514 0.242689 -0.580654
C22   C     C_3   0.946220 0.241487 0.152005 -0.321248
H16   H     H_    0.870860 0.301491 0.125807 0.199366
H17   H     H_    0.908338 0.177830 0.203519 0.164092
H18   H     H_    0.973157 0.176765 0.045805 0.177963
N3    N     N_3   0.536765 0.976494 0.748621 -0.602762
H19   H     H_    0.623749 0.958484 0.799543 0.229024
H20   H     H_    0.464826 0.955910 0.800323 0.221817
N4    N     N_3   0.463258 0.023506 0.251378 -0.602759
H21   H     H_    0.376286 0.041515 0.200428 0.229020
H22   H     H_    0.535218 0.044092 0.199703 0.221810
N5    N     N_3   0.646217 0.652574 0.959052 -0.519545
H23   H     H_    0.620413 0.739827 0.948959 0.241663
H24   H     H_    0.732754 0.632339 0.920234 0.259317
N6    N     N_3   0.353928 0.347290 0.040915 -0.519598
H25   H     H_    0.379904 0.260085 0.051007 0.241646
H26   H     H_    0.267360 0.367346 0.079697 0.259337

loop_
_geom_bond_atom_site_label_1
_geom_bond_atom_site_label_2
_ccdc_geom_bond_type
C17   C18   S    
C15   C16   S    
N6    H26   S    
C20   H10   S    
C4    O8    A    
C17   H6    S    
O9    C19   S    
Cu2   N1    S    
C5    O9    S    
C20   H11   S    
C11   O11   S    
O11   C21   S    
C13   C15   D    
C3    O7    A    
C2    O2    A    
Cu2   O6    S    
C6    C9    S    
N5    H24   S    
N6    H25   S    
C5    C10   S    
N1    N6    S    
Cu2   O2    S    
C22   H16   S    
N4    H22   S    
C19   H8    S    
Cu1   N2    S    
C9    C11   S    
N3    H19   S    
C7    C12   S    
C18   H5    S    
C10   C12   S    
C21   H15   S    
C8    C11   S    
C3    C10   S    
Cu1   O4    S    
C21   H14   S    
C21   H13   S    
C12   O12   S    
C5    C11   S    
C16   H3    S    
C4    O6    A    
Cu1   O8    S    
C22   H17   S    
C6    C12   S    
C19   H7    S    
C2    C14   S    
C20   H12   S    
C14   C16   D    
N3    H20   S    
C1    C13   S    
O10   C20   S    
C1    O1    A    
N5    H23   S    
Cu1   O1    S    
N2    N5    S    
C7    C9    S    
C1    O3    A    
C18   N2    D    
O12   C22   S    
C19   H9    S    
C2    O4    A    
C6    O10   S    
C22   H18   S    
C5    C7    S    
C14   N3    S    
C3    O5    A    
C15   H4    S    
C6    C8    S    
Cu1   O5    S    
C4    C9    S    
C7    H1    S    
Cu2   O7    S    
C8    H2    S    
C8    C10   S    
Cu1   Cu2   S    
C13   N4    S    
N4    H21   S    
Cu2   O3    S    
C17   N1    D    
