data_mof_unit_52649.cif
_audit_creation_date              2012-10-26T18:30:20-0400
_audit_creation_method            fapswitch 2.2
_symmetry_space_group_name_H-M    P1
_symmetry_Int_Tables_number       1
_space_group_crystal_system       triclinic
_cell_length_a                    10.654743
_cell_length_b                    13.010313
_cell_length_c                    11.933838
_cell_angle_alpha                 99.106113
_cell_angle_beta                  94.554725
_cell_angle_gamma                 95.815217
_cell_volume                      1617.34280993

loop_
_atom_site_label
_atom_site_type_symbol
_atom_type_description
_atom_site_fract_x
_atom_site_fract_y
_atom_site_fract_z
_atom_type_partial_charge
C1    C     C_R   0.504897 0.300110 0.479037 0.545332
C2    C     C_R   0.621398 0.583361 0.857618 0.112848
C3    C     C_R   0.560098 0.540817 0.155666 0.115475
C4    C     C_R   0.439902 0.459182 0.844333 0.115475
C5    C     C_R   0.548605 0.533423 0.033545 -0.026675
C6    C     C_R   0.451395 0.466577 0.966455 -0.026675
C7    C     C_R   0.259309 0.497826 0.498919 0.551388
C8    C     C_R   0.740690 0.502174 0.501081 0.551389
C9    C     C_3   0.028285 0.402990 0.508301 -0.124321
C10   C     C_3   0.971715 0.597010 0.491698 -0.124321
C11   C     C_3   0.938658 0.431229 0.412712 -0.117476
C12   C     C_R   0.495103 0.699890 0.520963 0.545333
C13   C     C_3   0.061342 0.568771 0.587288 -0.117476
C14   C     C_3   0.878278 0.502344 0.502734 0.048428
C15   C     C_3   0.121722 0.497656 0.497266 0.048429
C16   C     C_3   0.965615 0.474155 0.598632 -0.115811
C17   C     C_3   0.034385 0.525845 0.401368 -0.115810
C18   C     C_R   0.486379 0.813036 0.532918 0.002239
C19   C     C_R   0.513621 0.186964 0.467082 0.002238
C20   C     C_R   0.494502 0.015839 0.348090 -0.151706
C21   C     C_R   0.505498 0.984161 0.651910 -0.151706
C22   C     C_R   0.509386 0.124513 0.359306 -0.144430
C23   C     C_R   0.523697 0.139760 0.564199 -0.128210
C24   C     C_R   0.490614 0.875487 0.640694 -0.144428
C25   C     C_R   0.346712 0.374744 0.779148 0.094024
C26   C     C_R   0.218656 0.390871 0.761740 -0.087624
C27   C     C_R   0.125014 0.304943 0.731789 -0.137667
C28   C     C_R   0.158073 0.203043 0.716279 -0.112975
C29   C     C_R   0.284198 0.186280 0.736986 -0.123117
C30   C     C_R   0.377156 0.271593 0.771758 -0.091198
C31   C     C_R   0.653288 0.625256 0.220852 0.094024
C32   C     C_R   0.622844 0.728407 0.228242 -0.091198
C33   C     C_R   0.715802 0.813720 0.263014 -0.123117
C34   C     C_R   0.476303 0.860240 0.435801 -0.128210
C35   C     C_R   0.841927 0.796957 0.283720 -0.112974
C36   C     C_R   0.874986 0.695057 0.268211 -0.137667
C37   C     C_R   0.781344 0.609129 0.238260 -0.087624
C38   C     C_R   0.726636 0.641279 0.812552 0.091963
C39   C     C_R   0.848405 0.609993 0.827421 -0.099810
C40   C     C_R   0.955406 0.677167 0.815200 -0.124287
C41   C     C_R   0.941885 0.774494 0.783270 -0.113821
C42   C     C_R   0.821532 0.807305 0.770935 -0.123855
C43   C     C_R   0.715445 0.742432 0.790318 -0.067775
C44   C     C_R   0.273362 0.358723 0.187448 0.091961
C45   C     C_R   0.508542 0.031251 0.554543 0.046254
C46   C     C_R   0.151593 0.390010 0.172577 -0.099813
C47   C     C_R   0.044592 0.322837 0.184800 -0.124286
C48   C     C_R   0.058112 0.225512 0.216736 -0.113821
C49   C     C_R   0.178464 0.192701 0.229074 -0.123855
C50   C     C_R   0.284552 0.257572 0.209687 -0.067773
C51   C     C_R   0.491458 0.968749 0.445456 0.046254
C52   C     C_R   0.367123 0.408349 0.023181 -0.187210
C53   C     C_R   0.632877 0.591650 0.976819 -0.187211
C54   C     C_R   0.378602 0.416639 0.142382 0.112848
Cu1   Cu    Cu3+1 0.509400 0.507730 0.615930 0.949155
Cu2   Cu    Cu3+1 0.490600 0.492270 0.384070 0.949155
H1    H     H_    0.880505 0.374489 0.344618 0.109603
H2    H     H_    0.519539 0.159068 0.283923 0.114259
H3    H     H_    0.486699 0.968909 0.263763 0.091864
H4    H     H_    0.513301 0.031091 0.736236 0.091863
H5    H     H_    0.287988 0.356697 0.975842 0.117623
H6    H     H_    0.712012 0.643302 0.024158 0.117624
H7    H     H_    0.190871 0.469225 0.778453 0.104032
H8    H     H_    0.026092 0.316361 0.723359 0.099532
H9    H     H_    0.085316 0.137024 0.692817 0.107546
H10   H     H_    0.308719 0.107171 0.731622 0.109575
H11   H     H_    0.471588 0.257907 0.801571 0.086311
H12   H     H_    0.119495 0.625511 0.655382 0.109603
H13   H     H_    0.528412 0.742093 0.198428 0.086311
H14   H     H_    0.691281 0.892829 0.268377 0.109575
H15   H     H_    0.914685 0.862976 0.307182 0.107546
H16   H     H_    0.973908 0.683640 0.276641 0.099532
H17   H     H_    0.809130 0.530775 0.221547 0.104032
H18   H     H_    0.860722 0.536053 0.855354 0.087148
H19   H     H_    0.048822 0.654140 0.832359 0.094782
H20   H     H_    0.024812 0.825897 0.772312 0.103783
H21   H     H_    0.811123 0.884920 0.752259 0.108216
H22   H     H_    0.626206 0.773056 0.796395 0.103042
H23   H     H_    0.053750 0.322785 0.510941 0.122209
H24   H     H_    0.139278 0.463948 0.144640 0.087148
H25   H     H_    0.951177 0.345865 0.167639 0.094783
H26   H     H_    0.975185 0.174111 0.227699 0.103782
H27   H     H_    0.188872 0.115087 0.247755 0.108215
H28   H     H_    0.373790 0.226947 0.203613 0.103045
H29   H     H_    0.946250 0.677215 0.489059 0.122209
H30   H     H_    0.932499 0.453763 0.678679 0.108689
H31   H     H_    0.067501 0.546237 0.321321 0.108691
H32   H     H_    0.456513 0.812821 0.352885 0.115861
H33   H     H_    0.543488 0.187179 0.647114 0.115861
H34   H     H_    0.480460 0.840932 0.716077 0.114259
N1    N     N_R   0.523540 0.519360 0.790140 -0.241896
N2    N     N_R   0.476460 0.480640 0.209860 -0.241896
O1    O     O_R   0.506670 0.354460 0.582000 -0.502124
O2    O     O_R   0.493330 0.645540 0.418000 -0.502124
O3    O     O_R   0.490800 0.341410 0.386200 -0.511569
O4    O     O_R   0.509200 0.658590 0.613800 -0.511568
O5    O     O_R   0.324790 0.506500 0.597880 -0.508273
O6    O     O_R   0.675210 0.493500 0.402120 -0.508273
O7    O     O_R   0.308910 0.493440 0.402080 -0.499354
O8    O     O_R   0.691090 0.506560 0.597920 -0.499355

loop_
_geom_bond_atom_site_label_1
_geom_bond_atom_site_label_2
_ccdc_geom_bond_type
Cu2   O3    S    
Cu1   Cu2   S    
C10   H29   S    
C23   C45   A    
C41   C42   A    
C35   C36   A    
Cu2   O6    S    
Cu1   O1    S    
C4    C25   S    
C50   H28   S    
C43   H22   S    
Cu2   O2    S    
C34   C51   A    
C7    O7    A    
C18   C24   A    
C5    C53   A    
C28   C29   A    
C9    C16   S    
C20   C51   A    
C52   H5    S    
C38   C39   A    
C11   C14   S    
C45   C51   A    
C10   C17   S    
C9    H23   S    
C39   H18   S    
C8    O6    A    
Cu1   N1    S    
C11   C17   S    
C31   C32   A    
C44   C46   A    
Cu1   O8    S    
C23   H33   S    
C30   H11   S    
C4    N1    A    
C7    C15   S    
C35   H15   S    
C16   H30   S    
C12   O2    A    
C52   C54   A    
C21   C45   A    
C1    C19   S    
C19   C22   A    
C21   H4    S    
C4    C6    A    
C10   C14   S    
C39   C40   A    
C25   C26   A    
C10   C13   S    
C31   C37   A    
C3    N2    A    
C19   C23   A    
C26   H7    S    
C54   N2    A    
C29   C30   A    
C9    C11   S    
C53   H6    S    
C2    C38   S    
C47   C48   A    
C1    O3    A    
Cu1   O5    S    
C26   C27   A    
C34   H32   S    
C20   H3    S    
C3    C31   S    
C18   C34   A    
C33   H14   S    
C1    O1    A    
C40   C41   A    
C20   C22   A    
C13   C15   S    
C14   C16   S    
C21   C24   A    
C42   C43   A    
C44   C50   A    
C25   C30   A    
C15   C17   S    
C37   H17   S    
C46   C47   A    
C48   C49   A    
C8    C14   S    
C7    O5    A    
C17   H31   S    
Cu1   O4    S    
C3    C5    A    
C2    C53   A    
C24   H34   S    
C22   H2    S    
C32   H13   S    
C40   H19   S    
C32   C33   A    
C49   H27   S    
C28   H9    S    
C8    O8    A    
C38   C43   A    
C41   H20   S    
C46   H24   S    
C5    C6    A    
C33   C35   A    
C48   H26   S    
C47   H25   S    
C9    C15   S    
C2    N1    A    
C27   H8    S    
C29   H10   S    
C44   C54   S    
Cu2   N2    S    
C42   H21   S    
C36   C37   A    
C49   C50   A    
C13   C16   S    
C12   C18   S    
C27   C28   A    
C12   O4    A    
Cu2   O7    S    
C6    C52   A    
C11   H1    S    
C36   H16   S    
C13   H12   S    
