data_mof_unit_39178.cif
_audit_creation_date              2013-03-05T16:13:09-0500
_audit_creation_method            fapswitch 2.2
_symmetry_space_group_name_H-M    P1
_symmetry_Int_Tables_number       1
_space_group_crystal_system       triclinic
_cell_length_a                    8.250219
_cell_length_b                    16.341529
_cell_length_c                    18.810957
_cell_angle_alpha                 112.569534
_cell_angle_beta                  91.202462
_cell_angle_gamma                 84.084239
_cell_volume                      2328.93786272

loop_
_atom_site_label
_atom_site_type_symbol
_atom_site_description
_atom_site_fract_x
_atom_site_fract_y
_atom_site_fract_z
_atom_type_partial_charge
P1    P     P_3+3 0.582960 0.413890 0.320860 0.582631
O1    O     O_2   0.402610 0.439360 0.314250 -0.326571
O2    O     O_3   0.648560 0.446300 0.404730 -0.336930
O3    O     O_3   0.108870 0.604000 0.387500 -0.335798
O4    O     O_2   0.258211 0.535286 0.251491 -0.349255
O5    O     O_3   0.600428 0.297259 0.282659 -0.519639
O6    O     O_3   0.121711 0.696811 0.289213 -0.438933
H1    H     H_    0.112571 0.763151 0.407625 0.101412
C1    C     C_3   0.055070 0.855207 0.352701 -0.013357
H2    H     H_    0.183687 0.868981 0.353071 0.167396
P2    P     P_3+3 0.071690 0.707860 0.593450 0.554945
P3    P     P_3+3 0.496122 0.766017 0.453513 0.565053
O7    O     O_2   0.241370 0.719440 0.573960 -0.249939
O8    O     O_3   0.507090 0.652150 0.432150 -0.326658
O9    O     O_2   0.343320 0.807220 0.505783 -0.325729
O10   O     O_3   0.138940 0.725861 0.687784 -0.569973
O11   O     O_3   0.444367 0.779671 0.367625 -0.606941
C2    C     C_3   0.584168 0.757154 0.319907 1.193583
H3    H     H_    0.661400 0.698704 0.323329 -0.325871
C3    C     C_3   0.535423 0.731297 0.235526 -0.123709
H4    H     H_    0.428552 0.692114 0.223366 0.146422
C4    C     C_3   0.624023 0.738139 0.664531 0.925472
H5    H     H_    0.749286 0.715196 0.642412 -0.086111
C5    C     C_3   0.596852 0.838644 0.706768 0.423773
H6    H     H_    0.649919 0.859130 0.765027 0.129837
H7    H     H_    0.464675 0.859459 0.712971 0.152662
Ba1   Ba    Ba6+2 0.333520 0.539550 0.472180 1.737742
C6    C     C_3   0.572036 0.264814 0.339367 0.029291
H8    H     H_    0.445166 0.286361 0.360563 0.041935
H9    H     H_    0.656430 0.288801 0.387939 0.072720
C7    C     C_3   0.598874 0.163293 0.303545 1.413466
H10   H     H_    0.576520 0.135190 0.346774 -0.201189
C8    C     C_3   0.026667 0.765073 0.749494 0.362300
H11   H     H_    0.904683 0.746457 0.732478 -0.040532
C9    C     C_3   0.020155 0.868513 0.783370 1.262768
P4    P     P_3+3 0.606720 0.586180 0.679160 0.599478
O12   O     O_2   0.787080 0.560670 0.685800 -0.349799
O13   O     O_3   0.541120 0.553770 0.595290 -0.341760
O14   O     O_3   0.080800 0.396070 0.612520 -0.395601
O15   O     O_3   0.584740 0.702219 0.717574 -0.611718
P5    P     P_3+3 0.697216 0.233373 0.547291 0.515835
O16   O     O_3   0.164600 0.390590 0.443970 -0.370800
O17   O     O_3   0.682580 0.347920 0.567870 -0.368993
O18   O     O_2   0.849892 0.190035 0.494910 -0.319712
O19   O     O_3   0.742850 0.215670 0.632056 -0.591499
Ba2   Ba    Ba6+2 0.856270 0.460520 0.527840 1.740944
P6    P     P_3+3 0.100388 0.592296 0.291614 0.596839
C10   C     C_3   0.047158 0.763365 0.355576 0.218112
H12   H     H_    0.918890 0.752427 0.361291 0.066731
H13   H     H_    0.995327 0.906499 0.405592 0.143594
O20   O     O_3   0.025080 0.609480 0.556050 -0.343801
C11   C     C_3   0.028218 0.305215 0.277072 0.256487
H14   H     H_    0.923806 0.339167 0.317398 0.088529
H15   H     H_    0.104347 0.356745 0.275718 0.114901
C12   C     C_3   0.957578 0.257900 0.197201 -0.056565
H16   H     H_    0.861014 0.217818 0.201824 0.219279
H17   H     H_    0.900645 0.308822 0.176225 0.046967
P7    P     P_3+3 0.127534 0.278704 0.399397 0.517555
O21   O     O_2   0.948320 0.280590 0.426090 -0.359129
O22   O     O_3   0.123625 0.242817 0.298957 -0.490991
H18   H     H_    0.638216 0.688026 0.198172 0.057269
C13   C     C_3   0.637772 0.274570 0.691861 1.217951
H19   H     H_    0.512057 0.281921 0.671759 -0.282141
C14   C     C_3   0.628887 0.238420 0.755427 -0.190212
H20   H     H_    0.530965 0.278602 0.797824 0.064472
H21   H     H_    0.597368 0.168594 0.729726 0.114818
P8    P     P_3+3 0.087793 0.409291 0.708324 0.640072
C15   C     C_3   0.161119 0.238358 0.655254 0.376889
H22   H     H_    0.260267 0.262990 0.632365 0.007968
O23   O     O_2   0.934225 0.469864 0.749611 -0.247192
O24   O     O_3   0.058182 0.305760 0.710377 -0.396266
H23   H     H_    0.087844 0.200694 0.605448 0.151145
H24   H     H_    0.348231 0.137890 0.658030 0.201452
C16   C     C_3   0.237631 0.175619 0.691580 -0.726002
H25   H     H_    0.150247 0.128631 0.692348 0.304200
H26   H     H_    0.273584 0.213893 0.751494 0.242366
C17   C     C_R   0.513422 0.457836 0.039428 0.086376
C18   C     C_R   0.435750 0.412305 0.077102 0.001293
C19   C     C_R   0.288731 0.377161 0.047692 -0.081616
C20   C     C_R   0.221876 0.385291 0.981987 -0.081104
C21   C     C_R   0.302826 0.425943 0.941668 -0.094152
C22   C     C_R   0.449287 0.462204 0.970007 -0.008909
C23   C     C_R   0.238782 0.429934 0.873408 0.664108
C24   C     C_R   0.325972 0.463473 0.828062 -0.241954
C25   C     C_R   0.470051 0.503893 0.858036 -0.018089
C26   C     C_R   0.530003 0.503527 0.929485 0.001294
C27   C     C_R   0.274552 0.458699 0.754268 0.234793
C28   C     C_R   0.366304 0.493036 0.711917 -0.358398
C29   C     C_R   0.500851 0.539754 0.742538 0.296334
C30   C     C_R   0.549412 0.548859 0.819014 -0.044649
C31   C     C_R   0.658241 0.495404 0.069007 0.008514
C32   C     C_R   0.719422 0.493803 0.140081 -0.079536
C33   C     C_R   0.637092 0.450504 0.180108 -0.202107
C34   C     C_R   0.507967 0.400204 0.141743 0.346330
H27   H     H_    0.220913 0.345184 0.076059 0.197269
H28   H     H_    0.107640 0.357770 0.962078 0.217372
H29   H     H_    0.327654 0.486780 0.654906 0.147559
C35   C     C_R   0.666340 0.606098 0.860496 0.261441
C36   C     C_R   0.745838 0.591298 0.923096 0.014804
C37   C     C_R   0.672976 0.542653 0.959585 0.110125
C38   C     C_R   0.738661 0.537145 0.028487 -0.013607
C39   C     C_R   0.893329 0.626153 0.951972 -0.028479
C40   C     C_R   0.963426 0.615786 0.016594 -0.067250
C41   C     C_R   0.885048 0.573510 0.056607 -0.094415
C42   C     C_R   0.865055 0.533548 0.169590 -0.309970
C43   C     C_R   0.950982 0.568242 0.124397 0.759712
C44   C     C_R   0.917021 0.538536 0.243619 0.104204
C45   C     C_R   0.824255 0.504792 0.286235 0.353047
C46   C     C_R   0.687590 0.459400 0.256357 0.060235
H30   H     H_    0.959729 0.658665 0.923460 0.216374
H31   H     H_    0.078012 0.643051 0.036117 0.204507
C47   C     C_2   0.398516 0.239928 0.481474 -0.558591
C48   C     C_R   0.804278 0.753208 0.516081 -0.419445
C49   C     C_2   0.246509 0.116393 0.400358 -0.230346
C50   C     C_2   0.259663 0.204221 0.432049 0.233345
C51   C     C_2   0.511440 0.185808 0.498910 0.189326
C52   C     C_3   0.470933 0.092382 0.484046 -0.245794
C53   C     C_3   0.378671 0.051181 0.409403 0.319999
C54   C     C_2   0.605874 0.026954 0.489228 0.641341
C55   C     C_2   0.579009 0.971027 0.523968 0.104629
C56   C     C_R   0.856869 0.931646 0.562059 0.238188
C57   C     C_R   0.710094 0.903161 0.526305 -0.038509
C58   C     C_R   0.973406 0.872330 0.577375 -0.115312
C59   C     C_R   0.942429 0.783976 0.558737 0.160102
C60   C     C_R   0.684727 0.812137 0.501502 0.262493
H32   H     H_    0.150103 0.090869 0.360191 0.211399
H33   H     H_    0.082376 0.896683 0.607690 0.216123
H34   H     H_    0.415552 0.309670 0.497463 0.166953
H35   H     H_    0.784103 0.683909 0.498918 0.205258
F1    F     F_    0.665695 0.881629 0.667199 -0.653923
F2    F     F_    0.493892 0.130775 0.243153 -0.582116
F3    F     F_    0.758022 0.135614 0.276927 -0.648319
N1    N     N_R   0.074969 0.726763 0.806685 0.255108
O25   O     O_R   0.111186 0.775211 0.877038 -0.255790
O26   O     O_R   0.080176 0.641032 0.786487 -0.407271
N2    N     N_R   0.182037 0.900089 0.793513 0.206334
O27   O     O_R   0.285999 0.880538 0.838950 -0.289762
O28   O     O_R   0.212680 0.960159 0.767423 -0.315414
F4    F     F_    0.936421 0.903808 0.853402 -0.582080
F5    F     F_    0.934519 0.900924 0.734528 -0.696865
N3    N     N_R   0.080739 0.198817 0.141268 0.325446
O29   O     O_R   0.098567 0.207211 0.075953 -0.299068
O30   O     O_R   0.150306 0.128081 0.149799 -0.153151
N4    N     N_R   0.976640 0.861917 0.284451 0.310801
O31   O     O_R   0.032461 0.810496 0.215942 -0.249089
O32   O     O_R   0.865451 0.927328 0.291891 -0.196228
F6    F     F_    0.694503 0.357508 0.721583 -0.660851
N5    N     N_R   0.783161 0.241466 0.795144 0.313979
O33   O     O_R   0.873576 0.167930 0.785991 -0.275835
O34   O     O_R   0.817845 0.315742 0.848713 -0.275824
F7    F     F_    0.088624 0.403238 0.854102 -0.634150
N6    N     N_R   0.480235 0.321570 0.154045 0.255340
O35   O     O_R   0.582715 0.250692 0.123942 -0.294034
O36   O     O_R   0.340099 0.314186 0.179918 -0.365652
N7    N     N_R   0.650343 0.694676 0.860601 0.244708
O37   O     O_R   0.504739 0.735730 0.865039 -0.280049
O38   O     O_R   0.773521 0.741382 0.873241 -0.326864
F8    F     F_    0.100773 0.595903 0.143980 -0.663410
F9    F     F_    0.672907 0.829834 0.341716 -0.710369
F10   F     F_    0.871168 0.513705 0.358057 -0.677957
F11   F     F_    0.749229 0.017996 0.451395 -0.652212
N8    N     N_R   0.424852 0.978427 0.562066 0.223083
O39   O     O_R   0.287340 0.988802 0.529779 -0.450968
O40   O     O_R   0.421385 0.968276 0.627209 -0.307318
N9    N     N_R   0.498739 0.809552 0.216169 0.310983
O41   O     O_R   0.376659 0.868163 0.249261 -0.309393
O42   O     O_R   0.586040 0.819929 0.164016 -0.235642
F12   F     F_    0.526370 0.713065 0.601696 -0.646738

loop_
_geom_bond_atom_site_label_1
_geom_bond_atom_site_label_2
_geom_bond_distance
_ccdc_geom_bond_type
P4    C29   1.906413 S    
C12   H16   1.107010 S    
N9    O41   1.299650 A    
C12   N3    1.461016 S    
Ba2   O21   2.857706 S    
N7    O38   1.297017 A    
H24   C16   1.104785 S    
P2    C59   1.852470 S    
C24   C27   1.418428 A    
C27   C28   1.406602 A    
O16   P7    1.751352 S    
C41   C43   1.405305 A    
C21   C22   1.404796 A    
C58   C59   1.398798 A    
C17   C18   1.410172 A    
C51   C52   1.514694 S    
C3    N9    1.460317 S    
C42   C44   1.422915 A    
C7    F3    1.382243 S    
C48   H35   1.081817 S    
C4    C5    1.519514 S    
C6    H8    1.101064 S    
N5    O34   1.300453 A    
C2    H3    1.114676 S    
C52   C54   1.490707 S    
O11   C2    1.404942 S    
C9    F5    1.375857 S    
C48   C60   1.403912 A    
Ba1   O13   2.802320 S    
C15   C16   1.517499 S    
O19   C13   1.407602 S    
C45   C46   1.401149 A    
C56   C58   1.399152 A    
C2    C3    1.534003 S    
C40   H31   1.083397 S    
P1    O1    1.518858 D    
O16   Ba2   2.907082 S    
C3    H18   1.110390 S    
C32   C33   1.434734 A    
C7    F2    1.383229 S    
C2    F9    1.381149 S    
C11   O22   1.404278 S    
P1    C46   1.907733 S    
O5    C6    1.394325 S    
C23   C24   1.418230 A    
Ba1   O20   2.907850 S    
C15   H22   1.110051 S    
P3    O11   1.752284 S    
C13   C14   1.529385 S    
C44   C45   1.408727 A    
P4    Ba2   3.383150 S    
O1    Ba1   2.824236 S    
O8    Ba1   2.766837 S    
C20   H28   1.083536 S    
C26   C37   1.403668 A    
C1    H2    1.106531 S    
C23   F7    1.351974 S    
C28   H29   1.081870 S    
C11   C12   1.535977 S    
C55   N8    1.444223 S    
C4    F12   1.367614 S    
C28   C29   1.398974 A    
C17   C31   1.405387 A    
N9    O42   1.300975 A    
C14   N5    1.457827 S    
P5    O17   1.751418 S    
C54   F11   1.358814 S    
C31   C38   1.414240 A    
C21   C23   1.400314 A    
C1    N4    1.462038 S    
C11   H15   1.109219 S    
C49   C50   1.341524 D    
P7    O22   1.750860 S    
N8    O40   1.299387 A    
N7    O37   1.301989 A    
O13   Ba2   2.920594 S    
C16   H25   1.110240 S    
P1    O5    1.751040 S    
P4    O15   1.741737 S    
C5    H6    1.110510 S    
N4    O32   1.300812 A    
C31   C32   1.427844 A    
C18   C19   1.406644 A    
N4    O31   1.301106 A    
P3    C60   1.861373 S    
P7    O21   1.564958 D    
C25   C26   1.424353 A    
Ba2   O20   2.796966 S    
P1    O2    1.563434 S    
N3    O30   1.301195 A    
O6    P6    1.752579 S    
H1    C10   1.109014 S    
C19   H27   1.075953 S    
C13   H19   1.107192 S    
C8    N1    1.468226 S    
O10   C8    1.402818 S    
O4    P6    1.544160 D    
P2    O10   1.770563 S    
C58   H33   1.081589 S    
C7    H10   1.102991 S    
P3    O9    1.542156 D    
P2    Ba1   3.406022 S    
C15   H23   1.110109 S    
C4    O15   1.395535 S    
C8    H11   1.087506 S    
C33   C34   1.422770 A    
C24   C25   1.419509 A    
C54   C55   1.348233 D    
C56   C57   1.406081 A    
C49   C53   1.498461 S    
C16   H26   1.110186 S    
O14   Ba2   2.799979 S    
Ba1   Ba2   4.530626 S    
N2    O28   1.301747 A    
C10   H12   1.105383 S    
P3    O8    1.739235 S    
C38   C41   1.404063 A    
P6    C44   1.866371 S    
C13   F6    1.380830 S    
C12   H17   1.110167 S    
N1    O25   1.302077 A    
P5    O18   1.546485 D    
C9    F4    1.384976 S    
C39   H30   1.077542 S    
P5    C51   1.850842 S    
C47   C51   1.340779 D    
O3    Ba1   2.800581 S    
C11   H14   1.109577 S    
C55   C57   1.479756 S    
N1    O26   1.299468 A    
N8    O39   1.301995 A    
C35   N7    1.439137 S    
P4    O12   1.519164 D    
O14   P8    1.731223 S    
C6    C7    1.525716 S    
C1    H13   1.109359 S    
C5    H7    1.103127 S    
N6    O36   1.298299 A    
C20   C21   1.400733 A    
C9    N2    1.463620 S    
C25   C30   1.428567 A    
C45   F10   1.354600 S    
C42   C43   1.422964 A    
O2    Ba2   2.802865 S    
P8    C27   1.854140 S    
C36   C37   1.413882 A    
P8    O23   1.543013 D    
C14   H20   1.111565 S    
C57   C60   1.414710 A    
O2    Ba1   2.919826 S    
O12   Ba2   2.824743 S    
C6    H9    1.108108 S    
C43   F8    1.354800 S    
C52   C53   1.529497 S    
O6    C10   1.404178 S    
C22   C26   1.410532 A    
P2    O7    1.503111 D    
Ba1   O16   2.797496 S    
P7    C50   1.821901 S    
C48   C59   1.402080 A    
C17   C22   1.423078 A    
C18   C34   1.415100 A    
C15   O24   1.406079 S    
C49   H32   1.085695 S    
P4    O13   1.563434 S    
C37   C38   1.425379 A    
C8    C9    1.556331 S    
P8    O24   1.749087 S    
N5    O33   1.300744 A    
C39   C40   1.396145 A    
O17   Ba2   2.767424 S    
C47   H34   1.085013 S    
P2    O20   1.573319 S    
C19   C20   1.389905 A    
C5    F1    1.367994 S    
C32   C42   1.424674 A    
C36   C39   1.406339 A    
C3    H4    1.111403 S    
C1    C10   1.530478 S    
C35   C36   1.424373 A    
C33   C46   1.441978 A    
C40   C41   1.404857 A    
P1    Ba1   3.382637 S    
P5    O19   1.753376 S    
C4    H5    1.095504 S    
O7    Ba1   2.857519 S    
N6    O35   1.300698 A    
C29   C30   1.440827 A    
N3    O29   1.300429 A    
C34   N6    1.431152 S    
C30   C35   1.417246 A    
C47   C50   1.481170 S    
N2    O27   1.300229 A    
C14   H21   1.111664 S    
O3    P6    1.739968 S    
