data_mof_unit_53037.cif
_audit_creation_date              2012-10-26T19:04:21-0400
_audit_creation_method            fapswitch 2.2
_symmetry_space_group_name_H-M    P1
_symmetry_Int_Tables_number       1
_space_group_crystal_system       triclinic
_cell_length_a                    14.968128
_cell_length_b                    15.620753
_cell_length_c                    9.583177
_cell_angle_alpha                 89.727562
_cell_angle_beta                  89.791642
_cell_angle_gamma                 89.566245
_cell_volume                      2240.57142598

loop_
_atom_site_label
_atom_site_type_symbol
_atom_type_description
_atom_site_fract_x
_atom_site_fract_y
_atom_site_fract_z
_atom_type_partial_charge
C1    C     C_R   0.385054 0.877492 0.501592 0.533994
C2    C     C_R   0.719461 0.217641 0.379306 -0.134092
C3    C     C_R   0.257342 0.318024 0.422049 -0.142882
C4    C     C_R   0.219475 0.717627 0.379308 -0.134099
C5    C     C_R   0.679201 0.808594 0.500197 0.001426
C6    C     C_R   0.676492 0.194613 0.503678 -0.006400
C7    C     C_R   0.179206 0.308599 0.500196 0.001432
C8    C     C_R   0.176483 0.694619 0.503669 -0.006404
C9    C     C_R   0.664346 0.003016 0.143203 -0.072929
C10   C     C_R   0.164346 0.503016 0.143203 -0.072922
C11   C     C_R   0.744699 0.006939 0.070490 0.194537
C12   C     C_R   0.379131 0.116564 0.500027 0.539520
C13   C     C_R   0.244699 0.506940 0.070490 0.194542
C14   C     C_R   0.744627 0.006262 0.926626 -0.124038
C15   C     C_R   0.244627 0.506263 0.926626 -0.124036
C16   C     C_R   0.664427 0.002187 0.854947 -0.124375
C17   C     C_R   0.164427 0.502188 0.854946 -0.124364
C18   C     C_R   0.580827 0.001290 0.924697 0.140054
C19   C     C_R   0.080827 0.501291 0.924697 0.140061
C20   C     C_R   0.580792 0.001471 0.074333 0.115044
C21   C     C_R   0.080792 0.501471 0.074333 0.115047
C22   C     C_R   0.423145 0.998392 0.074365 0.003146
C23   C     C_R   0.885060 0.377489 0.501591 0.533993
C24   C     C_R   0.923145 0.498391 0.074365 0.003144
C25   C     C_R   0.614009 0.123057 0.500431 0.543245
C26   C     C_R   0.616749 0.879567 0.500091 0.533063
C27   C     C_R   0.114006 0.623059 0.500429 0.543241
C28   C     C_R   0.116751 0.379569 0.500091 0.533054
C29   C     C_R   0.423178 0.998425 0.926364 -0.005041
C30   C     C_R   0.923178 0.498424 0.926365 -0.005030
C31   C     C_R   0.209549 0.088662 0.645836 -0.105613
C32   C     C_R   0.324347 0.789122 0.768281 -0.104317
C33   C     C_R   0.709566 0.588678 0.645898 -0.105615
C34   C     C_R   0.879128 0.616562 0.500027 0.539517
C35   C     C_R   0.824423 0.289060 0.768261 -0.104312
C36   C     C_R   0.128947 0.077025 0.716575 -0.111990
C37   C     C_R   0.276744 0.774350 0.891178 -0.121926
C38   C     C_R   0.628976 0.577054 0.716675 -0.112002
C39   C     C_R   0.776849 0.274266 0.891180 -0.121909
C40   C     C_R   0.564471 0.641635 0.716534 -0.107625
C41   C     C_R   0.688933 0.247166 0.884854 -0.118228
C42   C     C_R   0.064440 0.141605 0.716426 -0.107615
C43   C     C_R   0.188833 0.747244 0.884816 -0.118228
C44   C     C_R   0.580229 0.718245 0.645734 -0.094921
C45   C     C_R   0.321237 0.253929 0.421877 -0.138990
C46   C     C_R   0.651723 0.226726 0.756402 -0.092049
C47   C     C_R   0.080211 0.218227 0.645661 -0.094914
C48   C     C_R   0.151654 0.726775 0.756356 -0.092039
C49   C     C_R   0.662040 0.732123 0.575178 0.033120
C50   C     C_R   0.702820 0.232381 0.631706 0.023576
C51   C     C_R   0.162033 0.232116 0.575143 0.033119
C52   C     C_R   0.202780 0.732413 0.631688 0.023579
C53   C     C_R   0.227574 0.166412 0.575115 0.027888
C54   C     C_R   0.284276 0.776778 0.635749 0.022378
C55   C     C_R   0.727580 0.666418 0.575147 0.027896
C56   C     C_R   0.288410 0.775865 0.380612 -0.135394
C57   C     C_R   0.784320 0.276743 0.635745 0.022375
C58   C     C_R   0.307936 0.179471 0.499957 -0.000437
C59   C     C_R   0.321294 0.806742 0.507238 -0.011074
C60   C     C_R   0.807930 0.679466 0.499956 -0.000446
C61   C     C_R   0.821308 0.306732 0.507231 -0.011070
C62   C     C_R   0.821216 0.753910 0.421841 -0.139002
C63   C     C_R   0.788399 0.275877 0.380604 -0.135384
C64   C     C_R   0.757322 0.818005 0.422014 -0.142882
Cl1   Cl    Cl    0.846346 0.011958 0.160915 -0.655003
Cl2   Cl    Cl    0.346346 0.511959 0.160915 -0.655015
Cu1   Cu    Cu3+1 0.499990 0.000000 0.640660 0.904209
Cu2   Cu    Cu3+1 0.999990 0.500000 0.640660 0.904214
Cu3   Cu    Cu3+1 0.500010 0.000000 0.359340 0.935622
Cu4   Cu    Cu3+1 0.000010 0.500000 0.359340 0.935617
H1    H     H_    0.116026 0.017178 0.770134 0.127106
H2    H     H_    0.860162 0.497069 0.130017 0.121242
H3    H     H_    0.382422 0.263250 0.363009 0.147382
H4    H     H_    0.316716 0.795941 0.281635 0.141889
H5    H     H_    0.882390 0.763223 0.362946 0.147393
H6    H     H_    0.816683 0.295972 0.281622 0.141873
H7    H     H_    0.807149 0.008198 0.869428 0.154976
H8    H     H_    0.307150 0.508199 0.869428 0.154975
H9    H     H_    0.672428 0.999677 0.745076 0.195991
H10   H     H_    0.172428 0.499677 0.745076 0.195988
H11   H     H_    0.360229 0.997074 0.871342 0.116143
H12   H     H_    0.307603 0.785727 0.991345 0.118866
H13   H     H_    0.860229 0.497072 0.871342 0.116140
H14   H     H_    0.256323 0.035597 0.645079 0.132958
H15   H     H_    0.393329 0.806787 0.780417 0.144041
H16   H     H_    0.756335 0.535610 0.645135 0.132964
H17   H     H_    0.893407 0.306727 0.780363 0.144021
H18   H     H_    0.501458 0.631947 0.769960 0.130845
H19   H     H_    0.650233 0.239771 0.979768 0.120993
H20   H     H_    0.001417 0.131908 0.769820 0.130833
H21   H     H_    0.150111 0.739865 0.979711 0.121009
H22   H     H_    0.527095 0.765332 0.644701 0.131222
H23   H     H_    0.616064 0.517214 0.770260 0.127105
H24   H     H_    0.582318 0.208310 0.756503 0.154116
H25   H     H_    0.027079 0.265316 0.644622 0.131185
H26   H     H_    0.082253 0.708348 0.756425 0.154108
H27   H     H_    0.671707 0.000911 0.253063 0.203607
H28   H     H_    0.171707 0.500910 0.253063 0.203602
H29   H     H_    0.807732 0.285622 0.991336 0.118904
H30   H     H_    0.769749 0.876180 0.363307 0.169222
H31   H     H_    0.699656 0.190883 0.280095 0.150783
H32   H     H_    0.269779 0.376209 0.363369 0.169219
H33   H     H_    0.199692 0.690849 0.280101 0.150811
H34   H     H_    0.360162 0.997070 0.130017 0.121244
N1    N     N_R   0.501200 0.000000 0.147910 -0.242024
N2    N     N_R   0.001200 0.500000 0.147910 -0.242026
N3    N     N_R   0.501270 0.000000 0.852040 -0.242656
N4    N     N_R   0.001270 0.500000 0.852040 -0.242653
O1    O     O_R   0.409820 0.909830 0.618810 -0.528588
O2    O     O_R   0.590170 0.909830 0.618760 -0.525539
O3    O     O_R   0.090170 0.590170 0.618760 -0.530039
O4    O     O_R   0.090170 0.409830 0.618760 -0.525536
O5    O     O_R   0.590190 0.090180 0.381190 -0.523536
O6    O     O_R   0.590190 0.909820 0.381190 -0.512167
O7    O     O_R   0.090190 0.590180 0.381190 -0.523541
O8    O     O_R   0.090190 0.409820 0.381190 -0.512163
O9    O     O_R   0.409820 0.090170 0.618810 -0.505324
O10   O     O_R   0.909820 0.409830 0.618810 -0.528572
O11   O     O_R   0.909820 0.590170 0.618810 -0.505333
O12   O     O_R   0.409840 0.909830 0.381240 -0.499932
O13   O     O_R   0.409840 0.090170 0.381240 -0.495092
O14   O     O_R   0.909840 0.409830 0.381240 -0.499935
O15   O     O_R   0.909840 0.590170 0.381240 -0.495096
O16   O     O_R   0.590170 0.090170 0.618760 -0.530047

loop_
_geom_bond_atom_site_label_1
_geom_bond_atom_site_label_2
_ccdc_geom_bond_type
C44   C49   A    
C33   C55   A    
C41   H19   S    
C34   O15   A    
C22   C29   A    
C36   C42   A    
C4    C8    A    
Cu1   O16   S    
C23   O10   A    
C39   C41   A    
C28   O4    A    
Cu3   O5    S    
C60   C62   A    
C19   C21   A    
C3    C7    A    
C1    C59   S    
Cu2   O11   S    
C11   C14   A    
C6    C25   S    
C63   H6    S    
C4    H33   S    
C22   H34   S    
C45   H3    S    
Cu2   O4    S    
C14   H7    S    
C30   H13   S    
C61   C63   A    
C18   N3    A    
C62   C64   A    
Cu1   O2    S    
C1    O1    A    
C35   H17   S    
Cu4   O15   S    
Cu1   O1    S    
C12   O13   A    
C42   H20   S    
C41   C46   A    
C28   O8    A    
C43   C48   A    
C8    C52   A    
C40   C44   A    
C21   N2    A    
C44   H22   S    
C36   H1    S    
C54   C59   A    
C12   C58   S    
C19   N4    A    
C27   O3    A    
C55   C60   A    
C4    C56   A    
C34   C60   S    
C5    C49   A    
C2    C6    A    
C32   C54   A    
C52   C54   A    
C23   O14   A    
C13   Cl2   S    
C10   C21   A    
Cu3   O6    S    
C45   C58   A    
C56   H4    S    
Cu4   N2    S    
Cu3   N1    S    
C47   C51   A    
C2    H31   S    
Cu4   O8    S    
C49   C55   A    
C3    C45   A    
C17   H10   S    
C43   H21   S    
C7    C28   S    
C5    C26   S    
C5    C64   A    
Cu1   Cu3   S    
Cu2   O3    S    
C37   C43   A    
C35   C39   A    
C33   H16   S    
C26   O6    A    
C29   H11   S    
C25   O5    A    
C9    C11   A    
Cu4   O14   S    
C9    C20   A    
C39   H29   S    
C46   H24   S    
Cu3   O13   S    
C32   C37   A    
C31   C53   A    
Cu1   O9    S    
C3    H32   S    
C16   C18   A    
C13   C15   A    
C14   C16   A    
C37   H12   S    
C24   N2    A    
C2    C63   A    
C24   H2    S    
C20   N1    A    
C23   C61   S    
C34   O11   A    
C15   C17   A    
C26   O2    A    
C9    H27   S    
C48   H26   S    
C30   N4    A    
C50   C57   A    
C10   C13   A    
C53   C58   A    
C57   C61   A    
Cu4   O7    S    
C22   N1    A    
C10   H28   S    
C46   C50   A    
Cu3   O12   S    
C33   C38   A    
C56   C59   A    
C35   C57   A    
C16   H9    S    
C40   H18   S    
C64   H30   S    
C7    C51   A    
C38   C40   A    
Cu1   N3    S    
C32   H15   S    
C38   H23   S    
C17   C19   A    
C18   C20   A    
C42   C47   A    
C62   H5    S    
C25   O16   A    
C24   C30   A    
C31   H14   S    
C12   O9    A    
C15   H8    S    
C6    C50   A    
C48   C52   A    
Cu2   O10   S    
Cu2   Cu4   S    
C8    C27   S    
C47   H25   S    
C31   C36   A    
C29   N3    A    
Cu2   N4    S    
C51   C53   A    
C1    O12   A    
C11   Cl1   S    
C27   O7    A    
