data_mof_unit_10525.cif
_audit_creation_date              2012-12-11T15:54:36-0500
_audit_creation_method            fapswitch 2.2
_symmetry_space_group_name_H-M    P1
_symmetry_Int_Tables_number       1
_space_group_crystal_system       triclinic
_cell_length_a                    6.927647
_cell_length_b                    14.247502
_cell_length_c                    16.483741
_cell_angle_alpha                 90.043268
_cell_angle_beta                  89.933505
_cell_angle_gamma                 90.837304
_cell_volume                      1626.79740925

loop_
_atom_site_label
_atom_site_type_symbol
_atom_type_description
_atom_site_fract_x
_atom_site_fract_y
_atom_site_fract_z
_atom_type_partial_charge
O1    O     O_R   0.638180 0.333920 0.163320 -0.555832
O2    O     O_R   0.361820 0.666080 0.836680 -0.553348
O3    O     O_R   0.308470 0.344960 0.336080 -0.523852
O4    O     O_R   0.691530 0.655040 0.663920 -0.514008
O5    O     O_R   0.138140 0.166110 0.336680 -0.542677
O6    O     O_R   0.861860 0.833890 0.663320 -0.546008
C1    C     C_R   0.477784 0.367285 0.364943 0.829629
C2    C     C_R   0.522448 0.634023 0.634261 0.759239
O7    O     O_R   0.308460 0.344950 0.163930 -0.546108
O8    O     O_R   0.691540 0.655050 0.836070 -0.543941
O9    O     O_R   0.138140 0.166100 0.163310 -0.543570
O10   O     O_R   0.861860 0.833900 0.836690 -0.512414
C3    C     C_R   0.477988 0.367217 0.134970 0.677280
C4    C     C_R   0.522006 0.632752 0.865009 0.708767
O11   O     O_R   0.638180 0.333930 0.336700 -0.520065
O12   O     O_R   0.361820 0.666070 0.663300 -0.544235
O13   O     O_3   0.471670 0.191340 0.250000 -0.365809
O14   O     O_3   0.528330 0.808660 0.750000 -0.349636
V1    V     V_3+5 0.196830 0.260900 0.250000 1.520261
V2    V     V_3+5 0.803170 0.739100 0.750000 1.559306
O15   O     O_R   0.808420 0.155070 0.163920 -0.530693
O16   O     O_R   0.191580 0.844930 0.836080 -0.503309
C5    C     C_R   0.975599 0.136599 0.132092 0.836923
C6    C     C_R   0.024330 0.863648 0.867502 0.874845
O17   O     O_R   0.808420 0.155080 0.336070 -0.529815
O18   O     O_R   0.191580 0.844920 0.663930 -0.545233
C7    C     C_R   0.976409 0.126567 0.359841 0.701266
C8    C     C_R   0.023694 0.873673 0.640452 0.674384
V3    V     V_3+5 0.696830 0.239130 0.250000 1.524406
V4    V     V_3+5 0.303170 0.760870 0.750000 1.549398
O19   O     O_3   0.971850 0.308690 0.250010 -0.370326
O20   O     O_3   0.028150 0.691310 0.749990 -0.378983
C9    C     C_R   0.092649 0.194315 0.512359 -0.135511
C10   C     C_R   0.916190 0.805132 0.487396 -0.138452
C11   C     C_R   0.167970 0.235098 0.581651 0.325302
C12   C     C_R   0.843353 0.763842 0.417922 0.355443
C13   C     C_R   0.191081 0.180229 0.651255 -0.102081
C14   C     C_R   0.816261 0.818955 0.348666 -0.108617
C15   C     C_R   0.142617 0.083038 0.648516 -0.219514
C16   C     C_R   0.860392 0.916646 0.351717 -0.222135
C17   C     C_R   0.071082 0.038712 0.575727 0.000382
C18   C     C_R   0.931094 0.961240 0.424523 -0.000603
C19   C     C_R   0.049320 0.096956 0.505968 0.024460
C20   C     C_R   0.954363 0.902926 0.494144 0.007137
C21   C     C_R   0.018097 0.940485 0.569767 -0.146417
C22   C     C_R   0.982972 0.059658 0.430540 -0.148521
H1    H     H_    0.070940 0.242314 0.462750 0.161307
H2    H     H_    0.941221 0.757072 0.536764 0.169635
C23   C     C_R   0.166742 0.997654 0.950901 0.366127
C24   C     C_R   0.834179 0.000830 0.048728 0.279992
C25   C     C_R   0.144914 0.068931 0.009680 0.198451
C26   C     C_R   0.851964 0.931815 0.987700 0.271752
C27   C     C_R   0.983487 0.068606 0.062316 -0.234389
C28   C     C_R   0.016031 0.931428 0.937007 -0.214465
C29   C     C_R   0.359868 0.512065 0.437318 0.304704
C30   C     C_R   0.635960 0.489808 0.561534 0.273774
C31   C     C_R   0.377840 0.580216 0.499880 0.242913
C32   C     C_R   0.631164 0.427358 0.494114 0.226135
C33   C     C_R   0.512503 0.567619 0.563858 -0.205854
C34   C     C_R   0.488685 0.436270 0.433602 -0.182059
C35   C     C_R   0.320761 0.473014 0.031981 -0.114532
C36   C     C_R   0.679225 0.526906 0.967967 -0.122496
H3    H     H_    0.179918 0.453286 0.055459 0.118602
H4    H     H_    0.820069 0.546630 0.944488 0.117441
C37   C     C_R   0.331306 0.536452 0.966936 -0.144125
C38   C     C_R   0.668680 0.463470 0.033014 -0.141440
H5    H     H_    0.198261 0.563661 0.942604 0.116584
H6    H     H_    0.801725 0.436260 0.057345 0.118768
C39   C     C_R   0.510702 0.564397 0.933866 -0.045564
C40   C     C_R   0.489286 0.435538 0.066091 -0.032505
C41   C     C_2   0.753917 0.772811 0.271630 0.794603
O21   O     O_2   0.616407 0.802809 0.233667 -0.527750
O22   O     O_R   0.852588 0.694395 0.243180 -0.645837
H7    H     H_    0.796739 0.668880 0.190635 0.302062
C42   C     C_2   0.254065 0.226343 0.728236 0.795439
O23   O     O_2   0.389292 0.195168 0.766916 -0.528509
O24   O     O_R   0.158809 0.306218 0.755715 -0.646250
H8    H     H_    0.214806 0.331612 0.808276 0.307174
O25   O     O_3   0.217638 0.329359 0.577868 -0.650721
H9    H     H_    0.313975 0.344607 0.620296 0.301678
O26   O     O_3   0.800197 0.668855 0.421252 -0.640070
H10   H     H_    0.704988 0.652317 0.378729 0.297114
C43   C     C_2   0.165319 0.031983 0.724611 0.848353
O27   O     O_2   0.030915 0.028848 0.772320 -0.547942
O28   O     O_R   0.343550 0.994137 0.745155 -0.580209
H11   H     H_    0.444648 0.003614 0.701284 0.273670
C44   C     C_2   0.835478 0.967870 0.275789 0.856624
O29   O     O_2   0.969052 0.971638 0.227696 -0.544472
O30   O     O_R   0.656406 0.005238 0.255831 -0.586104
H12   H     H_    0.556143 0.995271 0.299960 0.273955
O31   O     O_3   0.334402 0.992030 0.905813 -0.576965
H13   H     H_    0.434376 0.035361 0.927854 0.342592
O32   O     O_3   0.668436 0.000323 0.094239 -0.594108
H14   H     H_    0.606193 0.060869 0.083378 0.294666
O33   O     O_3   0.269878 0.144900 0.007338 -0.637711
H15   H     H_    0.348849 0.142366 0.057003 0.289743
O34   O     O_3   0.711238 0.862849 0.976578 -0.625546
H16   H     H_    0.605953 0.869391 0.016671 0.348562
O35   O     O_3   0.225851 0.521048 0.375689 -0.622997
H17   H     H_    0.138402 0.573621 0.387428 0.372959
O36   O     O_3   0.755336 0.474615 0.627263 -0.622642
H18   H     H_    0.783834 0.406836 0.630917 0.323471
O37   O     O_3   0.265528 0.659330 0.495231 -0.634637
H19   H     H_    0.335624 0.712720 0.520709 0.283599
O38   O     O_3   0.762477 0.356063 0.486940 -0.640595
H20   H     H_    0.886760 0.378792 0.509763 0.331329

loop_
_geom_bond_atom_site_label_1
_geom_bond_atom_site_label_2
_ccdc_geom_bond_type
C35   C40   A    
C38   H6    S    
C44   O29   D    
O32   H14   S    
O13   V3    S    
O22   H7    S    
O33   H15   S    
O4    C2    A    
V1    O19   S    
O34   H16   S    
C15   C17   A    
O24   H8    S    
O9    V1    S    
O36   H18   S    
C16   C44   S    
C11   C13   A    
C30   O36   S    
O3    C1    A    
C2    C33   S    
C31   C33   A    
C3    C40   S    
C6    C28   S    
C23   C28   A    
C26   O34   S    
C18   C22   A    
C11   O25   S    
C35   H3    S    
O7    C3    A    
C36   H4    S    
C9    C11   A    
O5    C7    A    
O7    V1    S    
O6    C8    A    
C43   O27   D    
O8    V2    S    
C23   C25   A    
C24   C26   A    
O3    V1    S    
O14   V4    S    
V4    O20   S    
C10   C12   A    
C16   C18   A    
C13   C42   S    
C2    O12   A    
C29   C34   A    
C17   C19   A    
C18   C20   A    
C23   O31   S    
C26   C28   A    
O11   V3    S    
O15   C5    A    
O17   V3    S    
C31   O37   S    
C8    C21   S    
C24   C27   A    
C36   C38   A    
C9    C19   A    
C10   C20   A    
O8    C4    A    
O31   H13   S    
C41   O22   S    
C1    O11   A    
C37   H5    S    
O28   H11   S    
O15   V3    S    
O26   H10   S    
C36   C39   A    
C25   C27   A    
C42   O23   D    
O35   H17   S    
C12   O26   S    
O10   V2    S    
O1    V3    S    
C42   O24   S    
C7    C22   S    
C43   O28   S    
O18   V4    S    
C29   C31   A    
C9    H1    S    
C4    C39   S    
O16   C6    A    
O1    C3    A    
O12   V4    S    
C1    C34   S    
C20   C21   A    
V2    O20   S    
C14   C41   S    
O16   V4    S    
C24   O32   S    
O5    V1    S    
O17   C7    A    
O6    V2    S    
O38   H20   S    
O10   C6    A    
O18   C8    A    
C30   C33   A    
O2    V4    S    
C32   O38   S    
C12   C14   A    
C15   C43   S    
C41   O21   D    
V3    O19   S    
C14   C16   A    
C38   C40   A    
C37   C39   A    
C5    C27   S    
O9    C5    A    
O13   V1    S    
C30   C32   A    
O14   V2    S    
O2    C4    A    
C19   C22   A    
O25   H9    S    
O4    V2    S    
C35   C37   A    
C10   H2    S    
C13   C15   A    
C29   O35   S    
O37   H19   S    
C44   O30   S    
C17   C21   A    
O30   H12   S    
C32   C34   A    
C25   O33   S    
