data_mof_unit_37421.cif
_audit_creation_date              2012-12-11T15:42:57-0500
_audit_creation_method            fapswitch 2.2
_symmetry_space_group_name_H-M    P1
_symmetry_Int_Tables_number       1
_space_group_crystal_system       triclinic
_cell_length_a                    19.013024
_cell_length_b                    10.927239
_cell_length_c                    18.810054
_cell_angle_alpha                 90.117138
_cell_angle_beta                  89.723887
_cell_angle_gamma                 90.288978
_cell_volume                      3907.87107825

loop_
_atom_site_label
_atom_site_type_symbol
_atom_type_description
_atom_site_fract_x
_atom_site_fract_y
_atom_site_fract_z
_atom_type_partial_charge
C1    C     C_R   0.730065 0.375587 0.145623 0.547988
C2    C     C_R   0.288516 0.329193 0.861310 0.566409
C3    C     C_R   0.230066 0.875587 0.145623 0.547988
C4    C     C_R   0.788518 0.829190 0.861311 0.566406
C5    C     C_R   0.528337 0.381106 0.920791 -0.096273
C6    C     C_R   0.510784 0.397475 0.067599 -0.087602
C7    C     C_R   0.028339 0.881105 0.920791 -0.096275
C8    C     C_R   0.010786 0.897476 0.067599 -0.087600
C9    C     C_R   0.033132 0.994311 0.954548 -0.129576
C10   C     C_R   0.022708 0.002861 0.027515 -0.138983
C11   C     C_R   0.533126 0.494314 0.954548 -0.129577
C12   C     C_R   0.522702 0.502861 0.027516 -0.138984
C13   C     C_R   0.778677 0.843117 0.938021 0.014637
C14   C     C_R   0.247218 0.906597 0.073162 0.018024
C15   C     C_R   0.278675 0.343119 0.938020 0.014637
C16   C     C_R   0.747218 0.406596 0.073162 0.018022
C17   C     C_R   0.714343 0.818317 0.971354 0.007587
C18   C     C_R   0.277511 0.817037 0.029144 0.038729
C19   C     C_R   0.214339 0.318328 0.971351 0.007582
C20   C     C_R   0.777512 0.317037 0.029144 0.038733
C21   C     C_R   0.704038 0.845302 0.042645 0.004249
C22   C     C_R   0.277767 0.829733 0.956052 0.007393
C23   C     C_R   0.204033 0.345318 0.042642 0.004249
C24   C     C_R   0.777767 0.329732 0.956052 0.007396
C25   C     C_R   0.825517 0.904526 0.052871 -0.157773
C26   C     C_R   0.206828 0.010517 0.968665 -0.137236
C27   C     C_R   0.325516 0.404521 0.052872 -0.157776
C28   C     C_R   0.706825 0.510513 0.968664 -0.137235
C29   C     C_R   0.835668 0.878005 0.980784 -0.157182
C30   C     C_R   0.209229 0.001006 0.041702 -0.144010
C31   C     C_R   0.335667 0.378001 0.980784 -0.157183
C32   C     C_R   0.709225 0.501002 0.041701 -0.144008
C33   C     C_3   0.642162 0.859071 0.951879 -0.268438
C34   C     C_3   0.350194 0.765312 0.028456 -0.270803
C35   C     C_3   0.142162 0.359095 0.951873 -0.268435
C36   C     C_3   0.850197 0.265319 0.028456 -0.270803
C37   C     C_3   0.631023 0.888869 0.029856 -0.261214
C38   C     C_3   0.349242 0.776603 0.947900 -0.280075
C39   C     C_3   0.131023 0.388905 0.029849 -0.261196
C40   C     C_3   0.849243 0.276606 0.947900 -0.280074
C41   C     C_R   0.757732 0.898619 0.082965 0.014544
C42   C     C_R   0.245829 0.930647 0.924893 0.023222
C43   C     C_R   0.257730 0.398622 0.082964 0.014543
C44   C     C_R   0.745829 0.430645 0.924893 0.023221
C45   C     C_R   0.531382 0.156359 0.146721 0.537949
C46   C     C_R   0.468929 0.155287 0.853076 0.530891
C47   C     C_R   0.031382 0.656359 0.146722 0.537948
C48   C     C_R   0.968928 0.655287 0.853076 0.530889
C49   C     C_R   0.505820 0.162941 0.579413 0.015151
C50   C     C_R   0.520603 0.164029 0.431176 0.015687
C51   C     C_R   0.005820 0.662941 0.579413 0.015151
C52   C     C_R   0.020603 0.664029 0.431176 0.015686
C53   C     C_R   0.516812 0.054005 0.541669 0.030467
C54   C     C_R   0.523504 0.055322 0.469315 0.041579
C55   C     C_R   0.016816 0.554006 0.541670 0.030467
C56   C     C_R   0.023507 0.555323 0.469316 0.041583
C57   C     C_R   0.523372 0.275113 0.469329 -0.160431
C58   C     C_R   0.516677 0.274504 0.543749 -0.166614
C59   C     C_R   0.023370 0.775113 0.469329 -0.160432
C60   C     C_R   0.016675 0.774504 0.543749 -0.166614
C61   C     C_3   0.474965 0.937181 0.538949 -0.269729
C62   C     C_3   0.482881 0.939744 0.459069 -0.280957
C63   C     C_3   0.974973 0.437177 0.538951 -0.269731
C64   C     C_3   0.982886 0.439741 0.459071 -0.280956
C65   C     C_R   0.749670 0.933387 0.580646 0.014909
C66   C     C_R   0.237543 0.892264 0.430144 0.016074
C67   C     C_R   0.249671 0.433385 0.580646 0.014909
C68   C     C_R   0.737544 0.392265 0.430143 0.016075
C69   C     C_R   0.799199 0.003403 0.542933 0.029332
C70   C     C_R   0.181579 0.941917 0.468080 0.041188
C71   C     C_R   0.299199 0.503402 0.542932 0.029331
C72   C     C_R   0.681580 0.441920 0.468079 0.041187
C73   C     C_R   0.795837 0.011958 0.470458 0.040656
C74   C     C_R   0.183384 0.951626 0.540543 0.029837
C75   C     C_R   0.295837 0.511956 0.470457 0.040657
C76   C     C_R   0.683385 0.451629 0.540542 0.029835
C77   C     C_R   0.685956 0.902569 0.470465 -0.160414
C78   C     C_R   0.292553 0.840629 0.542746 -0.165992
C79   C     C_R   0.185957 0.402565 0.470465 -0.160414
C80   C     C_R   0.792554 0.340631 0.542745 -0.165991
C81   C     C_R   0.688820 0.894194 0.544864 -0.166892
C82   C     C_R   0.290603 0.831748 0.468364 -0.160482
C83   C     C_R   0.188821 0.394191 0.544863 -0.166891
C84   C     C_R   0.790604 0.331750 0.468364 -0.160481
C85   C     C_3   0.878016 0.997401 0.540437 -0.270049
C86   C     C_3   0.145584 0.061399 0.458202 -0.281210
C87   C     C_3   0.378016 0.497403 0.540437 -0.270049
C88   C     C_3   0.645586 0.561403 0.458202 -0.281210
C89   C     C_R   0.742045 0.967214 0.147971 0.544881
C90   C     C_R   0.258051 0.969939 0.852504 0.540102
C91   C     C_R   0.242044 0.467215 0.147971 0.544881
C92   C     C_R   0.758051 0.469939 0.852504 0.540101
C93   C     C_3   0.873552 0.007263 0.460520 -0.281449
C94   C     C_3   0.147381 0.073469 0.538156 -0.269650
C95   C     C_3   0.373553 0.507264 0.460520 -0.281448
C96   C     C_3   0.647382 0.573473 0.538155 -0.269650
C97   C     C_R   0.743199 0.952739 0.432321 0.016195
C98   C     C_R   0.242395 0.912479 0.578412 0.016008
C99   C     C_R   0.243200 0.452736 0.432320 0.016196
C100  C     C_R   0.742396 0.412481 0.578412 0.016010
C101  C     C_R   0.727630 0.373125 0.354670 0.544648
C102  C     C_R   0.269929 0.380710 0.648382 0.553761
C103  C     C_R   0.227630 0.873125 0.354670 0.544648
C104  C     C_R   0.769929 0.880710 0.648382 0.553761
C105  C     C_R   0.535614 0.156966 0.355689 0.544878
C106  C     C_R   0.469132 0.156920 0.647264 0.546036
C107  C     C_R   0.035614 0.656966 0.355689 0.544879
C108  C     C_R   0.969132 0.656920 0.647264 0.546037
C109  C     C_R   0.739672 0.976849 0.356679 0.544639
C110  C     C_R   0.257693 0.969467 0.646417 0.545901
C111  C     C_R   0.239672 0.476848 0.356679 0.544639
C112  C     C_R   0.757693 0.469468 0.646417 0.545902
C113  C     C_R   0.496529 0.161879 0.925690 -0.001356
C114  C     C_R   0.502608 0.169060 0.074739 -0.002187
C115  C     C_R   0.996526 0.661879 0.925691 -0.001357
C116  C     C_R   0.002606 0.669062 0.074740 -0.002188
C117  C     C_R   0.511650 0.274286 0.959769 0.011515
C118  C     C_R   0.508636 0.280338 0.035122 0.030236
C119  C     C_R   0.011649 0.774286 0.959770 0.011513
C120  C     C_R   0.008635 0.780339 0.035122 0.030235
C121  C     C_R   0.488808 0.059743 0.039218 -0.169193
C122  C     C_R   0.488440 0.055512 0.966413 -0.155121
C123  C     C_R   0.988802 0.559746 0.039220 -0.169191
C124  C     C_R   0.988433 0.555514 0.966415 -0.155119
Cr1   Cr    Cr6+3 0.772010 0.169670 0.250090 1.006662
Cr2   Cr    Cr6+3 0.227990 0.169670 0.749910 1.000066
Cr3   Cr    Cr6+3 0.272010 0.669670 0.250090 1.006662
Cr4   Cr    Cr6+3 0.727990 0.669670 0.749910 1.000067
Cr5   Cr    Cr6+3 0.615000 0.323260 0.249260 1.003803
Cr6   Cr    Cr6+3 0.385000 0.323260 0.750740 0.996860
Cr7   Cr    Cr6+3 0.115000 0.823260 0.249260 1.003802
Cr8   Cr    Cr6+3 0.885000 0.823260 0.750740 0.996860
Cr9   Cr    Cr6+3 0.616710 0.010760 0.250840 1.007991
Cr10  Cr    Cr6+3 0.383290 0.010760 0.749160 1.000727
Cr11  Cr    Cr6+3 0.116710 0.510760 0.250840 1.007992
Cr12  Cr    Cr6+3 0.883290 0.510760 0.749160 1.000727
H1    H     H_    0.483323 0.974167 0.067686 0.129740
H2    H     H_    0.479897 0.967188 0.942062 0.136609
H3    H     H_    0.983315 0.474171 0.067689 0.129735
H4    H     H_    0.979888 0.467191 0.942065 0.136608
H5    H     H_    0.919771 0.450407 0.556141 0.168221
H6    H     H_    0.015660 0.363934 0.437995 0.133547
H7    H     H_    0.419763 0.950420 0.556137 0.168221
H8    H     H_    0.515653 0.863934 0.437994 0.133547
H9    H     H_    0.502797 0.859457 0.564237 0.126753
H10   H     H_    0.432418 0.954376 0.430732 0.136534
H11   H     H_    0.002810 0.359457 0.564238 0.126751
H12   H     H_    0.932422 0.454369 0.430736 0.136534
H13   H     H_    0.640640 0.866200 0.442937 0.132397
H14   H     H_    0.336041 0.800546 0.571217 0.122668
H15   H     H_    0.140642 0.366194 0.442936 0.132394
H16   H     H_    0.836042 0.300548 0.571217 0.122667
H17   H     H_    0.646746 0.848000 0.573183 0.122342
H18   H     H_    0.331421 0.781541 0.440935 0.132932
H19   H     H_    0.146747 0.347996 0.573182 0.122340
H20   H     H_    0.831422 0.281543 0.440935 0.132931
H21   H     H_    0.897824 0.907195 0.557705 0.167934
H22   H     H_    0.091514 0.051028 0.436871 0.133345
H23   H     H_    0.397826 0.407199 0.557706 0.167934
H24   H     H_    0.591515 0.551032 0.436870 0.133345
H25   H     H_    0.903328 0.078219 0.565847 0.126915
H26   H     H_    0.179173 0.129824 0.430244 0.136684
H27   H     H_    0.403327 0.578223 0.565847 0.126914
H28   H     H_    0.679175 0.629827 0.430243 0.136684
H29   H     H_    0.895800 0.094235 0.439566 0.133042
H30   H     H_    0.182289 0.148854 0.555837 0.168269
H31   H     H_    0.395800 0.594237 0.439566 0.133042
H32   H     H_    0.682290 0.648858 0.555836 0.168269
H33   H     H_    0.890964 0.923183 0.432192 0.136616
H34   H     H_    0.094323 0.071027 0.563240 0.126714
H35   H     H_    0.390966 0.423184 0.432192 0.136616
H36   H     H_    0.594324 0.571031 0.563239 0.126714
H37   H     H_    0.538017 0.378115 0.864125 0.134219
H38   H     H_    0.499451 0.410713 0.123345 0.132487
H39   H     H_    0.038019 0.878111 0.864125 0.134219
H40   H     H_    0.999454 0.910716 0.123345 0.132488
H41   H     H_    0.044019 0.075883 0.923801 0.105005
H42   H     H_    0.024148 0.091533 0.053269 0.100366
H43   H     H_    0.544011 0.575887 0.923801 0.105003
H44   H     H_    0.524140 0.591533 0.053270 0.100364
H45   H     H_    0.869007 0.941845 0.082869 0.130176
H46   H     H_    0.177839 0.086395 0.947005 0.146554
H47   H     H_    0.369007 0.441832 0.082871 0.130176
H48   H     H_    0.677836 0.586391 0.947004 0.146554
H49   H     H_    0.886668 0.894084 0.957245 0.153512
H50   H     H_    0.179918 0.066209 0.073519 0.138467
H51   H     H_    0.386667 0.394076 0.957247 0.153513
H52   H     H_    0.679912 0.566204 0.073518 0.138469
H53   H     H_    0.108585 0.282263 0.932994 0.123819
H54   H     H_    0.851144 0.168905 0.046928 0.157289
H55   H     H_    0.608589 0.782237 0.932997 0.123818
H56   H     H_    0.351137 0.668898 0.046926 0.157293
H57   H     H_    0.642422 0.941401 0.917199 0.156055
H58   H     H_    0.389089 0.826710 0.054452 0.123053
H59   H     H_    0.142428 0.441420 0.917188 0.156054
H60   H     H_    0.889091 0.326723 0.054451 0.123051
H61   H     H_    0.625837 0.988539 0.040248 0.166910
H62   H     H_    0.388062 0.842791 0.926482 0.152396
H63   H     H_    0.125847 0.488581 0.040236 0.166898
H64   H     H_    0.888062 0.342795 0.926480 0.152395
H65   H     H_    0.590956 0.829451 0.055953 0.128629
H66   H     H_    0.347937 0.686511 0.920337 0.152280
H67   H     H_    0.090948 0.329504 0.055947 0.128637
H68   H     H_    0.847941 0.186512 0.920339 0.152279
O1    O     O_R   0.787520 0.042810 0.170440 -0.529329
O2    O     O_R   0.212480 0.042810 0.829560 -0.539064
O3    O     O_R   0.287520 0.542810 0.170440 -0.529329
O4    O     O_R   0.712480 0.542810 0.829560 -0.539064
O5    O     O_R   0.556610 0.252880 0.323980 -0.509922
O6    O     O_R   0.443390 0.252880 0.676020 -0.510907
O7    O     O_R   0.056610 0.752880 0.323980 -0.509922
O8    O     O_R   0.943390 0.752880 0.676020 -0.510907
O9    O     O_R   0.545950 0.051210 0.330860 -0.518906
O10   O     O_R   0.454050 0.051210 0.669140 -0.520546
O11   O     O_R   0.045950 0.551210 0.330860 -0.518906
O12   O     O_R   0.954050 0.551210 0.669140 -0.520547
O13   O     O_R   0.681390 0.959480 0.325510 -0.509514
O14   O     O_R   0.318610 0.959480 0.674490 -0.507708
O15   O     O_R   0.181390 0.459480 0.325510 -0.509514
O16   O     O_R   0.818610 0.459480 0.674490 -0.507708
O17   O     O_3   0.667900 0.167900 0.250060 -0.243931
O18   O     O_3   0.332100 0.167900 0.749940 -0.260027
O19   O     O_3   0.167900 0.667900 0.250060 -0.243931
O20   O     O_3   0.832100 0.667900 0.749940 -0.260029
O21   O     O_R   0.765640 0.292100 0.175020 -0.499264
O22   O     O_R   0.234360 0.292100 0.824980 -0.500986
O23   O     O_R   0.265640 0.792100 0.175020 -0.499264
O24   O     O_R   0.734360 0.792100 0.824980 -0.500982
O25   O     O_R   0.670190 0.408840 0.168540 -0.521256
O26   O     O_R   0.329810 0.408840 0.831460 -0.520943
O27   O     O_R   0.170190 0.908840 0.168540 -0.521255
O28   O     O_R   0.829810 0.908840 0.831460 -0.520940
O29   O     O_R   0.556620 0.251410 0.175160 -0.509313
O30   O     O_R   0.443380 0.251410 0.824840 -0.526209
O31   O     O_R   0.056620 0.751410 0.175160 -0.509314
O32   O     O_R   0.943380 0.751410 0.824840 -0.526210
O33   O     O_R   0.545960 0.049620 0.170320 -0.525787
O34   O     O_R   0.454040 0.049620 0.829680 -0.525139
O35   O     O_R   0.045960 0.549620 0.170320 -0.525785
O36   O     O_R   0.954040 0.549620 0.829680 -0.525140
O37   O     O_R   0.681390 0.958010 0.176690 -0.498344
O38   O     O_R   0.318610 0.958010 0.823310 -0.501425
O39   O     O_R   0.181390 0.458010 0.176690 -0.498342
O40   O     O_R   0.818610 0.458010 0.823310 -0.501426
O41   O     O_R   0.787510 0.044390 0.330970 -0.520188
O42   O     O_R   0.212490 0.044390 0.669030 -0.522834
O43   O     O_R   0.287510 0.544390 0.330970 -0.520188
O44   O     O_R   0.712490 0.544390 0.669030 -0.522834
O45   O     O_R   0.765630 0.293570 0.323840 -0.509575
O46   O     O_R   0.234370 0.293570 0.676160 -0.505331
O47   O     O_R   0.265630 0.793570 0.323840 -0.509575
O48   O     O_R   0.734370 0.793570 0.676160 -0.505331
O49   O     O_R   0.670190 0.410420 0.329080 -0.519804
O50   O     O_R   0.329810 0.410420 0.670920 -0.519243
O51   O     O_R   0.170190 0.910420 0.329080 -0.519804
O52   O     O_R   0.829810 0.910420 0.670920 -0.519242
H69   H     H_    0.528167 0.361534 0.441810 0.131294
H70   H     H_    0.514228 0.360566 0.572194 0.121198
H71   H     H_    0.028164 0.861534 0.441810 0.131292
H72   H     H_    0.014225 0.860566 0.572194 0.121199

loop_
_geom_bond_atom_site_label_1
_geom_bond_atom_site_label_2
_ccdc_geom_bond_type
C87   H27   S    
C55   C56   A    
C88   C96   S    
C67   C83   A    
C98   C110  S    
C116  C123  A    
C39   H67   S    
Cr2   O42   S    
C103  O51   A    
Cr9   O33   S    
C14   C18   A    
C35   C39   S    
Cr8   O8    S    
C73   C93   S    
C72   C76   A    
C94   H30   S    
C57   C58   A    
C75   C95   S    
C123  C124  A    
C74   C98   A    
C22   C42   A    
C53   C54   A    
C15   C19   A    
Cr4   O20   S    
C108  O12   A    
C93   H33   S    
C78   H14   S    
C50   C54   A    
C17   C33   S    
C58   H70   S    
C36   H54   S    
C30   H50   S    
C13   C29   A    
C16   C20   A    
C65   C104  S    
C45   O29   A    
Cr2   O46   S    
C5    C11   A    
C62   H10   S    
Cr7   O19   S    
C6    C12   A    
C65   C69   A    
C83   H19   S    
Cr8   O32   S    
Cr6   O26   S    
C1    O21   A    
Cr11  O19   S    
C22   C38   S    
C123  H3    S    
Cr2   O18   S    
C81   H17   S    
C28   C44   A    
C7    C9    A    
C6    C118  A    
C121  H1    S    
C4    C13   S    
C61   H9    S    
C85   H25   S    
Cr10  O38   S    
Cr3   O3    S    
C86   C94   S    
Cr9   O37   S    
C90   O2    A    
C114  C121  A    
C85   C93   S    
C45   C114  S    
C61   H7    S    
C89   O1    A    
C113  C122  A    
C40   H68   S    
C52   C107  S    
Cr11  O35   S    
C51   C108  S    
Cr10  O18   S    
C55   C63   S    
C70   C74   A    
C50   C105  S    
Cr9   O17   S    
C96   H32   S    
C69   C73   A    
C99   C111  S    
C86   H26   S    
C89   O37   A    
C37   H61   S    
Cr8   O20   S    
C9    C10   A    
Cr3   O47   S    
C44   C92   S    
Cr3   O19   S    
C95   H35   S    
C34   H58   S    
C4    O24   A    
C72   C88   S    
C33   H57   S    
C59   C60   A    
C35   H53   S    
C34   C38   S    
C80   C100  A    
Cr3   O23   S    
Cr10  O34   S    
C59   H71   S    
C38   H62   S    
Cr2   O22   S    
C111  O15   A    
C14   C30   A    
C2    O22   A    
Cr1   O21   S    
Cr8   O28   S    
C63   H11   S    
C108  O8    A    
C25   H45   S    
C3    C14   S    
C47   O31   A    
C25   C29   A    
C47   C116  S    
C106  O10   A    
Cr11  O11   S    
C71   C75   A    
C105  O9    A    
C32   H52   S    
C27   C31   A    
C80   C84   A    
C10   H42   S    
C7    C119  A    
C76   C100  A    
C36   C40   S    
Cr6   O18   S    
C86   H22   S    
C68   C101  S    
C122  H2    S    
Cr5   O17   S    
C77   H13   S    
C5    C117  A    
Cr9   O13   S    
C20   C36   S    
C6    H38   S    
C51   C55   A    
Cr7   O31   S    
C42   C90   S    
Cr10  O14   S    
C15   C31   A    
Cr6   O30   S    
C33   C37   S    
C49   C58   A    
C116  C120  A    
C7    H39   S    
C68   C72   A    
C102  O50   A    
C68   C84   A    
C101  O49   A    
C19   C23   A    
C17   C21   A    
C36   H60   S    
C78   C98   A    
C92   O4    A    
C52   C59   A    
C43   C91   S    
C66   C82   A    
C97   C109  S    
Cr1   O45   S    
C78   C82   A    
C65   C81   A    
Cr12  O20   S    
C28   C32   A    
Cr4   O24   S    
Cr3   O43   S    
Cr11  O15   S    
C46   O30   A    
C75   C99   A    
C63   H5    S    
C79   C99   A    
C107  O11   A    
C109  O41   A    
C1    C16   S    
C48   O32   A    
C112  O16   A    
Cr5   O25   S    
C77   C97   A    
C2    C15   S    
C18   C34   S    
C121  C122  A    
C114  C118  A    
Cr4   O44   S    
C38   H66   S    
C4    O28   A    
C48   C115  S    
C21   C41   A    
C26   H46   S    
C8    C10   A    
C12   H44   S    
C91   O39   A    
C73   C97   A    
C115  C119  A    
C94   H34   S    
C90   O38   A    
C102  O46   A    
Cr7   O7    S    
C24   C44   A    
C71   C87   S    
Cr6   O6    S    
C11   H43   S    
C105  O5    A    
C3    O27   A    
C87   H23   S    
C70   C86   S    
C107  O7    A    
C3    O23   A    
C84   H20   S    
C9    H41   S    
C8    C120  A    
C79   H15   S    
C113  C117  A    
Cr7   O27   S    
C104  O48   A    
C112  O44   A    
C27   C43   A    
C39   H63   S    
C87   C95   S    
C40   H64   S    
C115  C124  A    
C46   C113  S    
C41   C89   S    
C18   C22   A    
C50   C57   A    
C5    H37   S    
C66   C103  S    
C69   C85   S    
C101  O45   A    
C124  H4    S    
Cr12  O40   S    
Cr5   O49   S    
Cr6   O50   S    
C95   H31   S    
C91   O3    A    
C119  C120  A    
C8    H40   S    
C100  C112  S    
C49   C106  S    
Cr12  O16   S    
C35   H59   S    
C16   C32   A    
C45   O33   A    
C54   C62   S    
C48   O36   A    
C104  O52   A    
C13   C17   A    
C57   H69   S    
C33   H55   S    
Cr9   O9    S    
C60   H72   S    
Cr8   O52   S    
Cr12  O36   S    
C28   H48   S    
C103  O47   A    
C109  O13   A    
C88   H28   S    
C117  C118  A    
C76   C96   S    
Cr1   O17   S    
C79   C83   A    
C92   O40   A    
C110  O42   A    
C56   C64   S    
C66   C70   A    
C64   H6    S    
C34   H56   S    
Cr4   O48   S    
C23   C39   S    
Cr1   O1    S    
C24   C40   S    
C47   O35   A    
C29   H49   S    
Cr7   O51   S    
C46   O34   A    
C67   C71   A    
C53   C61   S    
C88   H24   S    
C26   C42   A    
C61   C62   S    
C110  O14   A    
C27   H47   S    
C49   C53   A    
Cr2   O2    S    
C2    O26   A    
C93   H29   S    
C63   C64   S    
C82   H18   S    
C1    O25   A    
C21   C37   S    
C67   C102  S    
Cr10  O10   S    
C111  O43   A    
C77   C81   A    
C96   H36   S    
Cr5   O29   S    
C74   C94   S    
C85   H21   S    
C37   H65   S    
C25   C41   A    
C19   C35   S    
C51   C60   A    
Cr4   O4    S    
Cr1   O41   S    
C31   H51   S    
C80   H16   S    
C23   C43   A    
Cr5   O5    S    
C20   C24   A    
C64   H12   S    
C52   C56   A    
C11   C12   A    
C62   H8    S    
Cr11  O39   S    
Cr12  O12   S    
C26   C30   A    
C106  O6    A    
