data_mof_unit_13471.cif
_audit_creation_date              2012-10-26T20:43:31-0400
_audit_creation_method            fapswitch 2.2
_symmetry_space_group_name_H-M    P1
_symmetry_Int_Tables_number       1
_space_group_crystal_system       triclinic
_cell_length_a                    10.926958
_cell_length_b                    9.63312
_cell_length_c                    23.420058
_cell_angle_alpha                 90.007897
_cell_angle_beta                  89.530096
_cell_angle_gamma                 91.042126
_cell_volume                      2464.72098728

loop_
_atom_site_label
_atom_site_type_symbol
_atom_type_description
_atom_site_fract_x
_atom_site_fract_y
_atom_site_fract_z
_atom_type_partial_charge
C1    C     C_R   0.262305 0.498886 0.498658 0.593325
C2    C     C_R   0.589961 0.508528 0.705690 0.064429
C3    C     C_R   0.397032 0.532011 0.239129 0.107595
C4    C     C_R   0.579635 0.484478 0.764748 0.111810
C5    C     C_R   0.500746 0.487340 0.208987 0.226622
C6    C     C_R   0.463613 0.461832 0.789969 0.215947
C7    C     C_R   0.060905 0.373554 0.511121 0.091887
C8    C     C_R   0.938914 0.627541 0.497370 0.084607
C9    C     C_R   0.933400 0.377545 0.517581 0.098785
C10   C     C_R   0.065538 0.623159 0.489525 0.080319
C11   C     C_R   0.871609 0.502989 0.507297 0.000085
C12   C     C_R   0.737359 0.501140 0.503117 0.565982
C13   C     C_R   0.127686 0.497319 0.498187 -0.004135
C14   C     C_R   0.544799 0.074334 0.454219 0.223174
C15   C     C_R   0.443895 0.924073 0.543083 0.224686
C16   C     C_R   0.452535 0.072484 0.545324 0.226124
C17   C     C_R   0.554678 0.926760 0.456419 0.230987
C18   C     C_R   0.502070 0.499799 0.391267 0.595468
C19   C     C_R   0.498335 0.499805 0.608766 0.603271
C20   C     C_R   0.476403 0.592611 0.877502 0.442413
C21   C     C_R   0.439963 0.370766 0.122370 0.425916
C22   C     C_R   0.421356 0.352946 0.882079 0.461808
C23   C     C_R   0.606863 0.448010 0.238249 0.162946
C24   C     C_R   0.541023 0.591902 0.117121 0.458386
C25   C     C_R   0.411300 0.360405 0.942166 0.038241
C26   C     C_R   0.525273 0.597322 0.057298 0.040279
C27   C     C_R   0.457451 0.480776 0.969859 -0.092146
C28   C     C_R   0.467952 0.482251 0.029980 -0.086896
C29   C     C_R   0.494485 0.598396 0.937140 0.021909
C30   C     C_R   0.421584 0.368350 0.062743 0.020039
C31   C     C_R   0.356973 0.251638 0.974773 0.138945
C32   C     C_R   0.565624 0.713585 0.024458 0.135547
C33   C     C_R   0.357354 0.258048 0.034936 0.091440
C34   C     C_R   0.359153 0.446933 0.755502 0.157431
C35   C     C_R   0.549924 0.714871 0.964681 0.115167
C36   C     C_3   0.169961 0.166678 0.931292 -0.241648
C37   C     C_3   0.543058 0.939382 0.068428 -0.217838
C38   C     C_3   0.717738 0.265746 0.190049 -0.279210
C39   C     C_3   0.188572 0.282973 0.770722 -0.254712
C40   C     C_3   0.792444 0.515295 0.351208 -0.304649
C41   C     C_3   0.173500 0.547345 0.661689 -0.294687
C42   C     C_3   0.215048 0.438074 0.342304 -0.297858
C43   C     C_3   0.735230 0.692553 0.686388 -0.287247
C44   C     C_3   0.137103 0.162489 0.468468 -0.289940
C45   C     C_R   0.608892 0.454289 0.298594 0.073420
C46   C     C_3   0.856525 0.823156 0.548659 -0.295103
C47   C     C_3   0.836569 0.249853 0.595287 -0.288616
C48   C     C_3   0.139512 0.777971 0.413594 -0.293210
C49   C     C_3   0.501733 0.113318 0.352893 -0.273419
C50   C     C_3   0.251031 0.878433 0.594954 -0.301015
C51   C     C_3   0.468648 0.112751 0.648458 -0.283445
C52   C     C_3   0.735778 0.900640 0.394199 -0.299183
C53   C     C_R   0.370214 0.464224 0.695692 0.076573
C54   C     C_R   0.503944 0.498634 0.328608 0.010642
C55   C     C_R   0.485531 0.496793 0.671196 0.009018
C56   C     C_R   0.397446 0.534129 0.299033 0.069880
Cu1   Cu    Cu3+1 0.500000 0.640660 0.500000 1.003722
Cu2   Cu    Cu3+1 0.500000 0.359340 0.500000 1.003572
H1    H     H_    0.307666 0.042728 0.964133 0.280218
H2    H     H_    0.713951 0.197442 0.228249 0.129955
H3    H     H_    0.804334 0.246805 0.166403 0.163607
H4    H     H_    0.640908 0.238104 0.161503 0.191626
H5    H     H_    0.183652 0.499454 0.782042 0.259037
H6    H     H_    0.115087 0.291464 0.738562 0.113090
H7    H     H_    0.146313 0.241866 0.810476 0.167423
H8    H     H_    0.257551 0.207638 0.755466 0.170761
H9    H     H_    0.759603 0.327623 0.310327 0.249768
H10   H     H_    0.829719 0.580320 0.315717 0.144229
H11   H     H_    0.869826 0.468063 0.374219 0.129057
H12   H     H_    0.110418 0.167856 0.969883 0.171389
H13   H     H_    0.742082 0.580890 0.381834 0.184717
H14   H     H_    0.235055 0.343092 0.656645 0.246181
H15   H     H_    0.097708 0.512864 0.690420 0.132410
H16   H     H_    0.134761 0.560423 0.618506 0.141984
H17   H     H_    0.210811 0.648863 0.676775 0.156079
H18   H     H_    0.237575 0.640870 0.313718 0.268072
H19   H     H_    0.177028 0.394018 0.302212 0.176078
H20   H     H_    0.138064 0.464013 0.371291 0.125375
H21   H     H_    0.271452 0.358690 0.363390 0.152188
H22   H     H_    0.775638 0.483912 0.693285 0.263183
H23   H     H_    0.136182 0.083953 0.902096 0.159960
H24   H     H_    0.829497 0.712884 0.670087 0.117197
H25   H     H_    0.732249 0.725399 0.731841 0.201186
H26   H     H_    0.669687 0.755293 0.661714 0.151434
H27   H     H_    0.093627 0.188781 0.554574 0.233232
H28   H     H_    0.048048 0.117137 0.454740 0.106414
H29   H     H_    0.201257 0.077204 0.476948 0.137477
H30   H     H_    0.176124 0.226017 0.433161 0.157331
H31   H     H_    0.918207 0.827060 0.465480 0.242910
H32   H     H_    0.943884 0.846665 0.570939 0.104087
H33   H     H_    0.798126 0.754186 0.575415 0.180425
H34   H     H_    0.163569 0.268447 0.909355 0.164262
H35   H     H_    0.806822 0.921277 0.542019 0.131119
H36   H     H_    0.897762 0.162535 0.519294 0.242856
H37   H     H_    0.921180 0.248218 0.621258 0.116788
H38   H     H_    0.781194 0.154498 0.604403 0.130468
H39   H     H_    0.781395 0.340781 0.607512 0.180626
H40   H     H_    0.110373 0.833270 0.498296 0.239194
H41   H     H_    0.098773 0.880324 0.404410 0.096919
H42   H     H_    0.090215 0.698904 0.387533 0.144998
H43   H     H_    0.237471 0.783091 0.400849 0.188538
H44   H     H_    0.666585 0.171096 0.396066 0.258436
H45   H     H_    0.704818 0.863437 0.033160 0.279965
H46   H     H_    0.470549 0.210910 0.333365 0.173614
H47   H     H_    0.418966 0.049853 0.364196 0.123643
H48   H     H_    0.556242 0.057515 0.320334 0.129468
H49   H     H_    0.427515 0.838202 0.624033 0.246042
H50   H     H_    0.234217 0.916655 0.639008 0.106613
H51   H     H_    0.196686 0.781928 0.588716 0.163763
H52   H     H_    0.218226 0.957085 0.564468 0.117320
H53   H     H_    0.316806 0.160466 0.596624 0.244938
H54   H     H_    0.492252 0.210932 0.670552 0.167588
H55   H     H_    0.554792 0.054797 0.641974 0.125110
H56   H     H_    0.503892 0.989420 0.030195 0.159984
H57   H     H_    0.405795 0.052142 0.676787 0.127221
H58   H     H_    0.556994 0.838706 0.376019 0.252252
H59   H     H_    0.734735 0.956592 0.352818 0.118684
H60   H     H_    0.793666 0.809015 0.387843 0.150056
H61   H     H_    0.777829 0.969653 0.426916 0.131757
H62   H     H_    0.594948 0.019004 0.093078 0.158674
H63   H     H_    0.467563 0.897849 0.095898 0.213596
H64   H     H_    0.794318 0.446467 0.223575 0.268050
I1    I     I_    0.243446 0.107780 0.079956 -0.326174
I2    I     I_    0.624583 0.892246 0.918838 -0.258768
I3    I     I_    0.238546 0.593032 0.192983 -0.333109
I4    I     I_    0.739737 0.479394 0.816786 -0.365364
N1    N     N_R   0.451447 0.468788 0.851253 -0.376359
N2    N     N_2   0.267653 0.443832 0.659227 -0.500757
N3    N     N_2   0.288257 0.561418 0.330160 -0.518411
N4    N     N_2   0.705001 0.546302 0.680869 -0.533234
N5    N     N_2   0.122330 0.245699 0.519524 -0.492985
N6    N     N_2   0.879711 0.758088 0.494144 -0.482490
N7    N     N_2   0.867047 0.255368 0.535116 -0.489242
N8    N     N_2   0.130728 0.747605 0.474049 -0.484949
N9    N     N_2   0.575912 0.144275 0.402709 -0.457878
N10   N     N_2   0.379600 0.849276 0.586635 -0.441351
N11   N     N_2   0.409313 0.142461 0.594663 -0.457321
N12   N     N_R   0.496794 0.481584 0.147718 -0.373597
N13   N     N_2   0.613043 0.855616 0.410616 -0.446721
N14   N     N_R   0.500000 0.852070 0.500000 -0.230852
N15   N     N_R   0.500000 0.147930 0.500000 -0.226243
N16   N     N_2   0.295359 0.139598 0.946649 -0.447001
N17   N     N_2   0.624020 0.829084 0.051734 -0.459332
N18   N     N_2   0.713098 0.410403 0.206496 -0.484491
N19   N     N_2   0.243666 0.418204 0.781908 -0.484398
N20   N     N_2   0.712448 0.407063 0.329369 -0.525442
O1    O     O_R   0.319640 0.618740 0.500000 -0.447959
O2    O     O_2   0.404346 0.262985 0.155476 -0.468252
O3    O     O_2   0.404198 0.231119 0.854668 -0.436206
O4    O     O_2   0.599628 0.695421 0.145170 -0.450471
O5    O     O_R   0.680360 0.381260 0.500000 -0.466855
O6    O     O_R   0.680360 0.618740 0.500000 -0.466204
O7    O     O_R   0.319640 0.381260 0.500000 -0.473529
O8    O     O_R   0.499960 0.618810 0.417880 -0.492663
O9    O     O_R   0.500040 0.381190 0.582120 -0.471458
O10   O     O_R   0.500040 0.618810 0.582120 -0.492426
O11   O     O_R   0.499960 0.381190 0.417880 -0.472833
O12   O     O_2   0.484050 0.708055 0.845215 -0.442741

loop_
_geom_bond_atom_site_label_1
_geom_bond_atom_site_label_2
_ccdc_geom_bond_type
C25   C31   A    
C26   C32   A    
C51   H54   S    
C23   C45   A    
C40   H13   S    
C27   C29   A    
C19   O9    A    
C12   O6    A    
C16   N11   S    
C14   C17   A    
H64   N18   S    
C52   N13   S    
C49   H46   S    
Cu1   Cu2   S    
C5    N12   S    
C44   N5    S    
C39   H6    S    
C46   H35   S    
C51   H55   S    
H31   N6    S    
H14   N2    S    
C48   N8    S    
C35   I2    S    
C53   N2    S    
C24   C26   A    
C6    N1    S    
C2    C55   A    
C46   N6    S    
C34   N19   S    
C14   N9    S    
C15   C16   A    
Cu1   O6    S    
C50   H52   S    
H36   N7    S    
C43   H25   S    
C3    C56   A    
C36   N16   S    
H44   N9    S    
C32   N17   S    
C41   H16   S    
H1    N16   S    
C22   C25   A    
C46   H32   S    
C8    N6    S    
C47   H38   S    
C31   C33   A    
C42   N3    S    
C44   H29   S    
C7    N5    S    
C56   N3    S    
C18   O8    A    
H58   N13   S    
C52   H59   S    
C36   H34   S    
C49   N9    S    
C14   N15   A    
C42   H21   S    
C20   O12   S    
C47   N7    S    
C50   H50   S    
C43   H26   S    
C39   H7    S    
C12   O5    A    
C21   N12   A    
C44   H28   S    
C36   H12   S    
C20   C29   A    
C53   C55   A    
C48   H42   S    
Cu1   O10   S    
C54   C56   A    
H22   N4    S    
C40   H11   S    
C45   N20   S    
C21   O2    S    
C20   N1    A    
C4    C6    A    
C49   H47   S    
C37   H56   S    
C24   N12   A    
C41   H15   S    
C10   C13   A    
C50   H51   S    
C51   H57   S    
C6    C34   A    
Cu1   N14   S    
C2    C4    A    
C32   C35   A    
H49   N10   S    
Cu2   O7    S    
C41   H17   S    
H18   N3    S    
C5    C23   A    
C36   H23   S    
C39   N19   S    
H9    N20   S    
C17   N13   S    
C1    O7    A    
C9    C11   A    
C24   O4    S    
C34   C53   A    
C38   H2    S    
C51   N11   S    
C8    C10   A    
C45   C54   A    
C42   H20   S    
Cu1   O1    S    
C39   H8    S    
C37   H63   S    
C23   N18   S    
C1    O1    A    
C1    C13   S    
Cu2   O5    S    
H53   N11   S    
C15   N14   A    
Cu1   O8    S    
C19   C55   S    
C7    C9    A    
C48   H41   S    
H40   N8    S    
C37   N17   S    
C30   C33   A    
C38   N18   S    
C43   N4    S    
C10   N8    S    
C3    C5    A    
Cu2   O11   S    
H45   N17   S    
C11   C12   S    
C3    I3    S    
C49   H48   S    
C15   N10   S    
C4    I4    S    
C25   C27   A    
C21   C30   A    
C29   C35   A    
C26   C28   A    
C47   H39   S    
C40   N20   S    
C38   H3    S    
C31   N16   S    
C28   C30   A    
C16   N15   A    
C18   O11   A    
C50   N10   S    
H27   N5    S    
Cu2   N15   S    
C22   N1    A    
C37   H62   S    
C8    C11   A    
C48   H43   S    
C2    N4    S    
H5    N19   S    
C17   N14   A    
C22   O3    S    
Cu2   O9    S    
C18   C54   S    
C19   O10   A    
C52   H61   S    
C7    C13   A    
C42   H19   S    
C41   N2    S    
C40   H10   S    
C27   C28   A    
C33   I1    S    
C43   H24   S    
C47   H37   S    
C44   H30   S    
C46   H33   S    
C9    N7    S    
C38   H4    S    
C52   H60   S    
