data_mof_unit_46882.cif
_audit_creation_date              2012-12-10T16:38:44-0500
_audit_creation_method            fapswitch 2.2
_symmetry_space_group_name_H-M    P1
_symmetry_Int_Tables_number       1
_space_group_crystal_system       triclinic
_cell_length_a                    10.908556
_cell_length_b                    10.871988
_cell_length_c                    17.721159
_cell_angle_alpha                 97.992919
_cell_angle_beta                  72.984103
_cell_angle_gamma                 98.189438
_cell_volume                      1978.63695559

loop_
_atom_site_label
_atom_site_type_symbol
_atom_type_description
_atom_site_fract_x
_atom_site_fract_y
_atom_site_fract_z
_atom_type_partial_charge
C1    C     C_R   0.158572 0.480400 0.517614 0.593059
C2    C     C_R   0.612818 0.410495 0.918981 -0.119747
C3    C     C_R   0.681923 0.350494 0.955922 0.223033
C4    C     C_R   0.843243 0.519686 0.482731 0.500474
C5    C     C_R   0.636768 0.342949 0.038536 0.043867
C6    C     C_R   0.532708 0.411427 0.082500 -0.038433
C7    C     C_R   0.698853 0.280094 0.080308 0.086218
C8    C     C_R   0.683331 0.316552 0.162000 0.235085
C9    C     C_R   0.521918 0.449394 0.162667 -0.165087
C10   C     C_2   0.981430 0.522154 0.475778 0.226663
C11   C     C_2   0.021914 0.471482 0.529266 0.057264
C12   C     C_R   0.299313 0.653019 0.848466 0.014045
C13   C     C_2   0.540366 0.967569 0.475997 0.255879
C14   C     C_2   0.453269 0.037907 0.526726 0.284530
C15   C     C_R   0.467242 0.169285 0.518530 0.547800
C16   C     C_R   0.530264 0.833254 0.482708 0.528502
C17   C     C_R   0.564724 0.435865 0.287970 0.493232
C18   C     C_R   0.435848 0.563510 0.713133 0.488395
C19   C     C_R   0.397265 0.578968 0.801521 0.009598
C20   C     C_R   0.595411 0.403724 0.202302 0.015168
C21   C     C_R   0.239131 0.626741 0.928019 0.050674
C22   C     C_3   0.771212 0.166747 0.042299 -0.212008
C23   C     C_R   0.452550 0.506552 0.839382 -0.156303
C24   C     C_3   0.702031 0.047655 0.079377 -0.426038
C25   C     C_3   0.934609 0.412291 0.602889 -0.301772
C26   C     C_3   0.005074 0.370966 0.656793 -0.455134
C27   C     C_3   0.095187 0.640932 0.964172 -0.248274
C28   C     C_3   0.013188 0.576460 0.909981 -0.452850
C29   C     C_3   0.260383 0.760583 0.816688 -0.252962
C30   C     C_3   0.373169 0.862023 0.793818 -0.398628
C31   C     C_3   0.238252 0.427688 0.158056 -0.277883
C32   C     C_3   0.229614 0.285036 0.144551 -0.409981
C33   C     C_R   0.419798 0.510615 0.922367 -0.036343
C34   C     C_R   0.309073 0.569152 0.967717 0.072715
C35   C     C_R   0.493796 0.456218 0.960834 -0.020373
C36   C     C_R   0.450325 0.451821 0.043996 0.014347
C37   C     C_R   0.326481 0.489295 0.085789 0.002951
C38   C     C_R   0.271598 0.568197 0.051034 0.229238
H1    H     H_    0.461805 0.521398 0.194188 0.122863
H2    H     H_    0.030479 0.605512 0.378586 0.341883
H3    H     H_    0.071609 0.301062 0.623518 0.154071
H4    H     H_    0.059855 0.452561 0.681737 0.159148
H5    H     H_    0.933455 0.327129 0.706947 0.133934
H6    H     H_    0.869273 0.480800 0.640007 0.165299
H7    H     H_    0.876839 0.327552 0.583647 0.184793
H8    H     H_    0.693881 0.960654 0.385217 0.345876
H9    H     H_    0.302004 0.056966 0.616858 0.303131
H10   H     H_    0.741527 0.303077 0.255196 0.336823
H11   H     H_    0.819812 0.327534 0.857237 0.315382
H12   H     H_    0.521417 0.445999 0.802591 0.140040
H13   H     H_    0.029236 0.625906 0.856798 0.135492
H14   H     H_    0.035463 0.478443 0.890931 0.187904
H15   H     H_    0.909344 0.575379 0.942833 0.171277
H16   H     H_    0.054510 0.593978 0.018971 0.219524
H17   H     H_    0.078980 0.740907 0.979729 0.155390
H18   H     H_    0.454879 0.825489 0.746356 0.174736
H19   H     H_    0.340940 0.939266 0.771944 0.158081
H20   H     H_    0.407447 0.900222 0.846452 0.143198
H21   H     H_    0.219346 0.727129 0.766308 0.181720
H22   H     H_    0.183517 0.807729 0.862082 0.131264
H23   H     H_    0.657457 0.424095 0.857520 0.091469
H24   H     H_    0.203659 0.251168 0.088528 0.157426
H25   H     H_    0.322145 0.251191 0.141879 0.165323
H26   H     H_    0.153926 0.244721 0.194464 0.164950
H27   H     H_    0.264592 0.461297 0.213568 0.154093
H28   H     H_    0.138022 0.451330 0.169838 0.176203
H29   H     H_    0.194625 0.658635 0.153390 0.330276
H30   H     H_    0.701745 0.051765 0.142268 0.219622
H31   H     H_    0.600921 0.032652 0.075732 0.148357
H32   H     H_    0.752169 0.966070 0.046442 0.129594
H33   H     H_    0.778007 0.144925 0.978628 0.195532
H34   H     H_    0.870953 0.183712 0.048348 0.182171
O1    O     O_3   0.500000 0.500000 0.500000 -0.449661
O2    O     O_R   0.470800 0.371790 0.332500 -0.523230
O3    O     O_R   0.380610 0.619380 0.674980 -0.556093
O4    O     O_R   0.632640 0.524780 0.317540 -0.539004
O5    O     O_R   0.515950 0.484050 0.674980 -0.555922
O6    O     O_3   0.188020 0.650724 0.098251 -0.736013
O7    O     O_3   0.073564 0.576181 0.413742 -0.715802
O8    O     O_3   0.638543 0.024133 0.417963 -0.729014
O9    O     O_3   0.353402 0.988630 0.586680 -0.710977
O10   O     O_3   0.756306 0.265756 0.199554 -0.715434
O11   O     O_3   0.802569 0.316303 0.914106 -0.753885
O12   O     O_R   0.535460 0.243030 0.556410 -0.543547
O13   O     O_R   0.437420 0.784080 0.535340 -0.480191
O14   O     O_R   0.223560 0.397520 0.472140 -0.528823
O15   O     O_R   0.803560 0.575360 0.436110 -0.542524
O16   O     O_R   0.209690 0.568800 0.556400 -0.536845
O17   O     O_R   0.763190 0.458310 0.535350 -0.573175
O18   O     O_R   0.414000 0.207090 0.472140 -0.533742
O19   O     O_R   0.613120 0.765800 0.436110 -0.562085
Zn1   Zn    Zn3+2 0.577310 0.422690 0.565550 0.921468
Zn2   Zn    Zn3+2 0.403760 0.371330 0.445150 0.972831
Zn3   Zn    Zn3+2 0.634990 0.589920 0.423760 0.954531
Zn4   Zn    Zn3+2 0.383940 0.616050 0.565540 0.959371

loop_
_geom_bond_atom_site_label_1
_geom_bond_atom_site_label_2
_ccdc_geom_bond_type
C2    C35   A    
C31   H28   S    
C30   H19   S    
O5    Zn1   S    
C18   O3    A    
C12   C29   S    
O13   Zn4   S    
C35   C36   A    
C1    C11   S    
O1    Zn2   S    
C6    C9    A    
C27   H16   S    
O3    Zn4   S    
C7    C8    A    
C4    O15   A    
C29   C30   S    
C8    O10   S    
C36   C37   A    
C5    C6    A    
C28   H13   S    
C27   H17   S    
C11   C25   S    
O15   Zn3   S    
C9    H1    S    
C17   C20   S    
C18   C19   S    
O4    Zn3   S    
C29   H21   S    
H10   O10   S    
C23   C33   A    
C26   H5    S    
C17   O4    A    
C2    H23   S    
C1    O16   A    
C21   C27   S    
O16   Zn4   S    
C13   C14   D    
O2    Zn2   S    
H29   O6    S    
O1    Zn3   S    
C25   H6    S    
C22   H34   S    
C24   H31   S    
C24   H32   S    
C32   H26   S    
C5    C7    A    
C23   H12   S    
C21   C34   A    
C38   O6    S    
C25   C26   S    
C30   H18   S    
C12   C21   A    
C31   C37   S    
C19   C23   A    
C37   C38   A    
O14   Zn2   S    
C9    C20   A    
C31   C32   S    
C29   H22   S    
C10   O7    S    
C33   C34   A    
H2    O7    S    
C8    C20   A    
O17   Zn1   S    
O1    Zn1   S    
C3    O11   S    
C16   O13   A    
C22   C24   S    
O1    Zn4   S    
C4    C10   S    
C25   H7    S    
C22   H33   S    
C26   H4    S    
O18   Zn2   S    
C4    O17   A    
C1    O14   A    
C31   H27   S    
C34   C38   A    
C32   H25   S    
C3    C5    A    
C28   H15   S    
C15   O12   A    
C7    C22   S    
H11   O11   S    
C2    C3    A    
C32   H24   S    
C15   O18   A    
H8    O8    S    
C28   H14   S    
C17   O2    A    
C18   O5    A    
C30   H20   S    
C12   C19   A    
C33   C35   A    
C6    C36   A    
H9    O9    S    
C13   O8    S    
C10   C11   D    
C24   H30   S    
C16   O19   A    
C13   C16   S    
C27   C28   S    
C14   C15   S    
O12   Zn1   S    
C14   O9    S    
C26   H3    S    
O19   Zn3   S    
