data_mof_unit_6155.cif
_audit_creation_date              2013-03-05T15:42:49-0500
_audit_creation_method            fapswitch 2.2
_symmetry_space_group_name_H-M    P1
_symmetry_Int_Tables_number       1
_space_group_crystal_system       triclinic
_cell_length_a                    6.944061
_cell_length_b                    14.693081
_cell_length_c                    16.407981
_cell_angle_alpha                 90.149535
_cell_angle_beta                  89.699797
_cell_angle_gamma                 89.614814
_cell_volume                      1674.03390461

loop_
_atom_site_label
_atom_site_type_symbol
_atom_site_description
_atom_site_fract_x
_atom_site_fract_y
_atom_site_fract_z
_atom_type_partial_charge
O1    O     O_R   0.494400 0.416610 0.413880 -0.555255
O2    O     O_R   0.823920 0.406790 0.585520 -0.541086
O3    O     O_R   0.994250 0.583390 0.586120 -0.562554
C1    C     C_R   0.655932 0.387913 0.615294 0.896320
O4    O     O_R   0.824110 0.405730 0.414490 -0.524858
O5    O     O_R   0.994440 0.582310 0.413870 -0.550282
C2    C     C_R   0.656056 0.382522 0.387089 0.879787
O6    O     O_R   0.494210 0.417690 0.586130 -0.563660
O7    O     O_3   0.660810 0.557940 0.500000 -0.269222
V1    V     V_3+5 0.935650 0.489250 0.500000 1.266357
O8    O     O_R   0.324160 0.593210 0.414480 -0.552058
C3    C     C_R   0.156062 0.611260 0.383611 0.922774
O9    O     O_R   0.323970 0.594270 0.585510 -0.556540
C4    C     C_R   0.152855 0.621056 0.609495 0.871086
V2    V     V_3+5 0.435660 0.510750 0.500000 1.231739
O10   O     O_3   0.160630 0.442060 0.500000 -0.245866
H1    H     H_    0.967221 0.939344 0.521728 0.154262
C5    C     C_R   0.151701 0.558383 0.772115 -0.103793
C6    C     C_R   0.149451 0.521739 0.849608 -0.168988
C7    C     C_R   0.143796 0.578492 0.916553 -0.069579
C8    C     C_R   0.139270 0.672998 0.907319 0.362473
C9    C     C_R   0.137035 0.713811 0.828215 -0.058196
C10   C     C_R   0.144842 0.653705 0.759291 0.001423
C11   C     C_R   0.125810 0.810418 0.815297 -0.118636
C12   C     C_R   0.114206 0.843868 0.733750 -0.070993
C13   C     C_R   0.102180 0.782512 0.666085 -0.083151
C14   C     C_R   0.137082 0.687660 0.678605 -0.095443
C15   C     C_R   0.111491 0.939007 0.717409 0.315261
C16   C     C_R   0.040898 0.971438 0.643850 -0.105165
C17   C     C_R   0.008100 0.912106 0.580512 -0.092859
C18   C     C_R   0.053146 0.820009 0.588531 0.352394
H2    H     H_    0.153212 0.510084 0.722308 0.074129
H3    H     H_    0.153055 0.448645 0.857750 0.091695
H4    H     H_    0.144140 0.548737 0.976900 0.107836
H5    H     H_    0.032099 0.043671 0.632393 0.200674
C19   C     C_2   0.986079 0.708811 0.282249 -0.046880
C20   C     C_2   0.151346 0.677018 0.315032 -0.116748
H6    H     H_    0.849688 0.684096 0.305777 0.113929
H7    H     H_    0.289550 0.699652 0.292291 0.067603
C21   C     C_2   0.973706 0.776490 0.214515 -0.048015
C22   C     C_2   0.125623 0.819567 0.181107 -0.107022
H8    H     H_    0.830427 0.791238 0.191611 0.113435
H9    H     H_    0.269767 0.806812 0.203374 0.070280
C23   C     C_2   0.769276 0.210069 0.781213 -0.165520
C24   C     C_2   0.609735 0.172348 0.812013 -0.203391
H10   H     H_    0.907504 0.197750 0.809436 0.164178
H11   H     H_    0.473523 0.183455 0.781194 0.155510
C25   C     C_2   0.763495 0.260817 0.703128 0.339760
C26   C     C_2   0.650723 0.336223 0.692639 -0.153087
C27   C     C_2   0.776309 0.202710 0.216880 -0.131103
C28   C     C_2   0.611382 0.178851 0.179464 -0.259165
H12   H     H_    0.910060 0.172448 0.194945 0.143860
H13   H     H_    0.473655 0.204694 0.200769 0.127344
C29   C     C_2   0.792889 0.263613 0.290113 0.331124
C30   C     C_2   0.644285 0.315704 0.318750 -0.253020
H14   H     H_    0.505830 0.312691 0.289084 0.106091
O11   O     O_R   0.770210 0.079270 0.910680 -0.559150
O12   O     O_R   0.440150 0.091160 0.082270 -0.577682
O13   O     O_R   0.269970 0.914530 0.082860 -0.546337
C31   C     C_R   0.607934 0.112840 0.110759 0.828850
O14   O     O_R   0.440480 0.090100 0.911240 -0.517772
O15   O     O_R   0.270310 0.913460 0.910610 -0.495855
C32   C     C_R   0.608683 0.111626 0.883317 0.908617
O16   O     O_R   0.769870 0.080340 0.082930 -0.580642
O17   O     O_3   0.603660 0.938980 0.996790 -0.250339
V3    V     V_3+5 0.328750 0.007610 0.996740 1.244120
O18   O     O_R   0.940600 0.902510 0.911180 -0.545486
C33   C     C_R   0.111129 0.877472 0.884982 0.927369
O19   O     O_R   0.940270 0.903570 0.082200 -0.550562
C34   C     C_R   0.108974 0.885135 0.112776 0.925139
V4    V     V_3+5 0.828770 0.986010 0.996670 1.225360
O20   O     O_3   0.103730 0.054750 0.996710 -0.290147
N1    N     N_R   0.885169 0.228127 0.638269 0.094589
O21   O     O_R   0.811952 0.206700 0.568020 -0.324964
O22   O     O_R   0.068429 0.216139 0.650649 -0.336206
C35   C     C_3   0.554340 0.384573 0.764305 -0.276368
C36   C     C_3   0.706597 0.430995 0.817402 -0.230352
C37   C     C_3   0.617036 0.486915 0.886371 -0.374313
H15   H     H_    0.541090 0.547187 0.861122 0.153328
H16   H     H_    0.515450 0.444874 0.922540 0.130440
H17   H     H_    0.732128 0.511581 0.927436 0.144369
H18   H     H_    0.804620 0.379306 0.844365 0.122559
H19   H     H_    0.793138 0.477167 0.778473 0.132929
H20   H     H_    0.455381 0.437917 0.741200 0.130172
H21   H     H_    0.464710 0.337927 0.801101 0.125588
N2    N     N_R   0.976576 0.264463 0.330007 0.097759
O23   O     O_R   0.133210 0.271662 0.286783 -0.408904
O24   O     O_R   0.989500 0.239050 0.405689 -0.271289
N3    N     N_R   0.137333 0.724520 0.980482 0.028895
O25   O     O_R   0.301631 0.740408 0.015232 -0.386203
O26   O     O_R   0.982000 0.722400 0.025018 -0.400029
N4    N     N_R   0.223945 0.000275 0.764503 0.078011
O27   O     O_R   0.154833 0.079763 0.784086 -0.376634
O28   O     O_R   0.408897 0.986254 0.767807 -0.375765
N5    N     N_R   0.062196 0.769157 0.515069 0.044541
O29   O     O_R   0.902695 0.754020 0.476257 -0.366647
O30   O     O_R   0.223007 0.771931 0.474276 -0.390180

loop_
_geom_bond_atom_site_label_1
_geom_bond_atom_site_label_2
_geom_bond_distance
_ccdc_geom_bond_type
C30   H14   1.081027 S    
N1    O22   1.300615 A    
N1    O21   1.301002 A    
C6    C7    1.377591 A    
C2    C30   1.491365 S    
C1    O6    1.296791 A    
C35   H20   1.107835 S    
C8    N3    1.417498 S    
C36   C37   1.524260 S    
C12   C15   1.424080 A    
C13   C14   1.428540 A    
C27   C29   1.501703 S    
C15   C16   1.389292 A    
O13   V3    2.011294 S    
O5    C3    1.299498 A    
C17   C18   1.393542 A    
C37   H16   1.111193 S    
C36   H19   1.110445 S    
O12   C31   1.298980 A    
V2    O10   2.166096 S    
O14   C32   1.293953 A    
C5    C6    1.382145 A    
O16   V4    2.016822 S    
C3    C20   1.485405 S    
O19   V4    2.010930 S    
O8    V2    2.010990 S    
O14   V3    2.012254 S    
O12   V3    2.022385 S    
V3    O20   1.704924 S    
N5    O29   1.300668 A    
C27   H12   1.086266 S    
C11   C12   1.429115 A    
O1    V2    2.013091 S    
C10   C14   1.417147 A    
C4    C14   1.499006 S    
N3    O26   1.300289 A    
O7    V1    2.152932 S    
O18   V4    2.010637 S    
C7    H4    1.083451 S    
C21   H8    1.086060 S    
C13   C18   1.429826 A    
O9    C4    1.307544 A    
H1    C17   1.083696 S    
C22   H9    1.082670 S    
C23   H10   1.082265 S    
O11   C32   1.298044 A    
C24   H11   1.086451 S    
O15   V3    2.019627 S    
C5    C10   1.417355 A    
C19   C21   1.495669 S    
C35   C36   1.535702 S    
C6    H3    1.082732 S    
O4    C2    1.300114 A    
N2    O23   1.300415 A    
C12   C13   1.431469 A    
O17   V4    1.713338 S    
C24   C32   1.473189 S    
O18   C33   1.307800 A    
C28   H13   1.082575 S    
O2    C1    1.294391 A    
C16   C17   1.375620 A    
N4    O28   1.300805 A    
C27   C28   1.350208 D    
C26   C35   1.521956 S    
C15   N4    1.424570 S    
O11   V4    2.010554 S    
O3    C4    1.295338 A    
C18   N5    1.417387 S    
C21   C22   1.348581 D    
O6    V2    2.010159 S    
O9    V2    2.010673 S    
C9    C11   1.437408 A    
C5    H2    1.080922 S    
O2    V1    2.012216 S    
C23   C24   1.339330 D    
C29   N2    1.436849 S    
C29   C30   1.361557 D    
C19   C20   1.350988 D    
O1    C2    1.300125 A    
C25   N1    1.435109 S    
O5    V1    2.011221 S    
O8    C3    1.300829 A    
N5    O30   1.299834 A    
C16   H5    1.079711 S    
O15   C33   1.299931 A    
C1    C26   1.481077 S    
C31   O16   1.298951 A    
C19   H6    1.086025 S    
O7    V2    1.714563 S    
O4    V1    2.022270 S    
C20   H7    1.082599 S    
O3    V1    2.019644 S    
V1    O10   1.704962 S    
C37   H15   1.109925 S    
C37   H17   1.110107 S    
C36   H18   1.110763 S    
C25   C26   1.364233 D    
N4    O27   1.298648 A    
N2    O24   1.301013 A    
O19   C34   1.303862 A    
C11   C33   1.509954 S    
O13   C34   1.295829 A    
V4    O20   2.166015 S    
C7    C8    1.397376 A    
O17   V3    2.152959 S    
C9    C10   1.433647 A    
C28   C31   1.485612 S    
N3    O25   1.300362 A    
C8    C9    1.431298 A    
C35   H21   1.107057 S    
C23   C25   1.484669 S    
C22   C34   1.484596 S    
