data_mof_unit_23218.cif
_audit_creation_date              2012-12-10T17:05:21-0500
_audit_creation_method            fapswitch 2.2
_symmetry_space_group_name_H-M    P1
_symmetry_Int_Tables_number       1
_space_group_crystal_system       triclinic
_cell_length_a                    10.026713
_cell_length_b                    10.603734
_cell_length_c                    15.383167
_cell_angle_alpha                 90.220289
_cell_angle_beta                  67.544622
_cell_angle_gamma                 91.755347
_cell_volume                      1510.77191849

loop_
_atom_site_label
_atom_site_type_symbol
_atom_type_description
_atom_site_fract_x
_atom_site_fract_y
_atom_site_fract_z
_atom_type_partial_charge
C1    C     C_R   0.501435 0.737919 0.501824 0.949139
C2    C     C_R   0.443899 0.578866 0.900391 0.091161
C3    C     C_R   0.326941 0.660032 0.941927 0.141797
C4    C     C_R   0.552472 0.569758 0.937879 0.018892
C5    C     C_R   0.529645 0.622099 0.026933 0.073016
C6    C     C_R   0.419148 0.710695 0.062414 -0.182380
C7    C     C_R   0.318969 0.727979 0.021552 -0.210625
C8    C     C_R   0.685280 0.513778 0.887232 -0.229047
C9    C     C_R   0.782982 0.490416 0.928549 0.354246
C10   C     C_R   0.746000 0.515453 0.024451 0.009236
C11   C     C_R   0.617589 0.581505 0.075809 0.000354
C12   C     C_R   0.409698 0.501999 0.676441 0.902592
C13   C     C_R   0.831635 0.469893 0.070683 -0.142412
C14   C     C_R   0.782424 0.471060 0.167834 -0.224917
C15   C     C_R   0.574140 0.589437 0.175314 0.174564
C16   C     C_2   0.555326 0.066526 0.568493 0.276701
C17   C     C_2   0.461832 0.133526 0.544683 0.015977
C18   C     C_2   0.537868 0.929996 0.573925 0.419381
C19   C     C_2   0.508167 0.871366 0.505696 -0.390562
C20   C     C_2   0.101193 0.421663 0.451404 -0.138733
C21   C     C_2   0.955492 0.429052 0.445084 0.440646
C22   C     C_R   0.491203 0.262654 0.511227 0.929739
C23   C     C_R   0.590535 0.505718 0.323474 0.874261
C24   C     C_R   0.357431 0.532112 0.776253 -0.053715
C25   C     C_R   0.650095 0.522969 0.220753 -0.104622
C26   C     C_R   0.223630 0.674279 0.900765 0.190817
C27   C     C_R   0.241629 0.611681 0.816817 -0.149559
C28   C     C_R   0.449039 0.508112 0.822442 -0.225298
H1    H     H_    0.235227 0.795316 0.052990 0.184138
H2    H     H_    0.932250 0.424143 0.032999 0.208057
H3    H     H_    0.494055 0.922830 0.449006 0.144039
H4    H     H_    0.172506 0.349196 0.411129 0.208730
H5    H     H_    0.085523 0.572775 0.531866 0.171607
H6    H     H_    0.868769 0.547375 0.552134 0.147417
H7    H     H_    0.845071 0.425576 0.201835 0.215947
H8    H     H_    0.171140 0.632146 0.780362 0.188105
H9    H     H_    0.529439 0.437896 0.792609 0.170159
H10   H     H_    0.411730 0.774534 0.118167 0.195998
H11   H     H_    0.717553 0.489782 0.813917 0.193336
N1    N     N_2   0.148330 0.498670 0.499030 -0.201872
N2    N     N_2   0.852680 0.498640 0.499000 -0.199722
O1    O     O_R   0.386950 0.680940 0.500010 -0.599075
O2    O     O_R   0.613110 0.680900 0.499990 -0.576296
O3    O     O_R   0.322330 0.500030 0.632270 -0.588128
O4    O     O_R   0.548480 0.499990 0.632240 -0.596718
O5    O     O_R   0.386890 0.319100 0.500010 -0.560622
O6    O     O_R   0.613050 0.319060 0.499990 -0.538167
O7    O     O_R   0.451520 0.500010 0.367760 -0.620008
O8    O     O_R   0.677670 0.499970 0.367730 -0.574608
Zn1   Zn    Zn3+2 0.349000 0.500030 0.500020 1.011381
Zn2   Zn    Zn3+2 0.651000 0.499970 0.499980 1.055923
Cl1   Cl    Cl    0.711129 0.131131 0.582021 -0.469473
Cl2   Cl    Cl    0.284660 0.071740 0.565373 -0.549410
Cl3   Cl    Cl    0.562097 0.848587 0.666864 -0.549582
Cl4   Cl    Cl    0.925457 0.333365 0.360566 -0.568245
N3    N     N_2   0.451644 0.658936 0.230154 -0.329568
H12   H     H_    0.360128 0.607910 0.270947 0.261123
C29   C     C_3   0.482467 0.775046 0.269731 -0.748676
H13   H     H_    0.550738 0.840104 0.212548 0.243462
H14   H     H_    0.540534 0.756271 0.316465 0.222805
H15   H     H_    0.380050 0.821816 0.310655 0.256326
Cl5   Cl    Cl    0.943556 0.415885 0.858852 -0.625457
N4    N     N_2   0.106427 0.756577 0.940133 -0.334528
H16   H     H_    0.011723 0.721585 0.936212 0.245741
C30   C     C_3   0.139098 0.884939 0.905121 -0.677857
H17   H     H_    0.045554 0.944455 0.942902 0.249437
H18   H     H_    0.160935 0.888260 0.828639 0.267554
H19   H     H_    0.234592 0.924425 0.917024 0.256077

loop_
_geom_bond_atom_site_label_1
_geom_bond_atom_site_label_2
_ccdc_geom_bond_type
C8    C9    A    
C2    C4    A    
C26   N4    S    
C6    H10   S    
C6    C7    A    
C7    H1    S    
C8    H11   S    
C27   H8    S    
C1    O2    A    
C9    C10   A    
C12   C24   S    
C17   C22   S    
C24   C27   A    
C4    C8    A    
C30   H19   S    
C19   H3    S    
N4    C30   S    
C29   H15   S    
O7    Zn1   S    
C2    C3    A    
C21   Cl4   S    
C12   O3    A    
C13   C14   A    
C15   N3    S    
O2    Zn2   S    
C26   C27   A    
C16   C17   D    
H6    N2    S    
C28   H9    S    
O1    Zn1   S    
O4    Zn2   S    
C21   N2    D    
C16   C18   S    
C22   O5    A    
N3    C29   S    
C5    C11   A    
C3    C7    A    
C23   C25   S    
C14   C25   A    
C5    C6    A    
C20   N1    D    
C22   O6    A    
C23   O8    A    
H5    N1    S    
C15   C25   A    
C10   C11   A    
C18   Cl3   S    
C29   H14   S    
C9    Cl5   S    
C17   Cl2   S    
N1    Zn1   S    
C1    O1    A    
C20   C21   S    
C24   C28   A    
C16   Cl1   S    
C30   H17   S    
C20   H4    S    
C12   O4    A    
O3    Zn1   S    
C14   H7    S    
N3    H12   S    
O5    Zn1   S    
C18   C19   D    
C2    C28   A    
C23   O7    A    
C30   H18   S    
C29   H13   S    
C13   H2    S    
C1    C19   S    
C11   C15   A    
N2    Zn2   S    
C3    C26   A    
O6    Zn2   S    
N4    H16   S    
C4    C5    A    
O8    Zn2   S    
C10   C13   A    
