data_mof_unit_27859.cif
_audit_creation_date              2012-12-11T16:16:54-0500
_audit_creation_method            fapswitch 2.2
_symmetry_space_group_name_H-M    P1
_symmetry_Int_Tables_number       1
_space_group_crystal_system       triclinic
_cell_length_a                    13.40532
_cell_length_b                    13.343955
_cell_length_c                    28.526571
_cell_angle_alpha                 89.992407
_cell_angle_beta                  89.981872
_cell_angle_gamma                 119.843324
_cell_volume                      4426.14258071

loop_
_atom_site_label
_atom_site_type_symbol
_atom_type_description
_atom_site_fract_x
_atom_site_fract_y
_atom_site_fract_z
_atom_type_partial_charge
C1    C     C_R   0.438019 0.550151 0.316477 0.543183
C2    C     C_R   0.549986 0.438703 0.683745 0.551046
C3    C     C_R   0.561557 0.111425 0.816183 0.550486
C4    C     C_R   0.888695 0.450087 0.683692 0.552360
C5    C     C_1   0.062136 0.525704 0.361707 0.136413
C6    C     C_1   0.464817 0.938346 0.138487 0.146930
C7    C     C_1   0.472852 0.536228 0.361997 0.131614
C8    C     C_1   0.061822 0.526344 0.138298 0.149915
C9    C     C_1   0.463212 0.937119 0.361839 0.123732
C10   C     C_1   0.471931 0.533280 0.138357 0.144203
C11   C     C_1   0.525909 0.060666 0.861205 0.136853
C12   C     C_R   0.111446 0.561360 0.183665 0.556451
C13   C     C_1   0.939550 0.466061 0.638491 0.138112
C14   C     C_1   0.535863 0.473808 0.861629 0.117224
C15   C     C_1   0.527124 0.060394 0.638589 0.115694
C16   C     C_1   0.939646 0.464428 0.861478 0.140396
C17   C     C_1   0.533779 0.474350 0.638694 0.132762
C18   C     C_R   0.054824 0.434272 0.478704 0.253023
C19   C     C_R   0.439403 0.047347 0.026849 0.230331
C20   C     C_R   0.558679 0.621692 0.479231 0.241717
C21   C     C_R   0.955143 0.387151 0.027255 0.188151
C22   C     C_R   0.380657 0.927865 0.479858 0.213407
C23   C     C_R   0.449608 0.887988 0.316421 0.545429
C24   C     C_R   0.592815 0.509089 0.029483 0.197161
C25   C     C_R   0.432157 0.048145 0.977406 0.260698
C26   C     C_R   0.055510 0.444539 0.528126 0.262635
C27   C     C_R   0.611010 0.524358 0.980451 0.204889
C28   C     C_R   0.394074 0.929434 0.529132 0.186102
C29   C     C_R   0.954646 0.379307 0.977625 0.220298
C30   C     C_R   0.548047 0.611349 0.528633 0.249248
C31   C     C_R   0.947838 0.549274 0.521431 0.230879
C32   C     C_R   0.545491 0.948205 0.971784 0.245712
C33   C     C_R   0.456659 0.399750 0.521526 0.242633
C34   C     C_R   0.438360 0.549684 0.183744 0.560213
C35   C     C_R   0.056005 0.591542 0.971655 0.273317
C36   C     C_R   0.600256 0.069865 0.520440 0.220168
C37   C     C_R   0.416951 0.496908 0.970152 0.198416
C38   C     C_R   0.530807 0.926430 0.020682 0.253449
C39   C     C_R   0.948646 0.540546 0.471963 0.205297
C40   C     C_R   0.400606 0.485737 0.019387 0.208084
C41   C     C_R   0.586997 0.067061 0.471118 0.198533
C42   C     C_R   0.054785 0.599879 0.021118 0.237945
C43   C     C_R   0.466939 0.410199 0.472163 0.219024
C44   C     C_R   0.007150 0.488258 0.451254 -0.000553
C45   C     C_R   0.111726 0.561478 0.316394 0.551280
C46   C     C_R   0.483966 0.982157 0.047863 -0.059298
C47   C     C_R   0.511060 0.520321 0.451622 -0.033107
C48   C     C_R   0.009818 0.497666 0.048333 -0.048673
C49   C     C_R   0.478678 0.991493 0.451421 0.000350
C50   C     C_R   0.492205 0.500548 0.048521 -0.032518
C51   C     C_R   0.491490 0.004969 0.950521 -0.049407
C52   C     C_R   0.995290 0.494783 0.548852 -0.003577
C53   C     C_R   0.520357 0.511500 0.951282 -0.005949
C54   C     C_R   0.501877 0.006232 0.548838 0.000031
C55   C     C_R   0.999366 0.481442 0.950555 -0.008824
C56   C     C_R   0.450204 0.889242 0.183934 0.556124
C57   C     C_R   0.503759 0.501183 0.549187 -0.027418
C58   C     C_1   0.970391 0.479810 0.598320 0.172551
C59   C     C_1   0.506010 0.029895 0.901269 0.152145
C60   C     C_1   0.519537 0.491695 0.598606 0.166180
C61   C     C_1   0.971679 0.473171 0.901369 0.172313
C62   C     C_1   0.510754 0.030059 0.598368 0.133541
C63   C     C_1   0.527610 0.494971 0.901832 0.132837
C64   C     C_1   0.474838 0.964658 0.097836 0.167776
C65   C     C_1   0.032196 0.504205 0.401856 0.166635
C66   C     C_1   0.486107 0.518047 0.098001 0.147210
C67   C     C_R   0.550164 0.438463 0.816317 0.552949
C68   C     C_1   0.470990 0.966604 0.402034 0.150353
C69   C     C_1   0.032508 0.508323 0.097971 0.180355
C70   C     C_1   0.494135 0.528243 0.402232 0.172984
C71   C     C_R   0.561602 0.111265 0.683775 0.553899
C72   C     C_R   0.888277 0.449787 0.816428 0.553030
Cr1   Cr    Cr6+3 0.505050 0.756260 0.250000 1.145255
Cr2   Cr    Cr6+3 0.251210 0.494950 0.250000 1.146848
Cr3   Cr    Cr6+3 0.243740 0.748790 0.250000 1.147485
Cr4   Cr    Cr6+3 0.756260 0.505050 0.750000 1.135726
Cr5   Cr    Cr6+3 0.494950 0.251210 0.750000 1.117987
Cr6   Cr    Cr6+3 0.748790 0.243740 0.750000 1.140084
H1    H     H_    0.105858 0.189404 0.463170 0.400019
H2    H     H_    0.250395 0.957329 0.598922 0.339052
H3    H     H_    0.987322 0.145779 0.963827 0.361680
H4    H     H_    0.732527 0.861587 0.601161 0.389977
H5    H     H_    0.899193 0.795038 0.538566 0.401072
H6    H     H_    0.780890 0.888355 0.949196 0.373388
H7    H     H_    0.235475 0.092840 0.534475 0.361199
H8    H     H_    0.095300 0.832366 0.897915 0.390404
H9    H     H_    0.848474 0.094260 0.515029 0.380405
H10   H     H_    0.259690 0.328838 0.905105 0.342250
H11   H     H_    0.661546 0.745417 0.026746 0.357698
H12   H     H_    0.342089 0.252781 0.050066 0.371255
H13   H     H_    0.706058 0.483209 0.470769 0.335240
H14   H     H_    0.165344 0.283275 0.009286 0.353396
H15   H     H_    0.717331 0.313231 0.471254 0.355332
H16   H     H_    0.069659 0.875913 0.038026 0.394614
H17   H     H_    0.492450 0.264808 0.367409 0.389492
H18   H     H_    0.792514 0.922264 0.465256 0.380420
H19   H     H_    0.710448 0.189761 0.033584 0.356117
H20   H     H_    0.142119 0.916898 0.485487 0.371582
H21   H     H_    0.799918 0.449987 0.026027 0.368493
H22   H     H_    0.201920 0.120987 0.964800 0.352916
H23   H     H_    0.106924 0.250050 0.601272 0.390231
H24   H     H_    0.852167 0.718686 0.996190 0.374549
O1    O     O_R   0.530190 0.870330 0.301660 -0.470709
O2    O     O_R   0.870330 0.530190 0.698340 -0.469900
O3    O     O_R   0.469810 0.340140 0.801660 -0.487373
O4    O     O_R   0.659860 0.129670 0.698340 -0.466516
O5    O     O_R   0.494300 0.651190 0.297490 -0.482605
O6    O     O_R   0.156890 0.505700 0.202510 -0.479792
O7    O     O_R   0.348810 0.843110 0.297490 -0.484526
O8    O     O_R   0.494300 0.651190 0.202510 -0.482199
O9    O     O_R   0.156890 0.505700 0.297490 -0.485118
O10   O     O_R   0.348810 0.843110 0.202510 -0.484505
O11   O     O_R   0.651190 0.494300 0.797490 -0.475950
O12   O     O_R   0.340140 0.469810 0.198340 -0.465455
O13   O     O_R   0.505700 0.156890 0.702510 -0.493222
O14   O     O_R   0.843110 0.348810 0.797490 -0.482005
O15   O     O_R   0.651190 0.494300 0.702510 -0.486131
O16   O     O_R   0.505700 0.156890 0.797490 -0.486590
O17   O     O_R   0.843110 0.348810 0.702510 -0.484866
O18   O     O_3   0.333333 0.666667 0.250000 -0.304717
O19   O     O_3   0.666667 0.333333 0.750000 -0.298425
O20   O     O_2   0.042467 0.299661 0.405302 -0.234764
O21   O     O_2   0.232188 0.426117 0.439136 -0.273322
O22   O     O_3   0.090165 0.239156 0.484098 -0.396792
O23   O     O_R   0.129670 0.659860 0.301660 -0.467273
O24   O     O_2   0.271832 0.046702 0.078254 -0.211879
O25   O     O_2   0.467969 0.169336 0.106543 -0.225681
O26   O     O_3   0.403103 0.241499 0.035778 -0.459220
O27   O     O_2   0.691469 0.747217 0.406167 -0.219851
O28   O     O_2   0.560397 0.805207 0.440152 -0.288328
O29   O     O_3   0.747647 0.853614 0.485345 -0.429917
O30   O     O_2   0.959148 0.216095 0.075542 -0.134199
O31   O     O_2   0.841435 0.290764 0.108733 -0.251236
O32   O     O_3   0.762295 0.157339 0.037187 -0.405466
O33   O     O_2   0.239498 0.909150 0.408028 -0.249712
O34   O     O_R   0.530190 0.870330 0.198340 -0.466828
O35   O     O_2   0.220395 0.731680 0.440880 -0.271431
O36   O     O_3   0.137552 0.840682 0.487692 -0.385958
O37   O     O_2   0.788170 0.594439 0.080282 -0.234436
O38   O     O_2   0.623328 0.420570 0.110724 -0.194399
O39   O     O_3   0.722900 0.396834 0.038523 -0.455334
O40   O     O_2   0.422281 0.226519 0.938879 -0.293385
O41   O     O_2   0.302453 0.038055 0.902389 -0.277577
O42   O     O_3   0.233581 0.076957 0.980779 -0.430626
O43   O     O_2   0.243774 0.421644 0.539254 -0.203631
O44   O     O_2   0.177435 0.478507 0.608152 -0.247902
O45   O     O_R   0.340140 0.469810 0.301660 -0.476391
O46   O     O_3   0.057230 0.265808 0.580447 -0.430549
O47   O     O_2   0.751711 0.460890 0.940574 -0.283361
O48   O     O_2   0.765618 0.639144 0.911357 -0.255454
O49   O     O_3   0.855697 0.646947 0.991524 -0.465211
O50   O     O_2   0.210671 0.716828 0.541598 -0.181742
O51   O     O_2   0.329716 0.804736 0.609995 -0.224317
O52   O     O_3   0.198058 0.884190 0.582571 -0.450948
O53   O     O_2   0.775210 0.193912 0.940238 -0.240247
O54   O     O_2   0.959401 0.259224 0.901477 -0.248991
O55   O     O_3   0.924786 0.151054 0.980062 -0.368354
O56   O     O_R   0.129670 0.659860 0.198340 -0.465801
O57   O     O_2   0.563101 0.820197 0.539789 -0.225530
O58   O     O_2   0.503830 0.693950 0.607886 -0.233456
O59   O     O_3   0.718143 0.792156 0.583183 -0.471824
O60   O     O_2   0.769990 0.553032 0.562912 -0.299889
O61   O     O_2   0.960598 0.684759 0.594502 -0.221920
O62   O     O_3   0.904366 0.740388 0.516591 -0.368080
O63   O     O_2   0.558933 0.781384 0.924382 -0.200051
O64   O     O_2   0.675721 0.975496 0.893004 -0.234207
O65   O     O_3   0.746663 0.925965 0.968076 -0.403491
O66   O     O_2   0.462637 0.220121 0.560334 -0.307877
O67   O     O_R   0.870330 0.530190 0.801660 -0.474252
O68   O     O_2   0.326161 0.270394 0.594618 -0.277465
O69   O     O_3   0.273047 0.164417 0.515494 -0.428223
O70   O     O_2   0.241427 0.804365 0.960373 -0.196547
O71   O     O_2   0.172942 0.684467 0.890714 -0.252684
O72   O     O_3   0.051649 0.772607 0.921865 -0.418034
O73   O     O_2   0.755602 0.264312 0.562590 -0.282594
O74   O     O_2   0.742489 0.086157 0.591325 -0.269779
O75   O     O_3   0.847156 0.167674 0.513203 -0.387359
O76   O     O_2   0.255031 0.557222 0.955235 -0.154623
O77   O     O_2   0.368194 0.566585 0.887496 -0.222981
O78   O     O_R   0.469810 0.340140 0.698340 -0.471754
O79   O     O_3   0.214636 0.364254 0.916676 -0.468498
O80   O     O_2   0.681030 0.908266 0.076800 -0.196539
O81   O     O_2   0.480028 0.757462 0.084221 -0.281761
O82   O     O_3   0.592757 0.745759 0.014287 -0.483530
O83   O     O_2   0.942000 0.707411 0.421502 -0.116732
O84   O     O_2   0.828875 0.511077 0.391252 -0.237795
O85   O     O_3   0.750086 0.566225 0.462633 -0.434261
O86   O     O_2   0.248498 0.386635 0.091685 -0.281894
O87   O     O_2   0.256776 0.552852 0.052170 -0.213666
O88   O     O_3   0.157607 0.353309 0.010084 -0.449138
O89   O     O_R   0.659860 0.129670 0.801660 -0.464150
O90   O     O_2   0.777485 0.118077 0.421838 -0.179057
O91   O     O_2   0.654622 0.187216 0.388892 -0.249888
O92   O     O_3   0.775686 0.293161 0.460889 -0.457769
O93   O     O_2   0.039467 0.720724 0.094617 -0.252940
O94   O     O_2   0.230036 0.784266 0.061992 -0.237156
O95   O     O_3   0.090920 0.831648 0.016335 -0.384468
O96   O     O_2   0.456290 0.203204 0.460622 -0.252373
O97   O     O_2   0.313060 0.234033 0.419530 -0.198997
O98   O     O_3   0.522112 0.333967 0.387738 -0.496267
S1    S     S_3+6 0.106907 0.349639 0.450232 0.129925
S2    S     S_3+6 0.281850 0.829269 0.566607 0.116249
S3    S     S_3+6 0.901853 0.243923 0.948293 0.130812
S4    S     S_3+6 0.580659 0.732108 0.565478 0.114984
S5    S     S_3+6 0.893845 0.632102 0.550282 0.117197
S6    S     S_3+6 0.631367 0.906562 0.937356 0.144735
S7    S     S_3+6 0.379570 0.261607 0.549584 0.078536
S8    S     S_3+6 0.135516 0.716026 0.935363 0.147688
S9    S     S_3+6 0.738146 0.148497 0.548129 0.077606
S10   S     S_3+6 0.313261 0.499977 0.931549 0.116362
S11   S     S_3+6 0.572117 0.833488 0.050028 0.104857
S12   S     S_3+6 0.394076 0.126244 0.063431 0.124982
S13   S     S_3+6 0.867858 0.582880 0.435139 0.144511
S14   S     S_3+6 0.264390 0.445419 0.045112 0.057331
S15   S     S_3+6 0.700111 0.165925 0.433702 0.116872
S16   S     S_3+6 0.105435 0.736159 0.050007 0.129275
S17   S     S_3+6 0.436247 0.290015 0.435227 0.083586
S18   S     S_3+6 0.639590 0.759083 0.451108 0.121383
S19   S     S_3+6 0.879979 0.261833 0.063751 0.146712
S20   S     S_3+6 0.242716 0.850690 0.452623 0.096512
S21   S     S_3+6 0.684126 0.482416 0.066627 0.107152
S22   S     S_3+6 0.347601 0.099480 0.948283 0.088999
S23   S     S_3+6 0.138668 0.405056 0.564700 0.133494
S24   S     S_3+6 0.747725 0.567352 0.954509 0.029337

loop_
_geom_bond_atom_site_label_1
_geom_bond_atom_site_label_2
_ccdc_geom_bond_type
Cr4   O2    S    
H5    O62   S    
O85   S13   S    
H23   O46   S    
C29   S3    S    
C49   C68   S    
O59   S4    S    
H15   O92   S    
O97   S17   D    
C24   C27   A    
C31   C52   A    
O41   S22   D    
C44   C65   S    
C19   C46   A    
Cr1   O8    S    
C32   C51   A    
C20   C30   A    
C24   S21   S    
O74   S9    D    
O77   S10   D    
Cr3   O10   S    
O31   S19   D    
Cr4   O67   S    
H20   O36   S    
O29   S18   S    
Cr4   O19   S    
O20   S1    D    
O46   S23   S    
C31   S5    S    
C37   C40   A    
C26   C52   A    
O62   S5    S    
C41   S15   S    
O53   S3    D    
O38   S21   D    
Cr1   O5    S    
O33   S20   D    
O81   S11   D    
O32   S19   S    
Cr2   O12   S    
C30   C57   A    
C40   C50   A    
O49   S24   S    
O76   S10   D    
O40   S22   D    
O75   S9    S    
C4    C13   S    
O28   S18   D    
Cr6   O19   S    
C12   O56   A    
C22   S20   S    
C8    C69   T    
C56   O34   A    
C23   O1    A    
C45   O23   A    
H17   O98   S    
C16   C72   S    
C6    C64   T    
C14   C67   S    
C4    O17   A    
O55   S3    S    
O47   S24   D    
C32   C38   A    
C38   S11   S    
C18   S1    S    
C43   C47   A    
O63   S6    D    
C48   C69   S    
O90   S15   D    
O42   S22   S    
H24   O49   S    
C21   C48   A    
C37   C53   A    
O37   S21   D    
C28   C54   A    
O36   S20   S    
Cr1   O18   S    
C22   C28   A    
C2    C17   S    
O72   S8    S    
O98   S17   S    
O50   S2    D    
C36   C41   A    
C43   S17   S    
C2    O78   A    
H19   O32   S    
C7    C70   T    
C11   C59   T    
C41   C49   A    
O52   S2    S    
C2    O15   A    
H14   O88   S    
O91   S15   D    
C10   C66   T    
C24   C50   A    
C23   O7    A    
Cr6   O14   S    
Cr3   O7    S    
Cr5   O78   S    
H3    O55   S    
O21   S1    D    
C35   C55   A    
C19   S12   S    
C33   C43   A    
O65   S6    S    
Cr2   O45   S    
O70   S8    D    
C3    C11   S    
C5    C65   T    
Cr5   O16   S    
H22   O42   S    
Cr2   O9    S    
C12   O6    A    
Cr5   O19   S    
O86   S14   D    
C9    C23   S    
C57   C60   S    
C13   C58   T    
C29   C55   A    
O64   S6    D    
C21   C29   A    
O61   S5    D    
C46   C64   S    
O79   S10   S    
H8    O72   S    
C25   C51   A    
C47   C70   S    
O27   S18   D    
C3    O16   A    
C18   C44   A    
H9    O75   S    
O30   S19   D    
O88   S14   S    
H11   O82   S    
O25   S12   D    
Cr1   O34   S    
C8    C12   S    
C18   C26   A    
C27   C53   A    
Cr4   O11   S    
C27   S24   S    
O66   S7    D    
C71   O13   A    
C25   S22   S    
C10   C34   S    
C42   C48   A    
C50   C66   S    
O93   S16   D    
O95   S16   S    
C52   C58   S    
C1    O5    A    
C22   C49   A    
Cr3   O56   S    
H18   O29   S    
O60   S5    D    
C34   O8    A    
C1    O45   A    
O96   S17   D    
C51   C59   S    
C16   C61   T    
C55   C61   S    
O69   S7    S    
O92   S15   S    
C30   S4    S    
O82   S11   S    
O51   S2    D    
H13   O85   S    
C33   S7    S    
C33   C57   A    
C72   O14   A    
C1    C7    S    
O48   S24   D    
H21   O39   S    
C67   O3    A    
Cr3   O18   S    
C6    C56   S    
O84   S13   D    
O58   S4    D    
O57   S4    D    
C45   O9    A    
H2    O52   S    
C39   C44   A    
O43   S23   D    
H4    O59   S    
C34   O12   A    
C15   C71   S    
H1    O22   S    
C36   S9    S    
Cr4   O15   S    
O22   S1    S    
Cr6   O4    S    
C39   S13   S    
C28   S2    S    
C72   O67   A    
H16   O95   S    
Cr5   O3    S    
Cr6   O17   S    
Cr6   O89   S    
C9    C68   T    
O68   S7    D    
H6    O65   S    
O24   S12   D    
O26   S12   S    
C20   S18   S    
O44   S23   D    
C53   C63   S    
H10   O79   S    
C5    C45   S    
O94   S16   D    
C14   C63   T    
C4    O2    A    
O35   S20   D    
O80   S11   D    
C35   C42   A    
C15   C62   T    
O83   S13   D    
O71   S8    D    
O73   S9    D    
C67   O11   A    
C3    O89   A    
C19   C25   A    
C37   S10   S    
C38   C46   A    
C20   C47   A    
C42   S16   S    
O87   S14   D    
C17   C60   T    
Cr2   O6    S    
Cr2   O18   S    
H7    O69   S    
C35   S8    S    
Cr1   O1    S    
C21   S19   S    
C71   O4    A    
C40   S14   S    
C26   S23   S    
C31   C39   A    
H12   O26   S    
C54   C62   S    
C36   C54   A    
Cr3   O23   S    
Cr5   O13   S    
O54   S3    D    
C32   S6    S    
C56   O10   A    
O39   S21   S    
