data_mof_unit_16630.cif
_audit_creation_date              2012-12-10T16:56:32-0500
_audit_creation_method            fapswitch 2.2
_symmetry_space_group_name_H-M    P1
_symmetry_Int_Tables_number       1
_space_group_crystal_system       triclinic
_cell_length_a                    10.884379
_cell_length_b                    10.950759
_cell_length_c                    9.708902
_cell_angle_alpha                 90.492138
_cell_angle_beta                  90.034343
_cell_angle_gamma                 93.068003
_cell_volume                      1155.52358717

loop_
_atom_site_label
_atom_site_type_symbol
_atom_type_description
_atom_site_fract_x
_atom_site_fract_y
_atom_site_fract_z
_atom_type_partial_charge
C1    C     C_R   0.504710 0.265585 0.498684 0.949320
C2    C     C_3   0.876012 0.505808 0.499943 -0.184632
C3    C     C_3   0.934950 0.619055 0.580167 0.203955
C4    C     C_3   0.924674 0.504796 0.349010 -0.368519
C5    C     C_2   0.529245 0.933876 0.393363 0.113561
C6    C     C_2   0.491569 0.865644 0.500795 -0.306122
C7    C     C_2   0.494310 0.060409 0.386823 0.429026
C8    C     C_2   0.520532 0.134583 0.496015 -0.502123
C9    C     C_2   0.419234 0.436839 0.924229 0.243914
C10   C     C_2   0.428718 0.427877 0.077594 0.084175
C11   C     C_R   0.259180 0.498191 0.498894 0.940239
C12   C     C_R   0.501089 0.734518 0.500490 0.980778
C13   C     C_R   0.739409 0.505471 0.500066 0.872329
C14   C     C_3   0.058487 0.386241 0.576297 0.260765
C15   C     C_3   0.915622 0.389812 0.576907 -0.132106
C16   C     C_3   0.078207 0.620672 0.567321 -0.199733
C17   C     C_3   0.067080 0.501798 0.339603 0.432282
C18   C     C_3   0.119945 0.499633 0.494269 -0.198313
Cu1   Cu    Cu3+1 0.500030 0.500020 0.638630 1.007142
Cu2   Cu    Cu3+1 0.499970 0.499980 0.361370 1.072711
H1    H     H_    0.087497 0.400213 0.684882 0.083899
H2    H     H_    0.889525 0.582640 0.293232 0.268877
H3    H     H_    0.109225 0.698573 0.502100 0.275890
H4    H     H_    0.443363 0.905914 0.586582 0.125862
H5    H     H_    0.563329 0.097767 0.586841 0.137594
H6    H     H_    0.575673 0.538228 0.893748 0.188517
H7    H     H_    0.367586 0.361764 0.127968 0.206157
H8    H     H_    0.549853 0.567932 0.106199 0.199697
H9    H     H_    0.887986 0.398675 0.687120 0.146693
H10   H     H_    0.909944 0.606559 0.690431 0.125976
H11   H     H_    0.880124 0.426489 0.291325 0.158335
N1    N     N_2   0.498630 0.498660 0.846910 -0.298199
N2    N     N_2   0.498590 0.498630 0.153040 -0.307502
O1    O     O_R   0.500020 0.321960 0.617040 -0.595090
O2    O     O_R   0.499980 0.321920 0.382900 -0.519315
O3    O     O_R   0.317710 0.500000 0.617070 -0.576814
O4    O     O_R   0.317670 0.499960 0.382930 -0.552280
O5    O     O_R   0.500020 0.678080 0.617100 -0.567075
O6    O     O_R   0.499980 0.678040 0.382960 -0.519370
O7    O     O_R   0.682330 0.500040 0.617070 -0.592798
O8    O     O_R   0.682290 0.500000 0.382930 -0.591534
S1    S     S_3+6 0.873675 0.765387 0.539986 0.025590
O9    O     O_2   0.972353 0.866353 0.552645 -0.214418
O10   O     O_2   0.819902 0.766357 0.397703 -0.269473
O11   O     O_3   0.762252 0.792045 0.654485 -0.542568
H12   H     H_    0.740866 0.877465 0.637787 0.371937
N3    N     N_3   0.602754 0.885052 0.285078 -0.482998
H13   H     H_    0.681994 0.942542 0.274963 0.255776
H14   H     H_    0.554414 0.886864 0.192349 0.282196
S2    S     S_3+6 0.410936 0.100578 0.238289 0.022786
O12   O     O_2   0.310329 0.182992 0.276389 -0.247286
O13   O     O_2   0.498052 0.163707 0.138527 -0.328800
O14   O     O_3   0.346615 0.973761 0.163011 -0.496655
H15   H     H_    0.304472 0.003189 0.080152 0.382219
N4    N     N_3   0.313885 0.372024 0.866291 -0.550224
H16   H     H_    0.250920 0.435194 0.836832 0.256277
H17   H     H_    0.339655 0.317925 0.783975 0.294826
S3    S     S_3+6 0.108081 0.232915 0.543847 0.057975
O15   O     O_2   0.049988 0.150848 0.651872 -0.235689
O16   O     O_2   0.069407 0.183435 0.404825 -0.178568
O17   O     O_3   0.260060 0.228388 0.559574 -0.563985
H18   H     H_    0.274092 0.143064 0.586010 0.373461
N5    N     N_3   0.852427 0.275558 0.526464 -0.453922
H19   H     H_    0.761523 0.270445 0.561198 0.200563
H20   H     H_    0.851104 0.270036 0.419325 0.257351
N6    N     N_3   0.137263 0.643173 0.702205 -0.561895
H21   H     H_    0.097522 0.585576 0.776959 0.229286
H22   H     H_    0.121752 0.732652 0.733601 0.280266
S4    S     S_3+6 0.126027 0.633439 0.234401 -0.005908
O18   O     O_2   0.238738 0.698283 0.295347 -0.262087
O19   O     O_2   0.158189 0.588134 0.092960 -0.326764
O20   O     O_3   0.021208 0.739591 0.215754 -0.481240
H23   H     H_    0.060698 0.802222 0.154778 0.401179
N7    N     N_3   0.094230 0.388487 0.265526 -0.493934
H24   H     H_    0.048146 0.384270 0.170811 0.235814
H25   H     H_    0.186783 0.386906 0.240347 0.272743

loop_
_geom_bond_atom_site_label_1
_geom_bond_atom_site_label_2
_ccdc_geom_bond_type
C10   H7    S    
C1    O1    A    
C3    H10   S    
S2    O13   D    
N4    H16   S    
N5    H20   S    
C3    S1    S    
H6    N1    S    
C9    N4    S    
Cu1   O5    S    
Cu2   O4    S    
C16   H3    S    
C1    C8    S    
C4    H2    S    
C9    C10   S    
C14   C18   S    
C2    C4    S    
Cu1   Cu2   S    
C9    N1    D    
C2    C13   S    
C6    H4    S    
S3    O17   S    
C13   O8    A    
C17   C18   S    
S1    O10   D    
C5    C7    S    
C7    C8    D    
N3    H14   S    
O11   H12   S    
C6    C12   S    
C2    C15   S    
C5    N3    S    
C17   N7    S    
N7    H25   S    
C12   O6    A    
C5    C6    D    
Cu1   N1    S    
C14   H1    S    
C16   C18   S    
C11   O3    A    
H8    N2    S    
C15   H9    S    
C10   N2    D    
C2    C3    S    
Cu1   O3    S    
N4    H17   S    
C12   O5    A    
O17   H18   S    
C14   S3    S    
S4    O18   D    
C11   C18   S    
S2    O14   S    
C16   N6    S    
Cu1   O7    S    
Cu2   N2    S    
C8    H5    S    
N5    H19   S    
C4    H11   S    
S4    O20   S    
N6    H21   S    
C1    O2    A    
S4    O19   D    
N7    H24   S    
C7    S2    S    
C11   O4    A    
Cu2   O6    S    
C15   N5    S    
C14   C15   S    
C13   O7    A    
C17   S4    S    
N6    H22   S    
S2    O12   D    
S3    O15   D    
O14   H15   S    
Cu2   O2    S    
S3    O16   D    
Cu1   O1    S    
C3    C16   S    
N3    H13   S    
S1    O9    D    
Cu2   O8    S    
O20   H23   S    
S1    O11   S    
C4    C17   S    
