data_mof_unit_57114.cif
_audit_creation_date              2012-12-10T18:49:54-0500
_audit_creation_method            fapswitch 2.2
_symmetry_space_group_name_H-M    P1
_symmetry_Int_Tables_number       1
_space_group_crystal_system       triclinic
_cell_length_a                    10.682979
_cell_length_b                    9.951225
_cell_length_c                    10.672131
_cell_angle_alpha                 90.07318
_cell_angle_beta                  91.976633
_cell_angle_gamma                 90.787042
_cell_volume                      1133.75687691

loop_
_atom_site_label
_atom_site_type_symbol
_atom_type_description
_atom_site_fract_x
_atom_site_fract_y
_atom_site_fract_z
_atom_type_partial_charge
C1    C     C_R   0.260644 0.499249 0.499146 0.938680
C2    C     C_3   0.623990 0.552740 0.932375 -0.401955
C3    C     C_R   0.060339 0.427772 0.405698 0.012927
C4    C     C_R   0.070137 0.571585 0.592944 0.070409
C5    C     C_R   0.930226 0.429109 0.405931 0.036232
C6    C     C_R   0.940889 0.574568 0.592567 0.005683
C7    C     C_R   0.872104 0.502557 0.499306 -0.081370
C8    C     C_R   0.128200 0.498211 0.499875 -0.054264
C9    C     C_R   0.575159 0.072915 0.582512 0.567924
C10   C     C_R   0.574824 0.929793 0.582771 0.547843
C11   C     C_R   0.422159 0.927641 0.418965 0.060678
C12   C     C_R   0.423441 0.069881 0.418133 0.045491
C13   C     C_R   0.497877 0.499627 0.257636 0.941718
C14   C     C_R   0.739415 0.500886 0.500468 0.897744
C15   C     C_R   0.498590 0.499717 0.741886 0.917690
C16   C     C_3   0.396062 0.597436 0.066517 1.087161
C17   C     C_3   0.467384 0.353615 0.068393 1.050951
C18   C     C_3   0.388292 0.585934 0.922953 -0.458206
C19   C     C_3   0.475564 0.353059 0.926139 -0.421979
C20   C     C_3   0.626707 0.544428 0.076143 -0.522017
C21   C     C_3   0.496400 0.498424 0.120514 -0.180968
C22   C     C_3   0.496748 0.498365 0.878046 -0.137156
H1    H     H_    0.297269 0.538930 0.892409 0.175114
H2    H     H_    0.387934 0.308754 0.882920 0.199890
H3    H     H_    0.391928 0.688080 0.880688 0.229622
H4    H     H_    0.554272 0.288248 0.898391 0.246482
H5    H     H_    0.654141 0.644126 0.116634 0.250517
H6    H     H_    0.699085 0.471883 0.108281 0.223932
H7    H     H_    0.638847 0.658929 0.903017 0.255271
H8    H     H_    0.701986 0.492400 0.896366 0.192249
N1    N     N_R   0.499970 0.857200 0.499970 -0.190122
N2    N     N_R   0.499970 0.142800 0.499970 -0.191662
O1    O     O_R   0.316750 0.614620 0.499990 -0.631541
O2    O     O_R   0.316750 0.385380 0.499990 -0.642030
O3    O     O_R   0.499970 0.614670 0.314790 -0.615055
O4    O     O_R   0.499970 0.385330 0.314790 -0.584039
O5    O     O_R   0.683220 0.614710 0.500010 -0.611836
O6    O     O_R   0.683220 0.385290 0.500010 -0.554390
O7    O     O_R   0.500010 0.614660 0.685200 -0.579062
O8    O     O_R   0.500010 0.385340 0.685200 -0.591822
Zn1   Zn    Zn3+2 0.499980 0.653120 0.500000 1.009743
Zn2   Zn    Zn3+2 0.499980 0.346880 0.500000 1.032186
F1    F     F_    0.429668 0.728570 0.097392 -0.680154
F2    F     F_    0.552517 0.261301 0.116951 -0.658967
N3    N     N_3   0.332390 0.861500 0.335888 -0.379517
H9    H     H_    0.338951 0.758668 0.339788 0.287049
H10   H     H_    0.353171 0.887692 0.244231 0.261460
N4    N     N_3   0.341517 0.133865 0.328469 -0.392116
H11   H     H_    0.338683 0.235733 0.343472 0.291531
H12   H     H_    0.379231 0.120090 0.240506 0.274474
F3    F     F_    0.279607 0.570014 0.114877 -0.674380
F4    F     F_    0.347755 0.313227 0.099761 -0.679925
N5    N     N_3   0.124430 0.359745 0.308588 -0.409894
H13   H     H_    0.098547 0.402191 0.222184 0.254719
H14   H     H_    0.097021 0.258527 0.307970 0.207897
N6    N     N_3   0.143366 0.641710 0.688317 -0.445645
H15   H     H_    0.115843 0.607129 0.775753 0.211252
H16   H     H_    0.122892 0.743985 0.682191 0.227325
N7    N     N_3   0.856162 0.359051 0.311054 -0.423826
H17   H     H_    0.876541 0.256748 0.316120 0.219162
H18   H     H_    0.880607 0.394925 0.223145 0.184302
N8    N     N_3   0.881722 0.648547 0.689042 -0.433100
H19   H     H_    0.836397 0.730217 0.647671 0.280886
H20   H     H_    0.815980 0.586330 0.731219 0.185670
F5    F     F_    0.650700 0.141069 0.665890 -0.613781
F6    F     F_    0.647493 0.864531 0.668640 -0.641084

loop_
_geom_bond_atom_site_label_1
_geom_bond_atom_site_label_2
_ccdc_geom_bond_type
C2    C22   S    
C11   C12   A    
C13   O3    A    
C16   C21   S    
C20   H5    S    
C14   O6    A    
C1    C8    S    
N1    Zn1   S    
C9    C10   A    
N5    H14   S    
O4    Zn2   S    
O2    Zn2   S    
C16   F3    S    
C4    C8    A    
C12   N4    S    
O1    Zn1   S    
C6    N8    S    
N8    H19   S    
O8    Zn2   S    
C19   H2    S    
C17   F2    S    
C13   C21   S    
N7    H17   S    
O7    Zn1   S    
C18   C22   S    
N5    H13   S    
C12   N2    A    
C14   O5    A    
C3    N5    S    
C16   F1    S    
C15   O7    A    
C6    C7    A    
C18   H3    S    
C2    H7    S    
C5    N7    S    
C17   F4    S    
N4    H12   S    
N4    H11   S    
C17   C19   S    
N6    H16   S    
C1    O2    A    
O6    Zn2   S    
C5    C7    A    
C10   F6    S    
O5    Zn1   S    
O3    Zn1   S    
C9    F5    S    
C15   O8    A    
N7    H18   S    
C4    C6    A    
C11   N3    S    
C2    H8    S    
C1    O1    A    
C11   N1    A    
C18   H1    S    
C7    C14   S    
C19   C22   S    
C20   C21   S    
C13   O4    A    
C16   C18   S    
C3    C8    A    
N3    H10   S    
N6    H15   S    
C19   H4    S    
N2    Zn2   S    
N8    H20   S    
C20   H6    S    
C9    N2    A    
N3    H9    S    
C2    C20   S    
C10   N1    A    
C15   C22   S    
C4    N6    S    
C3    C5    A    
C17   C21   S    
