data_mof_unit_36096.cif
_audit_creation_date              2012-12-10T19:25:46-0500
_audit_creation_method            fapswitch 2.2
_symmetry_space_group_name_H-M    P1
_symmetry_Int_Tables_number       1
_space_group_crystal_system       triclinic
_cell_length_a                    9.750301
_cell_length_b                    10.491992
_cell_length_c                    16.603617
_cell_angle_alpha                 89.920704
_cell_angle_beta                  84.933616
_cell_angle_gamma                 89.593187
_cell_volume                      1691.87205641

loop_
_atom_site_label
_atom_site_type_symbol
_atom_type_description
_atom_site_fract_x
_atom_site_fract_y
_atom_site_fract_z
_atom_type_partial_charge
C1    C     C_R   0.499473 0.742563 0.499922 0.867763
C2    C     C_3   0.574608 0.957221 0.433325 -0.181559
C3    C     C_3   0.946784 0.607750 0.525547 -0.063498
C4    C     C_3   0.053260 0.392219 0.474544 -0.066346
C5    C     C_3   0.055017 0.588775 0.453583 -0.072024
C6    C     C_3   0.945018 0.411222 0.546448 -0.075366
C7    C     C_3   0.037733 0.518887 0.571977 -0.089143
C8    C     C_3   0.962402 0.481040 0.428024 -0.090981
C9    C     C_R   0.480421 0.499163 0.653611 0.910553
C10   C     C_R   0.519552 0.492503 0.346816 0.907347
C11   C     C_R   0.467173 0.478964 0.740786 -0.162816
C12   C     C_R   0.500532 0.257463 0.499984 0.871868
C13   C     C_R   0.534457 0.450448 0.262899 -0.168591
C14   C     C_R   0.573391 0.514771 0.787609 0.524247
C15   C     C_R   0.442704 0.360360 0.235677 0.506736
C16   C     C_R   0.565158 0.478870 0.868682 -0.263010
C17   C     C_R   0.469318 0.308622 0.158744 -0.257824
C18   C     C_R   0.456712 0.402963 0.902219 0.024354
C19   C     C_R   0.579127 0.352600 0.106379 0.035399
C20   C     C_R   0.346705 0.371240 0.856246 -0.001793
C21   C     C_R   0.675564 0.438400 0.134578 0.017125
C22   C     C_R   0.353571 0.410569 0.775556 -0.338340
C23   C     C_3   0.368923 0.960911 0.499887 -0.145545
C24   C     C_R   0.651464 0.486193 0.213192 -0.332442
C25   C     C_2   0.455047 0.371531 0.987943 -0.136055
C26   C     C_2   0.570251 0.333711 0.019749 -0.178998
C27   C     C_3   0.806186 0.538593 0.759108 -0.247757
C28   C     C_3   0.209691 0.361093 0.261428 -0.287312
C29   C     C_2   0.225649 0.295316 0.888966 0.927092
C30   C     C_2   0.798789 0.484117 0.083715 0.891908
C31   C     C_3   0.631047 0.039205 0.499895 -0.145101
C32   C     C_3   0.445367 0.043123 0.433340 -0.166360
C33   C     C_3   0.554608 0.957007 0.566442 -0.171237
C34   C     C_3   0.501639 0.122382 0.499914 0.025647
C35   C     C_3   0.498341 0.877710 0.499875 0.025255
C36   C     C_3   0.425364 0.042896 0.566461 -0.178726
H1    H     H_    0.896986 0.698369 0.547212 0.131022
H2    H     H_    0.642030 0.513016 0.906547 0.171884
H3    H     H_    0.401191 0.083091 0.379244 0.177337
H4    H     H_    0.598830 0.917020 0.620522 0.153539
H5    H     H_    0.262081 0.924971 0.499867 0.143473
H6    H     H_    0.737878 0.075178 0.499908 0.142717
H7    H     H_    0.364950 0.082763 0.620567 0.142104
H8    H     H_    0.635071 0.917463 0.379211 0.143503
H9    H     H_    0.106494 0.663379 0.414485 0.119524
H10   H     H_    0.893599 0.336500 0.585472 0.117763
H11   H     H_    0.810495 0.441855 0.731408 0.157438
H12   H     H_    0.103042 0.301209 0.453655 0.137891
H13   H     H_    0.836522 0.534510 0.821976 0.181557
H14   H     H_    0.883278 0.598459 0.724057 0.178610
H15   H     H_    0.193169 0.330069 0.199015 0.166331
H16   H     H_    0.204564 0.466899 0.265911 0.168782
H17   H     H_    0.123674 0.321964 0.301851 0.176609
H18   H     H_    0.028383 0.245376 0.878292 0.359148
H19   H     H_    0.938879 0.623395 0.061458 0.349089
H20   H     H_    0.075514 0.534197 0.632302 0.124789
H21   H     H_    0.925679 0.465356 0.367427 0.122449
H22   H     H_    0.724064 0.551871 0.236106 0.203058
H23   H     H_    0.272951 0.382507 0.738379 0.208629
H24   H     H_    0.661882 0.311281 0.980350 0.204483
H25   H     H_    0.362779 0.396121 0.026573 0.174482
H26   H     H_    0.398892 0.239151 0.137675 0.182112
N1    N     N_3   0.136700 0.499970 0.500060 -0.068163
N2    N     N_3   0.863300 0.500030 0.499940 -0.069011
O1    O     O_R   0.383390 0.686040 0.500000 -0.628907
O2    O     O_3   0.334721 0.313799 0.286809 -0.613268
O3    O     O_2   0.232441 0.226617 0.948053 -0.623114
O4    O     O_R   0.103382 0.300857 0.850812 -0.820238
O5    O     O_2   0.854676 0.417002 0.030174 -0.648889
O6    O     O_R   0.854322 0.603250 0.099211 -0.809942
O7    O     O_R   0.616610 0.313960 0.500000 -0.633647
O8    O     O_R   0.616650 0.686050 0.499970 -0.617412
O9    O     O_R   0.383350 0.313950 0.500030 -0.608187
O10   O     O_R   0.369590 0.500020 0.615820 -0.630711
O11   O     O_R   0.630410 0.499980 0.384180 -0.626629
O12   O     O_R   0.602840 0.500020 0.615790 -0.578425
O13   O     O_R   0.397160 0.499980 0.384210 -0.574994
O14   O     O_3   0.675667 0.596300 0.755730 -0.610007
Zn1   Zn    Zn3+2 0.344250 0.499990 0.500020 0.957139
Zn2   Zn    Zn3+2 0.655750 0.500010 0.499980 0.951609

loop_
_geom_bond_atom_site_label_1
_geom_bond_atom_site_label_2
_ccdc_geom_bond_type
C2    C35   S    
O1    Zn1   S    
C31   H6    S    
C4    C8    S    
C27   O14   S    
N1    Zn1   S    
C3    N2    S    
C4    N1    S    
C19   C21   A    
C3    C7    S    
C17   H26   S    
C28   H15   S    
H18   O4    S    
C33   C36   S    
C5    N1    S    
C2    C32   S    
C32   H3    S    
C6    N2    S    
C19   C26   S    
C17   C19   A    
C29   O3    D    
C2    H8    S    
C1    O1    A    
C31   C33   S    
C9    O12   A    
O11   Zn2   S    
C18   C20   A    
C27   H14   S    
C12   O9    A    
N2    Zn2   S    
C18   C25   S    
C7    H20   S    
O7    Zn2   S    
C30   O6    S    
C10   O13   A    
C20   C29   S    
O13   Zn1   S    
C1    O8    A    
C33   H4    S    
C4    C6    S    
C22   H23   S    
C25   C26   D    
C15   O2    S    
C5    H9    S    
C13   C24   A    
C2    C31   S    
C32   C34   S    
C28   O2    S    
C8    H21   S    
C29   O4    S    
C10   O11   A    
O9    Zn1   S    
C31   C34   S    
C11   C14   A    
C25   H25   S    
C9    C11   S    
C7    N1    S    
C8    N2    S    
C24   H22   S    
C12   O7    A    
C20   C22   A    
C23   C35   S    
O10   Zn1   S    
C13   C15   A    
C14   C16   A    
C9    O10   A    
C12   C34   S    
C30   O5    D    
C1    C35   S    
C4    H12   S    
C27   H11   S    
C15   C17   A    
C6    H10   S    
O12   Zn2   S    
C3    C5    S    
C10   C13   S    
C5    C8    S    
C28   H17   S    
C6    C7    S    
C21   C30   S    
C11   C22   A    
C23   H5    S    
C23   C32   S    
O8    Zn2   S    
C28   H16   S    
C33   C35   S    
C34   C36   S    
C14   O14   S    
H19   O6    S    
C3    H1    S    
C16   C18   A    
C23   C36   S    
C21   C24   A    
C36   H7    S    
C26   H24   S    
C27   H13   S    
C16   H2    S    
