data_mof_unit_52179.cif
_audit_creation_date              2012-12-10T16:57:49-0500
_audit_creation_method            fapswitch 2.2
_symmetry_space_group_name_H-M    P1
_symmetry_Int_Tables_number       1
_space_group_crystal_system       triclinic
_cell_length_a                    7.713835
_cell_length_b                    8.477768
_cell_length_c                    19.131282
_cell_angle_alpha                 91.063754
_cell_angle_beta                  84.676886
_cell_angle_gamma                 93.905845
_cell_volume                      1242.72788344

loop_
_atom_site_label
_atom_site_type_symbol
_atom_type_description
_atom_site_fract_x
_atom_site_fract_y
_atom_site_fract_z
_atom_type_partial_charge
C1    C     C_R   0.545128 0.793162 0.487621 0.957584
C2    C     C_R   0.645010 0.522299 0.171017 -0.208281
C3    C     C_R   0.531466 0.591927 0.853684 0.029869
C4    C     C_R   0.500480 0.586988 0.146402 0.030156
C5    C     C_R   0.669214 0.522800 0.813078 0.208627
C6    C     C_R   0.354307 0.619160 0.193025 0.208692
C7    C     C_R   0.654394 0.495478 0.741664 -0.244416
C8    C     C_R   0.357459 0.585938 0.263874 -0.245715
C9    C     C_R   0.506037 0.535861 0.710430 -0.109145
C10   C     C_R   0.502433 0.521285 0.288991 -0.090282
C11   C     C_R   0.503635 0.608306 0.071028 0.301616
C12   C     C_R   0.454379 0.206176 0.490958 0.961141
C13   C     C_R   0.523196 0.603525 0.929805 0.299563
C14   C     C_3   0.211133 0.667051 0.721676 -0.861404
C15   C     C_3   0.806703 0.412654 0.263621 -0.867710
C16   C     C_3   0.827855 0.471289 0.844777 -0.877730
C17   C     C_3   0.197074 0.692451 0.169259 -0.884352
C18   C     C_3   0.752923 0.011854 0.435858 -0.882248
C19   C     C_3   0.245344 0.983446 0.455587 -0.872538
C20   C     C_2   0.569130 0.953233 0.463552 -0.028846
C21   C     C_2   0.429517 0.043901 0.469053 -0.042684
C22   C     C_R   0.501230 0.507548 0.634804 0.902117
C23   C     C_R   0.500079 0.501029 0.364976 0.853189
C24   C     C_R   0.370990 0.610793 0.751297 0.188453
C25   C     C_R   0.648208 0.487484 0.241651 0.190048
C26   C     C_R   0.386237 0.636693 0.822428 -0.204747
H1    H     H_    0.282404 0.691025 0.854437 0.157835
H2    H     H_    0.881486 0.496821 0.296502 0.252417
H3    H     H_    0.766088 0.302344 0.292859 0.238213
H4    H     H_    0.897025 0.380342 0.217742 0.230875
H5    H     H_    0.916152 0.409820 0.805688 0.234734
H6    H     H_    0.903482 0.576025 0.864669 0.251762
H7    H     H_    0.787387 0.388310 0.888416 0.250860
H8    H     H_    0.106466 0.728264 0.214427 0.232903
H9    H     H_    0.239047 0.799830 0.138104 0.248245
H10   H     H_    0.123049 0.606130 0.137134 0.254266
H11   H     H_    0.816703 0.917961 0.403645 0.237711
H12   H     H_    0.755067 0.495325 0.134291 0.160881
H13   H     H_    0.751966 0.113838 0.400325 0.248499
H14   H     H_    0.832474 0.043586 0.480178 0.255661
H15   H     H_    0.181355 0.074671 0.428067 0.227759
H16   H     H_    0.245510 0.878021 0.420211 0.257387
H17   H     H_    0.166501 0.956329 0.506008 0.252666
H18   H     H_    0.758622 0.440408 0.710324 0.167319
H19   H     H_    0.246350 0.613320 0.299895 0.167469
H20   H     H_    0.014574 0.381193 0.447281 0.189021
H21   H     H_    0.985428 0.618830 0.552702 0.193775
H22   H     H_    0.129121 0.564563 0.703398 0.251682
H23   H     H_    0.127851 0.731591 0.761512 0.226738
H24   H     H_    0.250671 0.749872 0.677880 0.246981
N1    N     N_R   0.664560 0.653079 0.963238 -0.167715
N2    N     N_R   0.361942 0.561388 0.037446 -0.166381
N3    N     N_R   0.655108 0.654583 0.032890 -0.176493
N4    N     N_R   0.371264 0.560001 0.967965 -0.173437
N5    N     N_2   0.950330 0.457950 0.481240 -0.174390
N6    N     N_2   0.049670 0.542050 0.518760 -0.173257
O1    O     O_R   0.389250 0.738570 0.504600 -0.622649
O2    O     O_R   0.610750 0.261430 0.495400 -0.614797
O3    O     O_R   0.678400 0.711620 0.492580 -0.620112
O4    O     O_R   0.321600 0.288380 0.507420 -0.614752
O5    O     O_R   0.355380 0.513500 0.607880 -0.604721
O6    O     O_R   0.644620 0.486500 0.392120 -0.621087
O7    O     O_R   0.644530 0.486550 0.595850 -0.621999
O8    O     O_R   0.355470 0.513450 0.404150 -0.642958
Zn1   Zn    Zn3+2 0.306930 0.517990 0.508030 0.923107
Zn2   Zn    Zn3+2 0.693070 0.482010 0.491970 0.925022

loop_
_geom_bond_atom_site_label_1
_geom_bond_atom_site_label_2
_ccdc_geom_bond_type
H20   N5    S    
C2    C4    A    
C18   H13   S    
C5    C7    A    
C9    C24   A    
C17   H10   S    
C1    O1    A    
C10   C23   S    
C16   H6    S    
C3    C26   A    
C22   O5    A    
C2    H12   S    
C11   N3    A    
C19   H16   S    
N5    N6    D    
C12   O2    A    
O8    Zn1   S    
C15   H2    S    
O7    Zn2   S    
C19   H15   S    
C7    H18   S    
C16   H5    S    
C26   H1    S    
C14   H24   S    
C14   H22   S    
O1    Zn1   S    
C10   C25   A    
C4    C6    A    
C23   O8    A    
C19   C21   S    
C18   H11   S    
N2    N4    A    
O4    Zn1   S    
C15   H3    S    
C2    C25   A    
C18   C20   S    
C1    O3    A    
O3    Zn2   S    
C16   H7    S    
C9    C22   S    
C15   C25   S    
C14   H23   S    
C17   H8    S    
O6    Zn2   S    
N1    N3    A    
N6    Zn1   S    
C12   O4    A    
O5    Zn1   S    
N5    Zn2   S    
C20   C21   D    
C15   H4    S    
C8    C10   A    
C13   N4    A    
C1    C20   S    
C14   C24   S    
C7    C9    A    
C6    C17   S    
C18   H14   S    
C8    H19   S    
C5    C16   S    
C6    C8    A    
C11   N2    A    
C17   H9    S    
C3    C5    A    
C22   O7    A    
C13   N1    A    
C12   C21   S    
O2    Zn2   S    
C23   O6    A    
C24   C26   A    
C19   H17   S    
H21   N6    S    
C4    C11   S    
C3    C13   S    
