data_mof_unit_53960.cif
_audit_creation_date              2012-12-10T17:18:55-0500
_audit_creation_method            fapswitch 2.2
_symmetry_space_group_name_H-M    P1
_symmetry_Int_Tables_number       1
_space_group_crystal_system       triclinic
_cell_length_a                    9.664075
_cell_length_b                    10.819306
_cell_length_c                    13.414177
_cell_angle_alpha                 93.85964
_cell_angle_beta                  72.407059
_cell_angle_gamma                 88.418748
_cell_volume                      1332.23832362

loop_
_atom_site_label
_atom_site_type_symbol
_atom_type_description
_atom_site_fract_x
_atom_site_fract_y
_atom_site_fract_z
_atom_type_partial_charge
C1    C     C_R   0.501235 0.736786 0.491012 0.845065
C2    C     C_R   0.435817 0.501470 0.979822 -0.032734
C3    C     C_R   0.461889 0.462451 0.871914 0.044105
C4    C     C_R   0.539852 0.463588 0.029339 0.073920
C5    C     C_R   0.645294 0.367676 0.978500 0.132323
C6    C     C_R   0.659378 0.321328 0.876487 -0.216825
C7    C     C_R   0.570589 0.369071 0.823355 -0.167603
C8    C     C_R   0.543151 0.516358 0.127768 -0.256016
C9    C     C_R   0.697566 0.342463 0.140288 0.120764
C10   C     C_R   0.375515 0.514346 0.815446 -0.090214
C11   C     C_R   0.234946 0.899211 0.491968 0.075769
C12   C     C_R   0.421594 0.501847 0.700016 0.766079
C13   C     C_R   0.100924 0.961431 0.549805 0.403264
C14   C     C_R   0.101432 0.073252 0.607518 -0.163498
C15   C     C_R   0.231716 0.128890 0.600170 -0.243886
C16   C     C_R   0.365223 0.068334 0.540842 0.066824
C17   C     C_R   0.366432 0.943518 0.504131 -0.058553
C18   C     C_R   0.499757 0.871300 0.478887 -0.131327
C19   C     C_R   0.632003 0.931321 0.458224 0.441733
C20   C     C_R   0.629033 0.060086 0.474858 -0.263285
C21   C     C_R   0.497194 0.129182 0.514320 -0.132431
C22   C     C_R   0.907874 0.317066 0.380436 -0.135540
C23   C     C_R   0.498141 0.263491 0.507921 0.839123
C24   C     C_R   0.990052 0.208535 0.340797 -0.246096
C25   C     C_R   0.130752 0.200021 0.341429 -0.255289
C26   C     C_R   0.193080 0.303401 0.375962 0.450075
C27   C     C_R   0.101597 0.405994 0.439721 0.173374
C28   C     C_R   0.952137 0.408738 0.440727 0.138732
C29   C     C_R   0.899136 0.585872 0.558777 -0.009923
C30   C     C_R   0.046514 0.585864 0.558788 -0.069840
C31   C     C_R   0.577964 0.488799 0.299950 0.864665
C32   C     C_R   0.726186 0.310203 0.033835 -0.186493
C33   C     C_R   0.618729 0.454720 0.185975 -0.076229
C34   C     C_R   0.254029 0.592252 0.868651 -0.291246
C35   C     C_R   0.217017 0.617973 0.976627 -0.110125
C36   C     C_R   0.303044 0.570767 0.033587 0.404818
Cu1   Cu    Cu3+1 0.359340 0.500010 0.500010 0.993243
Cu2   Cu    Cu3+1 0.640660 0.499990 0.499990 0.980533
H1    H     H_    0.999759 0.121285 0.652834 0.161166
H2    H     H_    0.227201 0.218663 0.642116 0.167325
H3    H     H_    0.730258 0.106438 0.455086 0.178879
H4    H     H_    0.822233 0.656636 0.607170 0.153525
H5    H     H_    0.810002 0.328168 0.362412 0.234477
H6    H     H_    0.948968 0.133428 0.302603 0.204527
H7    H     H_    0.196692 0.118137 0.301712 0.178237
H8    H     H_    0.738325 0.246506 0.837890 0.143841
H9    H     H_    0.078790 0.656639 0.606995 0.136557
H10   H     H_    0.793480 0.227223 0.998675 0.162244
H11   H     H_    0.479703 0.600662 0.163217 0.208847
H12   H     H_    0.187314 0.633549 0.826469 0.170670
H13   H     H_    0.118029 0.672803 0.017099 0.179127
H14   H     H_    0.583487 0.326897 0.745466 0.159319
N1    N     N_R   0.852480 0.498790 0.499000 -0.188247
N2    N     N_R   0.148360 0.498710 0.498970 -0.178623
O1    O     O_R   0.381190 0.680360 0.500010 -0.582443
O2    O     O_R   0.618760 0.680340 0.500000 -0.521403
O3    O     O_R   0.323240 0.499990 0.650990 -0.593254
O4    O     O_R   0.560820 0.499960 0.650980 -0.585946
O5    O     O_R   0.381240 0.319660 0.500000 -0.537175
O6    O     O_R   0.618810 0.319640 0.499990 -0.615766
O7    O     O_R   0.439180 0.500040 0.349020 -0.494944
O8    O     O_R   0.676760 0.500010 0.349010 -0.584906
I1    I     I_    0.708547 0.186221 0.223349 -0.468619
I2    I     I_    0.242599 0.789079 0.351354 -0.308711
O9    O     O_3   0.968070 0.918881 0.549316 -0.739712
H15   H     H_    0.982261 0.833124 0.516471 0.346319
O10   O     O_3   0.340243 0.308255 0.333699 -0.687195
H16   H     H_    0.382953 0.232353 0.287786 0.326180
O11   O     O_3   0.244873 0.582883 0.141150 -0.707559
H17   H     H_    0.266511 0.503747 0.167951 0.340050
O12   O     O_3   0.762497 0.863169 0.417065 -0.685065
H18   H     H_    0.843160 0.920402 0.398447 0.351023

loop_
_geom_bond_atom_site_label_1
_geom_bond_atom_site_label_2
_ccdc_geom_bond_type
C2    C4    A    
C28   N1    A    
C31   C33   S    
C24   C25   A    
Cu1   O3    S    
Cu1   Cu2   S    
C20   H3    S    
C29   H4    S    
C11   C13   A    
C31   O7    A    
C19   O12   S    
C22   H5    S    
C4    C8    A    
C5    C32   A    
C12   O4    A    
C15   H2    S    
Cu1   O5    S    
C19   C20   A    
C21   C23   S    
C2    C3    A    
C1    O1    A    
C27   N2    A    
O12   H18   S    
C10   C34   A    
C3    C10   A    
C22   C28   A    
C13   C14   A    
C36   O11   S    
C23   O5    A    
C5    C6    A    
C32   H10   S    
C31   O8    A    
C12   O3    A    
C26   C27   A    
C29   C30   A    
Cu2   N1    S    
C29   N1    A    
C9    C33   A    
Cu2   O6    S    
C26   O10   S    
C10   C12   S    
O11   H17   S    
C1    O2    A    
C7    H14   S    
C17   C18   A    
C6    C7    A    
C3    C7    A    
C8    C33   A    
O9    H15   S    
C35   H13   S    
C23   O6    A    
C24   H6    S    
C22   C24   A    
C30   N2    A    
C34   H12   S    
C16   C17   A    
Cu1   N2    S    
C15   C16   A    
Cu1   O1    S    
C25   H7    S    
C30   H9    S    
Cu2   O2    S    
C20   C21   A    
C34   C35   A    
C2    C36   A    
C27   C28   A    
C1    C18   S    
C14   C15   A    
C18   C19   A    
C13   O9    S    
Cu1   O7    S    
C6    H8    S    
C9    C32   A    
Cu2   O8    S    
C25   C26   A    
Cu2   O4    S    
C9    I1    S    
C16   C21   A    
C8    H11   S    
C11   C17   A    
O10   H16   S    
C14   H1    S    
C4    C5    A    
C11   I2    S    
C35   C36   A    
