data_mof_unit_32638.cif
_audit_creation_date              2012-12-11T15:46:54-0500
_audit_creation_method            fapswitch 2.2
_symmetry_space_group_name_H-M    P1
_symmetry_Int_Tables_number       1
_space_group_crystal_system       triclinic
_cell_length_a                    11.540784
_cell_length_b                    11.528695
_cell_length_c                    19.572224
_cell_angle_alpha                 90.361169
_cell_angle_beta                  89.985582
_cell_angle_gamma                 60.040994
_cell_volume                      2256.07509459

loop_
_atom_site_label
_atom_site_type_symbol
_atom_type_description
_atom_site_fract_x
_atom_site_fract_y
_atom_site_fract_z
_atom_type_partial_charge
C1    C     C_R   0.640355 0.117156 0.599336 0.546245
C2    C     C_1   0.641016 0.703981 0.668048 0.004832
C3    C     C_1   0.126588 0.199090 0.859255 0.006250
C4    C     C_1   0.171609 0.170109 0.727748 -0.029988
C5    C     C_1   0.150113 0.182431 0.798944 -0.029344
C6    C     C_1   0.195442 0.160574 0.667443 0.004075
C7    C     C_1   0.678783 0.191420 0.860708 0.004849
C8    C     C_1   0.658608 0.167040 0.729042 -0.030037
C9    C     C_1   0.665845 0.180919 0.800313 -0.029362
C10   C     C_1   0.652939 0.149418 0.668699 0.004144
C11   C     C_R   0.676652 0.634856 0.199271 0.009579
C12   C     C_R   0.612356 0.746055 0.598687 0.545320
C13   C     C_R   0.581393 0.620352 0.236158 0.010230
C14   C     C_R   0.573405 0.632919 0.305477 0.003364
C15   C     C_R   0.774442 0.648870 0.306206 -0.170238
C16   C     C_R   0.780218 0.638717 0.234972 -0.171126
C17   C     C_3   0.433531 0.684623 0.226666 -0.103672
C18   C     C_3   0.422731 0.700872 0.303674 -0.279034
C19   C     C_R   0.661841 0.661346 0.340793 0.021579
C20   C     C_R   0.147988 0.189922 0.190439 0.023713
C21   C     C_R   0.212852 0.250818 0.221021 0.008004
C22   C     C_R   0.238304 0.236386 0.289737 0.038084
C23   C     C_R   0.241054 0.145149 0.598240 0.546912
C24   C     C_R   0.157295 0.080741 0.298505 -0.188286
C25   C     C_R   0.126998 0.098319 0.228902 -0.138380
C26   C     C_3   0.179230 0.394054 0.222363 -0.269266
C27   C     C_3   0.203848 0.378997 0.298515 -0.260959
C28   C     C_R   0.204390 0.158012 0.330313 0.015553
C29   C     C_R   0.688705 0.195583 0.199607 0.017794
C30   C     C_R   0.793285 0.088289 0.233695 0.028704
C31   C     C_R   0.787353 0.069896 0.302239 0.018659
C32   C     C_R   0.580113 0.279559 0.309528 -0.154699
C33   C     C_R   0.586125 0.297364 0.238995 -0.157689
C34   C     C_R   0.646132 0.113774 0.403491 0.545508
C35   C     C_3   0.861372 0.942037 0.217816 -0.272913
C36   C     C_3   0.853814 0.921099 0.293517 -0.271900
C37   C     C_R   0.675159 0.158701 0.340131 0.018129
C38   C     C_R   0.081683 0.231305 0.928542 0.550015
C39   C     C_R   0.684028 0.604400 0.929467 0.549207
C40   C     C_R   0.708555 0.206798 0.930056 0.543635
C41   C     C_R   0.082255 0.235824 0.125343 0.558720
C42   C     C_R   0.685437 0.606294 0.127316 0.550954
C43   C     C_R   0.710660 0.212924 0.128316 0.539199
C44   C     C_R   0.618609 0.735137 0.404031 0.546249
C45   C     C_R   0.245843 0.140060 0.400893 0.545989
C46   C     C_1   0.670617 0.646395 0.860085 0.006044
C47   C     C_1   0.654652 0.683719 0.728448 -0.030303
C48   C     C_1   0.663552 0.666627 0.799673 -0.029776
Cr1   Cr    Cr6+3 0.404720 0.198220 0.499960 1.024651
Cr2   Cr    Cr6+3 0.698290 0.897110 0.500380 1.023264
Cr3   Cr    Cr6+3 0.396970 0.904720 0.499610 1.023560
Cr4   Cr    Cr6+3 0.926290 0.152010 0.028150 1.061442
Cr5   Cr    Cr6+3 0.921440 0.451830 0.027490 1.029685
Cr6   Cr    Cr6+3 0.626370 0.446880 0.028730 1.054328
H1    H     H_    0.849502 0.661617 0.332932 0.122515
H2    H     H_    0.254039 0.409412 0.194101 0.137409
H3    H     H_    0.290519 0.388908 0.314379 0.137152
H4    H     H_    0.111479 0.438695 0.329426 0.139225
H5    H     H_    0.496904 0.355125 0.338852 0.119767
H6    H     H_    0.509149 0.387110 0.215207 0.119469
H7    H     H_    0.965421 0.902625 0.199079 0.156802
H8    H     H_    0.798806 0.913899 0.186356 0.140165
H9    H     H_    0.785258 0.882665 0.305546 0.160292
H10   H     H_    0.953427 0.867933 0.318460 0.134540
H11   H     H_    0.861025 0.640435 0.207951 0.124907
H12   H     H_    0.401664 0.614515 0.206804 0.146379
H13   H     H_    0.371492 0.807139 0.320840 0.159704
H14   H     H_    0.385142 0.639157 0.328142 0.119556
H15   H     H_    0.137866 0.012666 0.327663 0.124205
H16   H     H_    0.079174 0.046844 0.206578 0.170791
H17   H     H_    0.073583 0.465176 0.209679 0.156127
O1    O     O_R   0.267750 0.231960 0.575440 -0.505063
O2    O     O_R   0.685950 0.784660 0.430010 -0.510491
O3    O     O_R   0.502510 0.767000 0.423980 -0.522897
O4    O     O_R   0.288320 0.026340 0.429250 -0.508622
O5    O     O_3   0.499990 0.000020 0.499980 -0.253007
O6    O     O_R   0.821590 0.119350 0.952850 -0.503089
O7    O     O_R   0.037230 0.162540 0.957390 -0.486920
O8    O     O_R   0.056530 0.344750 0.951370 -0.504681
O9    O     O_R   0.798000 0.560370 0.957490 -0.495284
O10   O     O_R   0.596230 0.579400 0.952760 -0.494322
O11   O     O_R   0.639160 0.321170 0.958690 -0.494425
O12   O     O_R   0.527290 0.186640 0.570530 -0.494800
O13   O     O_R   0.821370 0.124220 0.104400 -0.515211
O14   O     O_R   0.037020 0.167050 0.097880 -0.487492
O15   O     O_R   0.056310 0.349620 0.102920 -0.523766
O16   O     O_R   0.797790 0.564880 0.097980 -0.512720
O17   O     O_R   0.596000 0.584270 0.104310 -0.488623
O18   O     O_R   0.638950 0.325690 0.099180 -0.507251
O19   O     O_3   0.824700 0.350240 0.028120 -0.267565
O20   O     O_R   0.728110 0.003450 0.576380 -0.504330
O21   O     O_R   0.682980 0.789190 0.570500 -0.494179
O22   O     O_R   0.499300 0.771880 0.575540 -0.504748
O23   O     O_R   0.285350 0.030870 0.569740 -0.492943
O24   O     O_R   0.270960 0.227070 0.423890 -0.517810
O25   O     O_R   0.530270 0.182120 0.430040 -0.506906
O26   O     O_R   0.731320 0.998570 0.424830 -0.519140
C49   C     C_2   0.375246 0.814520 0.188542 0.228756
H18   H     H_    0.399978 0.890524 0.203331 0.112121
O27   O     O_2   0.301370 0.834322 0.140034 -0.505095

loop_
_geom_bond_atom_site_label_1
_geom_bond_atom_site_label_2
_ccdc_geom_bond_type
C21   C26   S    
C43   O13   A    
C34   C37   S    
C14   C18   S    
Cr4   O19   S    
C35   C36   S    
Cr3   O3    S    
C2    C12   S    
C20   C41   S    
C15   C19   A    
C41   O15   A    
C26   C27   S    
C43   O18   A    
C30   C35   S    
Cr4   O14   S    
Cr5   O8    S    
C34   O25   A    
Cr6   O19   S    
C30   C31   A    
C20   C25   A    
C18   H14   S    
C15   C16   A    
C29   C33   A    
C34   O26   A    
C11   C42   S    
Cr4   O13   S    
C3    C38   S    
C8    C9    S    
Cr1   O1    S    
C7    C40   S    
Cr5   O15   S    
C36   H9    S    
C17   C49   S    
C25   H16   S    
C1    O20   A    
C22   C28   A    
C13   C14   A    
C29   C43   S    
C26   H17   S    
Cr4   O7    S    
C14   C19   A    
C24   H15   S    
C46   C48   T    
C28   C45   S    
C40   O11   A    
Cr5   O9    S    
C24   C25   A    
C39   O10   A    
Cr6   O18   S    
C4    C6    T    
C27   H3    S    
Cr2   O2    S    
C38   O7    A    
C18   H13   S    
Cr1   O24   S    
C31   C37   A    
C15   H1    S    
C29   C30   A    
Cr2   O5    S    
C11   C16   A    
C47   C48   S    
C17   C18   S    
C17   H12   S    
Cr1   O5    S    
Cr5   O16   S    
C32   C37   A    
Cr3   O5    S    
C44   O3    A    
Cr3   O22   S    
C39   C46   S    
Cr2   O21   S    
C33   H6    S    
C49   O27   D    
C22   C27   S    
C12   O22   A    
C42   O17   A    
Cr4   O6    S    
C45   O24   A    
Cr6   O11   S    
C19   C44   S    
C7    C9    T    
Cr2   O26   S    
C31   C36   S    
C23   O1    A    
C12   O21   A    
C1    C10   S    
C24   C28   A    
Cr3   O4    S    
C4    C5    S    
C3    C5    T    
C27   H4    S    
C26   H2    S    
C16   H11   S    
C2    C47   T    
C1    O12   A    
C41   O14   A    
C23   O23   A    
C13   C17   S    
C45   O4    A    
C32   C33   A    
Cr1   O12   S    
C36   H10   S    
C39   O9    A    
Cr6   O17   S    
C11   C13   A    
C35   H7    S    
C6    C23   S    
C35   H8    S    
Cr1   O25   S    
C44   O2    A    
Cr3   O23   S    
Cr2   O20   S    
C20   C21   A    
C8    C10   T    
C49   H18   S    
C38   O8    A    
Cr5   O19   S    
C40   O6    A    
C42   O16   A    
C32   H5    S    
C21   C22   A    
Cr6   O10   S    
