data_mof_unit_18610.cif
_audit_creation_date              2012-12-11T17:10:33-0500
_audit_creation_method            fapswitch 2.2
_symmetry_space_group_name_H-M    P1
_symmetry_Int_Tables_number       1
_space_group_crystal_system       triclinic
_cell_length_a                    14.779439
_cell_length_b                    14.948902
_cell_length_c                    14.928757
_cell_angle_alpha                 109.046992
_cell_angle_beta                  109.818779
_cell_angle_gamma                 108.804344
_cell_volume                      2561.90601237

loop_
_atom_site_label
_atom_site_type_symbol
_atom_type_description
_atom_site_fract_x
_atom_site_fract_y
_atom_site_fract_z
_atom_type_partial_charge
C1    C     C_R   0.184948 0.277934 0.247423 0.010386
C2    C     C_R   0.401995 0.492029 0.193077 0.015464
C3    C     C_R   0.563458 0.814024 0.591112 -0.126405
C4    C     C_R   0.525036 0.431803 0.745205 -0.120543
C5    C     C_R   0.723967 0.477731 0.409780 -0.087207
C6    C     C_R   0.548996 0.824056 0.498935 0.028984
C7    C     C_R   0.827268 0.555506 0.501877 0.049951
C8    C     C_R   0.433460 0.429619 0.130945 -0.037918
C9    C     C_R   0.798035 0.797837 0.865026 0.070788
C10   C     C_R   0.053002 0.597713 0.160638 0.089989
C11   C     C_R   0.069534 0.625523 0.266681 -0.137938
C12   C     C_R   0.454717 0.451801 0.779747 -0.044347
C13   C     C_R   0.015187 0.546142 0.288426 0.000361
C14   C     C_R   0.943784 0.438825 0.203500 -0.062390
C15   C     C_R   0.928937 0.410547 0.098723 -0.113776
C16   C     C_R   0.515532 0.208526 0.408888 -0.077493
C17   C     C_R   0.983565 0.489438 0.077356 -0.201383
C18   C     C_R   0.929528 0.570425 0.401830 -0.199278
C19   C     C_R   0.931443 0.605490 0.501795 0.041135
C20   C     C_R   0.034910 0.673452 0.598615 0.032760
C21   C     C_R   0.128272 0.675212 0.594232 -0.232368
C22   C     C_R   0.120892 0.616661 0.494670 0.064370
C23   C     C_R   0.572695 0.201459 0.498696 0.066518
C24   C     C_R   0.023812 0.577823 0.396854 0.058938
C25   C     C_R   0.016149 0.827724 0.703834 -0.135526
C26   C     C_R   0.041962 0.908847 0.802853 -0.110112
C27   C     C_R   0.100169 0.911964 0.900600 -0.080462
C28   C     C_R   0.291767 0.600328 0.588180 -0.140273
C29   C     C_R   0.132500 0.833672 0.899594 -0.110505
C30   C     C_R   0.109051 0.753708 0.800913 -0.176261
C31   C     C_R   0.050819 0.750392 0.702218 0.107399
C32   C     C_R   0.484531 0.372327 0.900073 0.158405
C33   C     C_R   0.419611 0.405406 0.841609 0.072721
C34   C     C_R   0.203232 0.579819 0.497178 0.031638
C35   C     C_R   0.325927 0.397427 0.850311 -0.215416
C36   C     C_R   0.318098 0.387993 0.938270 -0.204501
C37   C     C_R   0.405009 0.388303 0.016360 0.061783
C38   C     C_R   0.476163 0.361412 0.985083 0.031789
C39   C     C_3   0.597411 0.399860 0.047850 -0.219701
C40   C     C_R   0.597119 0.290264 0.590079 -0.161497
C41   C     C_3   0.606372 0.414759 0.955021 -0.609182
C42   C     C_R   0.531343 0.922044 0.396303 0.083206
C43   C     C_R   0.588035 0.923733 0.493542 0.045296
C44   C     C_R   0.667245 0.024720 0.587790 -0.189831
C45   C     C_R   0.477556 0.721842 0.408697 -0.086132
C46   C     C_R   0.672632 0.120373 0.588134 -0.205545
C47   C     C_R   0.598798 0.114408 0.494276 0.064304
C48   C     C_R   0.535700 0.015381 0.397211 0.256295
C49   C     C_3   0.415976 0.958775 0.314225 -0.466502
C50   C     C_3   0.410979 0.856205 0.313022 -0.438350
C51   C     C_R   0.983937 0.079616 0.068524 0.263718
C52   C     C_R   0.208253 0.518618 0.409858 -0.052790
C53   C     C_R   0.069842 0.076254 0.141563 0.008449
C54   C     C_R   0.055474 0.976505 0.136028 -0.192323
C55   C     C_R   0.960382 0.880799 0.048932 -0.181266
C56   C     C_R   0.814811 0.566017 0.592354 -0.123285
C57   C     C_R   0.880357 0.887339 0.971146 0.019099
C58   C     C_R   0.889309 0.987456 0.987654 0.172144
C59   C     C_3   0.876481 0.029256 0.907985 -0.541458
C60   C     C_3   0.983660 0.129690 0.995878 -0.547423
C61   C     C_R   0.443168 0.533894 0.759917 0.008140
C62   C     C_R   0.277018 0.185321 0.245552 -0.191905
C63   C     C_R   0.173382 0.175170 0.215053 0.052144
C64   C     C_2   0.096623 0.305833 0.229669 0.432032
C65   C     C_2   0.315896 0.520807 0.152469 0.380512
C66   C     C_2   0.104531 0.680892 0.134572 0.464259
C67   C     C_R   0.495247 0.402320 0.197306 -0.175606
C68   C     C_2   0.520891 0.173881 0.306669 0.484109
C69   C     C_2   0.619259 0.310453 0.056247 0.531687
C70   C     C_2   0.414801 0.610344 0.819309 0.448036
C71   C     C_R   0.704338 0.795619 0.802315 -0.109845
C72   C     C_R   0.800182 0.707719 0.804166 -0.132822
H1    H     H_    0.876496 0.615794 0.677219 0.116547
H2    H     H_    0.900183 0.377144 0.218803 0.193990
H3    H     H_    0.874359 0.327440 0.033780 0.120520
H4    H     H_    0.853694 0.532862 0.326199 0.153045
H5    H     H_    0.972778 0.827565 0.628900 0.116440
H6    H     H_    0.019088 0.970751 0.803870 0.110096
H7    H     H_    0.121409 0.975867 0.977128 0.118122
H8    H     H_    0.177532 0.836200 0.975467 0.123505
H9    H     H_    0.136793 0.694976 0.801376 0.118629
H10   H     H_    0.264519 0.407226 0.795792 0.125544
H11   H     H_    0.249488 0.388798 0.948446 0.123406
H12   H     H_    0.515301 0.338611 0.171340 0.136687
H13   H     H_    0.643300 0.477203 0.126230 0.166756
H14   H     H_    0.653331 0.501332 0.978709 0.213816
H15   H     H_    0.630068 0.360230 0.909150 0.179420
H16   H     H_    0.716287 0.029307 0.663596 0.129162
H17   H     H_    0.726001 0.196277 0.664002 0.127720
H18   H     H_    0.366851 0.985549 0.347570 0.204136
H19   H     H_    0.401583 0.956253 0.235185 0.203930
H20   H     H_    0.358501 0.823539 0.345396 0.225548
H21   H     H_    0.324006 0.661442 0.670022 0.149685
H22   H     H_    0.394422 0.795977 0.233771 0.190485
H23   H     H_    0.670228 0.846242 0.829057 0.130903
H24   H     H_    0.120433 0.972080 0.192954 0.170744
H25   H     H_    0.953442 0.803156 0.037985 0.144543
H26   H     H_    0.880308 0.981901 0.835945 0.201466
H27   H     H_    0.971646 0.201582 0.019560 0.201910
H28   H     H_    0.654425 0.318262 0.673873 0.092802
H29   H     H_    0.173441 0.513746 0.331804 0.132564
H30   H     H_    0.454626 0.701199 0.325460 0.115040
H31   H     H_    0.091981 0.356327 0.192265 0.044629
H32   H     H_    0.306020 0.542609 0.088732 0.020438
H33   H     H_    0.097683 0.656838 0.054620 -0.004927
H34   H     H_    0.856448 0.679000 0.833060 0.096250
H35   H     H_    0.205893 0.720117 0.669633 0.133742
H36   H     H_    0.471207 0.182305 0.240717 0.005675
H37   H     H_    0.575566 0.230737 0.984985 0.029262
H38   H     H_    0.804810 0.043914 0.887783 0.197018
H39   H     H_    0.052014 0.139290 0.977449 0.192760
H40   H     H_    0.355984 0.584852 0.845557 0.008751
H41   H     H_    0.297735 0.120910 0.231310 0.099467
H42   H     H_    0.614133 0.877481 0.675312 0.098462
H43   H     H_    0.702198 0.448647 0.325399 0.145591
H44   H     H_    0.970052 0.466314 0.995295 0.100786
H45   H     H_    0.122328 0.708909 0.331697 0.149804
H46   H     H_    0.552503 0.373742 0.748275 0.116820
N1    N     N_R   0.291070 0.347930 0.293870 -0.066129
N2    N     N_R   0.497240 0.291100 0.443210 -0.067535
N3    N     N_R   0.347890 0.554050 0.556810 -0.047578
N4    N     N_R   0.554050 0.347900 0.556830 -0.043169
N5    N     N_R   0.291070 0.497250 0.443190 -0.052744
N6    N     N_R   0.497240 0.554030 0.706140 -0.037904
N7    N     N_R   0.347890 0.291110 0.293870 -0.053652
N8    N     N_R   0.445950 0.652100 0.443170 -0.034370
N9    N     N_R   0.708930 0.502750 0.556810 -0.045025
N10   N     N_R   0.502760 0.445970 0.293860 -0.055924
N11   N     N_R   0.652110 0.708890 0.706130 -0.045426
N12   N     N_R   0.708930 0.652070 0.706130 -0.047062
N13   N     N_R   0.445950 0.502780 0.293850 -0.047267
N14   N     N_R   0.502760 0.708900 0.556790 -0.045221
N15   N     N_R   0.652110 0.445950 0.443190 -0.049803
N16   N     N_R   0.554050 0.497220 0.706150 -0.050574
Ni1   Ni    Ni4+2 0.369690 0.500010 0.369700 0.261595
Ni2   Ni    Ni4+2 0.630310 0.499990 0.630300 0.204490
Ni3   Ni    Ni4+2 0.500000 0.369720 0.369720 0.216081
Ni4   Ni    Ni4+2 0.500000 0.630280 0.630280 0.255443
O1    O     O_2   0.026995 0.270183 0.253612 -0.572931
O2    O     O_2   0.256909 0.523809 0.192822 -0.623382
O3    O     O_2   0.153299 0.777193 0.201015 -0.616145
O4    O     O_2   0.585561 0.142492 0.297330 -0.560206
O5    O     O_2   0.686241 0.326763 0.143025 -0.618492
O6    O     O_2   0.462552 0.705806 0.845182 -0.596002

loop_
_geom_bond_atom_site_label_1
_geom_bond_atom_site_label_2
_ccdc_geom_bond_type
C61   C70   S    
C25   C31   A    
C64   H31   S    
C15   H3    S    
C36   H11   S    
C1    C64   S    
N15   Ni3   S    
C6    C45   A    
C27   C29   A    
C53   C63   S    
C35   C36   A    
C9    C72   A    
C49   H18   S    
C43   C44   A    
C2    C65   S    
C39   C41   S    
C46   H17   S    
C53   C54   A    
C5    N15   A    
C41   H14   S    
C26   C27   A    
C26   H6    S    
C61   N6    A    
C25   H5    S    
C14   H2    S    
N6    Ni4   S    
C36   C37   A    
C37   C38   A    
C27   H7    S    
C16   N2    A    
C30   C31   A    
C52   N5    A    
C71   H23   S    
C10   C17   A    
N14   Ni4   S    
C23   C40   A    
C59   H38   S    
C18   C19   A    
C1    N1    A    
C56   N9    A    
C9    C57   S    
C34   C52   A    
C46   C47   A    
C65   O2    D    
C69   H37   S    
N11   Ni4   S    
C19   C20   A    
C44   C46   A    
C32   C41   S    
C68   O4    D    
C16   C68   S    
C32   C38   A    
C4    C12   A    
C29   C30   A    
C54   H24   S    
C3    C6    A    
C28   C34   A    
C59   C60   S    
C21   C22   A    
C5    H43   S    
C4    H46   S    
C7    C56   A    
C49   H19   S    
C22   C34   S    
C1    C63   A    
C35   H10   S    
N2    N4    A    
C10   C66   S    
C41   H15   S    
C2    C8    A    
C52   H29   S    
C23   C47   S    
C3    N14   A    
N9    N15   A    
N9    Ni2   S    
C62   H41   S    
C45   H30   S    
C5    C7    A    
C28   N3    A    
C50   H22   S    
N16   Ni2   S    
N7    Ni3   S    
C58   C59   S    
N1    Ni1   S    
C13   C24   S    
N5    Ni1   S    
C28   H21   S    
C51   C53   A    
N3    Ni4   S    
N10   Ni3   S    
C62   C63   A    
C66   O3    D    
C71   N11   A    
C47   C48   A    
N8    N14   A    
C45   N8    A    
C55   H25   S    
C2    N13   A    
C39   C69   S    
C51   C58   A    
C42   C48   A    
N4    Ni2   S    
C21   H35   S    
C70   H40   S    
C42   C50   S    
N1    N7    A    
C50   H20   S    
C48   C49   S    
C72   H34   S    
N8    Ni1   S    
C16   C23   A    
C7    C19   S    
C6    C43   S    
C55   C57   A    
C18   C24   A    
C42   C43   A    
C39   H13   S    
C66   H33   S    
C11   H45   S    
N10   N13   A    
C4    N16   A    
N11   N12   A    
C15   C17   A    
C54   C55   A    
C18   H4    S    
C56   H1    S    
C70   O6    D    
N12   Ni2   S    
C9    C71   A    
C3    H42   S    
C40   H28   S    
C62   N7    A    
C72   N12   A    
C51   C60   S    
C69   O5    D    
C40   N4    A    
N13   Ni1   S    
N6    N16   A    
C32   C33   A    
C60   H27   S    
C25   C26   A    
C60   H39   S    
C44   H16   S    
C67   N10   A    
C12   C61   A    
C11   C13   A    
C57   C58   A    
C38   C39   S    
C29   H8    S    
C30   H9    S    
C33   C35   A    
C22   C24   A    
N3    N5    A    
C10   C11   A    
C67   H12   S    
C20   C21   A    
C8    C67   A    
C49   C50   S    
C8    C37   S    
C59   H26   S    
C14   C15   A    
N2    Ni3   S    
C68   H36   S    
C65   H32   S    
C12   C33   S    
C13   C14   A    
C20   C31   S    
C17   H44   S    
C64   O1    D    
