data_mof_unit_38136.cif
_audit_creation_date              2012-12-10T16:54:05-0500
_audit_creation_method            fapswitch 2.2
_symmetry_space_group_name_H-M    P1
_symmetry_Int_Tables_number       1
_space_group_crystal_system       triclinic
_cell_length_a                    9.707497
_cell_length_b                    10.975107
_cell_length_c                    13.372339
_cell_angle_alpha                 90.040807
_cell_angle_beta                  72.757285
_cell_angle_gamma                 87.433129
_cell_volume                      1359.15922609

loop_
_atom_site_label
_atom_site_type_symbol
_atom_type_description
_atom_site_fract_x
_atom_site_fract_y
_atom_site_fract_z
_atom_type_partial_charge
C1    C     C_R   0.496725 0.735089 0.501139 0.803635
C2    C     C_R   0.422526 0.522036 0.984860 -0.031086
C3    C     C_R   0.452854 0.550175 0.877553 -0.113717
C4    C     C_R   0.529189 0.544399 0.035647 0.039099
C5    C     C_R   0.646835 0.617290 0.987117 -0.028106
C6    C     C_R   0.661955 0.662046 0.886468 0.383513
C7    C     C_R   0.559914 0.635888 0.835157 0.401707
C8    C     C_R   0.525955 0.490823 0.131572 -0.138241
C9    C     C_R   0.727869 0.605070 0.142496 -0.111404
C10   C     C_R   0.374196 0.493812 0.817130 -0.164242
C11   C     C_2   0.596910 0.064337 0.523335 -0.118498
C12   C     C_R   0.422385 0.499606 0.700782 0.883682
C13   C     C_2   0.518583 0.136163 0.478143 -0.254373
C14   C     C_2   0.599731 0.930904 0.513483 -0.248024
C15   C     C_2   0.484496 0.867977 0.510223 -0.162877
C16   C     C_2   0.070401 0.597823 0.498591 0.526815
C17   C     C_2   0.933886 0.586647 0.466415 -0.166362
C18   C     C_R   0.504818 0.266036 0.495473 0.875146
C19   C     C_R   0.576852 0.502978 0.300054 0.779748
C20   C     C_R   0.744973 0.647370 0.041636 -0.112776
C21   C     C_R   0.617334 0.527107 0.187944 -0.028128
C22   C     C_R   0.254831 0.423051 0.868310 -0.114198
C23   C     C_R   0.205281 0.420643 0.978762 -0.112367
C24   C     C_R   0.285221 0.476103 0.037665 -0.061137
Cu1   Cu    Cu3+1 0.361370 0.499980 0.499980 1.024678
Cu2   Cu    Cu3+1 0.638630 0.500020 0.500020 1.000278
H1    H     H_    0.798253 0.635925 0.185899 0.162053
H2    H     H_    0.461875 0.100046 0.426922 0.157208
H3    H     H_    0.700365 0.882806 0.512398 0.173855
H4    H     H_    0.121128 0.420557 0.477411 0.179802
H5    H     H_    0.900787 0.659219 0.422327 0.163605
H6    H     H_    0.875434 0.440043 0.550554 0.191659
H7    H     H_    0.832010 0.707299 0.008276 0.176237
H8    H     H_    0.450790 0.421683 0.165174 0.146012
H9    H     H_    0.661117 0.103578 0.568274 0.170678
N1    N     N_2   0.152660 0.501340 0.501130 -0.307751
N2    N     N_2   0.846520 0.501370 0.501160 -0.282581
O1    O     O_R   0.382960 0.678040 0.499980 -0.507407
O2    O     O_R   0.617100 0.678080 0.500020 -0.574128
O3    O     O_R   0.325800 0.499940 0.650950 -0.576876
O4    O     O_R   0.559930 0.499980 0.650990 -0.538161
O5    O     O_R   0.382900 0.321920 0.499980 -0.573701
O6    O     O_R   0.617040 0.321960 0.500020 -0.579275
O7    O     O_R   0.440070 0.500020 0.349010 -0.570509
O8    O     O_R   0.674200 0.500060 0.349050 -0.555612
C25   C     C_2   0.339022 0.926767 0.527386 0.881907
O9    O     O_2   0.280762 0.922390 0.458101 -0.572718
O10   O     O_R   0.271462 0.989951 0.621086 -0.761262
H10   H     H_    0.174444 0.029055 0.622286 0.316790
O11   O     O_3   0.112328 0.710661 0.524133 -0.528952
C26   C     C_3   0.000139 0.802591 0.543486 -0.283388
H11   H     H_    0.894495 0.770932 0.592629 0.169287
H12   H     H_    0.990824 0.839915 0.468442 0.178079
H13   H     H_    0.026765 0.878137 0.588258 0.204936
O12   O     O_3   0.772713 0.737078 0.838999 -0.569331
C27   C     C_3   0.894726 0.662426 0.785795 -0.252459
H14   H     H_    0.873352 0.608411 0.721950 0.173962
H15   H     H_    0.930337 0.600160 0.839843 0.180627
H16   H     H_    0.985697 0.721551 0.750444 0.203316
C28   C     C_2   0.180225 0.352091 0.806791 0.905044
O13   O     O_2   0.050516 0.369411 0.820705 -0.618594
O14   O     O_R   0.259160 0.265546 0.732880 -0.732863
H17   H     H_    0.197291 0.225891 0.694164 0.344387
C29   C     C_2   0.217009 0.502067 0.151549 0.840195
O15   O     O_2   0.158022 0.422022 0.210307 -0.582800
O16   O     O_R   0.224884 0.618450 0.191543 -0.740711
H18   H     H_    0.177582 0.625245 0.269914 0.337089
C30   C     C_2   0.072740 0.355725 0.031922 0.934882
O17   O     O_2   0.968661 0.411212 0.091412 -0.585058
O18   O     O_R   0.067013 0.231166 0.012495 -0.729937
H19   H     H_    0.971063 0.197293 0.052508 0.341448
O19   O     O_3   0.558581 0.704568 0.748810 -0.564623
C31   C     C_3   0.449849 0.798364 0.781988 -0.239299
H20   H     H_    0.457530 0.848577 0.852529 0.176250
H21   H     H_    0.340833 0.761428 0.797085 0.152787
H22   H     H_    0.463370 0.866120 0.719186 0.213136

loop_
_geom_bond_atom_site_label_1
_geom_bond_atom_site_label_2
_ccdc_geom_bond_type
C23   C30   S    
C12   O3    A    
C2    C4    A    
O12   C27   S    
C19   O8    A    
Cu2   N2    S    
C6    C7    A    
C1    C15   S    
Cu1   O1    S    
C11   C13   D    
C31   H20   S    
C9    C20   A    
C7    O19   S    
C27   H16   S    
H4    N1    S    
C6    O12   S    
C4    C8    A    
C26   H13   S    
C29   O15   D    
C11   H9    S    
C2    C3    A    
C13   H2    S    
C3    C10   A    
C17   N2    D    
H6    N2    S    
C16   N1    D    
C22   C28   S    
C31   H21   S    
C9    C21   A    
O14   H17   S    
Cu1   O5    S    
C10   C12   S    
C13   C18   S    
C20   H7    S    
C1    O1    A    
Cu1   O7    S    
C28   O14   S    
O10   H10   S    
C19   C21   S    
C27   H15   S    
Cu2   O6    S    
O16   H18   S    
C3    C7    A    
C18   O5    A    
Cu1   O3    S    
C2    C24   A    
C5    C6    A    
C17   H5    S    
C31   H22   S    
C25   O10   S    
Cu2   O2    S    
C16   C17   S    
C1    O2    A    
C23   C24   A    
C16   O11   S    
C26   H11   S    
C19   O7    A    
C4    C5    A    
O18   H19   S    
C27   H14   S    
C9    H1    S    
C12   O4    A    
C30   O18   S    
C24   C29   S    
C11   C14   S    
C5    C20   A    
C25   O9    D    
O19   C31   S    
C8    H8    S    
C29   O16   S    
Cu1   N1    S    
Cu2   O8    S    
O11   C26   S    
Cu1   Cu2   S    
C18   O6    A    
C15   C25   S    
C30   O17   D    
C22   C23   A    
C10   C22   A    
C14   C15   D    
Cu2   O4    S    
C14   H3    S    
C28   O13   D    
C26   H12   S    
C8    C21   A    
