data_mof_unit_29712.cif
_audit_creation_date              2012-12-10T20:47:42-0500
_audit_creation_method            fapswitch 2.2
_symmetry_space_group_name_H-M    P1
_symmetry_Int_Tables_number       1
_space_group_crystal_system       triclinic
_cell_length_a                    15.011416
_cell_length_b                    8.935464
_cell_length_c                    8.105079
_cell_angle_alpha                 90.007146
_cell_angle_beta                  90.000108
_cell_angle_gamma                 89.999963
_cell_volume                      1087.16639274

loop_
_atom_site_label
_atom_site_type_symbol
_atom_type_description
_atom_site_fract_x
_atom_site_fract_y
_atom_site_fract_z
_atom_type_partial_charge
C1    C     C_R   0.500000 0.217990 0.499994 0.940090
C2    C     C_R   0.230478 0.499997 0.499999 -0.069221
C3    C     C_R   0.907310 0.459158 0.644644 0.115620
C4    C     C_R   0.092690 0.540842 0.355356 0.115620
C5    C     C_R   0.907309 0.540847 0.355357 0.115621
C6    C     C_R   0.092690 0.459153 0.644643 0.115621
C7    C     C_R   0.953655 0.500001 0.500000 0.064638
C8    C     C_R   0.046344 0.499999 0.500000 0.064638
C9    C     C_R   0.953720 0.417895 0.787366 -0.221260
C10   C     C_R   0.046280 0.582105 0.212634 -0.221260
C11   C     C_R   0.953719 0.582107 0.212635 -0.221260
C12   C     C_R   0.500000 0.782010 0.500006 0.940090
C13   C     C_R   0.046281 0.417892 0.787365 -0.221260
C14   C     C_1   0.500000 0.065186 0.499991 -0.191734
C15   C     C_1   0.500000 0.934814 0.500008 -0.191734
C16   C     C_R   0.326170 0.499999 0.500000 0.890195
C17   C     C_R   0.673830 0.500001 0.500000 0.890195
C18   C     C_R   0.815144 0.539980 0.356285 -0.258233
C19   C     C_R   0.184856 0.460020 0.643715 -0.258233
C20   C     C_R   0.815144 0.460028 0.643716 -0.258235
C21   C     C_R   0.184856 0.539972 0.356284 -0.258235
C22   C     C_R   0.769522 0.500003 0.500000 -0.069221
H1    H     H_    0.918473 0.385572 0.898483 0.153825
H2    H     H_    0.081527 0.614427 0.101517 0.153825
H3    H     H_    0.918473 0.614432 0.101518 0.153824
H4    H     H_    0.081527 0.385568 0.898482 0.153824
H5    H     H_    0.778992 0.571690 0.245780 0.162591
H6    H     H_    0.221008 0.428309 0.754220 0.162591
H7    H     H_    0.778993 0.428318 0.754220 0.162592
H8    H     H_    0.221007 0.571682 0.245780 0.162592
N1    N     N_1   0.500000 0.500000 0.073640 -0.038686
N2    N     N_1   0.500000 0.500000 0.926360 -0.038686
O1    O     O_R   0.500000 0.285350 0.636850 -0.617070
O2    O     O_R   0.500000 0.714650 0.363150 -0.617070
O3    O     O_R   0.500000 0.714650 0.636850 -0.614589
O4    O     O_R   0.500000 0.285350 0.363150 -0.614589
O5    O     O_R   0.367850 0.500000 0.636890 -0.627306
O6    O     O_R   0.632150 0.500000 0.363110 -0.627306
O7    O     O_R   0.632150 0.500000 0.636890 -0.627306
O8    O     O_R   0.367850 0.500000 0.363110 -0.627307
Zn1   Zn    Zn3+2 0.500000 0.500000 0.682780 0.985903
Zn2   Zn    Zn3+2 0.500000 0.500000 0.317220 0.985903

loop_
_geom_bond_atom_site_label_1
_geom_bond_atom_site_label_2
_ccdc_geom_bond_type
N2    Zn1   S    
O6    Zn2   S    
C4    C21   A    
N1    Zn2   S    
C1    C14   S    
C2    C16   S    
C21   H8    S    
O4    Zn2   S    
N1    N2    T    
O2    Zn2   S    
C12   C15   S    
C16   O5    A    
C4    C8    A    
O1    Zn1   S    
C2    C21   A    
O8    Zn2   S    
C1    O1    A    
C7    C8    A    
O7    Zn1   S    
C6    C13   A    
C6    C19   A    
C20   H7    S    
C16   O8    A    
C3    C9    A    
C20   C22   A    
C5    C11   A    
C3    C7    A    
C17   O6    A    
O5    Zn1   S    
O3    Zn1   S    
C13   H4    S    
C10   C11   A    
C11   H3    S    
C4    C10   A    
C19   H6    S    
C3    C20   A    
C17   O7    A    
C5    C7    A    
C9    C13   A    
C14   C15   T    
C9    H1    S    
C6    C8    A    
C5    C18   A    
C10   H2    S    
C2    C19   A    
C18   C22   A    
C12   O2    A    
C18   H5    S    
C17   C22   S    
C1    O4    A    
C12   O3    A    
