data_mof_unit_46494.cif
_audit_creation_date              2012-12-10T20:07:09-0500
_audit_creation_method            fapswitch 2.2
_symmetry_space_group_name_H-M    P1
_symmetry_Int_Tables_number       1
_space_group_crystal_system       triclinic
_cell_length_a                    19.265065
_cell_length_b                    18.422699
_cell_length_c                    10.600797
_cell_angle_alpha                 90.048015
_cell_angle_beta                  90.645306
_cell_angle_gamma                 90.07058
_cell_volume                      3762.13365659

loop_
_atom_site_label
_atom_site_type_symbol
_atom_type_description
_atom_site_fract_x
_atom_site_fract_y
_atom_site_fract_z
_atom_type_partial_charge
C1    C     C_R   0.366007 0.499958 0.499922 0.813265
C2    C     C_R   0.633967 0.500054 0.499946 0.814921
C3    C     C_R   0.708814 0.500232 0.499152 -0.196960
C4    C     C_R   0.291107 0.499808 0.498247 -0.195505
C5    C     C_R   0.964268 0.565769 0.484936 0.119488
C6    C     C_R   0.035701 0.432417 0.509453 0.120814
C7    C     C_R   0.037017 0.564718 0.480086 0.138460
C8    C     C_R   0.963163 0.433160 0.507812 0.151032
C9    C     C_R   0.072077 0.498124 0.493354 -0.068165
C10   C     C_R   0.928032 0.499771 0.496649 -0.056664
C11   C     C_R   0.555292 0.726088 0.549680 0.014368
C12   C     C_R   0.444738 0.273925 0.450173 0.014364
C13   C     C_R   0.444713 0.725900 0.450301 0.015512
C14   C     C_R   0.555287 0.274103 0.549700 0.016356
C15   C     C_R   0.556419 0.802156 0.550389 -0.240911
C16   C     C_R   0.443625 0.197856 0.449398 -0.242485
C17   C     C_R   0.443599 0.801964 0.449545 -0.238646
C18   C     C_R   0.556425 0.198042 0.550338 -0.239000
C19   C     C_R   0.500013 0.841407 0.499948 0.156985
C20   C     C_R   0.500027 0.158602 0.499857 0.155875
C21   C     C_R   0.471963 0.961843 0.397389 -0.148901
C22   C     C_R   0.528091 0.038163 0.602380 -0.149132
C23   C     C_R   0.528083 0.962029 0.602408 -0.148603
C24   C     C_R   0.471971 0.037979 0.397361 -0.148214
C25   C     C_R   0.500031 0.077301 0.499861 0.097947
C26   C     C_R   0.500019 0.922706 0.499913 0.097873
C27   C     C_R   0.489402 0.499917 0.259834 0.865974
C28   C     C_R   0.510871 0.500033 0.740011 0.867452
C29   C     C_R   0.459698 0.632662 0.108042 -0.239042
C30   C     C_R   0.540867 0.366920 0.891167 -0.228415
C31   C     C_R   0.539429 0.633298 0.892031 -0.237732
C32   C     C_R   0.461929 0.366102 0.108004 -0.227989
C33   C     C_R   0.478199 0.699398 0.054541 0.019063
C34   C     C_R   0.522720 0.300157 0.944877 0.014887
C35   C     C_R   0.520060 0.699731 0.945626 0.017916
C36   C     C_R   0.481258 0.299729 0.054212 0.013626
C37   C     C_R   0.516082 0.566526 0.941569 0.097103
C38   C     C_R   0.484928 0.433025 0.058321 0.094480
C39   C     C_R   0.483882 0.566263 0.058364 0.095782
C40   C     C_R   0.516887 0.433336 0.941240 0.095468
C41   C     C_R   0.522718 0.500027 0.876346 -0.222899
C42   C     C_R   0.478010 0.499644 0.123374 -0.223130
C43   C     C_R   0.743718 0.522413 0.388957 -0.038104
C44   C     C_R   0.255211 0.474966 0.389242 -0.017549
C45   C     C_R   0.254947 0.524197 0.605685 -0.037340
C46   C     C_R   0.745871 0.478140 0.608453 -0.035600
C47   C     C_R   0.816041 0.522320 0.389980 -0.107626
C48   C     C_R   0.182977 0.474236 0.389775 -0.174245
C49   C     C_R   0.182621 0.523421 0.602230 -0.102161
C50   C     C_R   0.818090 0.478210 0.605700 -0.115146
C51   C     C_R   0.852588 0.500239 0.497444 0.098486
C52   C     C_R   0.147378 0.498065 0.495502 0.089724
H1    H     H_    0.426552 0.632842 0.189930 0.141716
H2    H     H_    0.573536 0.366622 0.808744 0.140952
H3    H     H_    0.572571 0.634001 0.810148 0.141658
H4    H     H_    0.429045 0.365046 0.190098 0.142622
H5    H     H_    0.844435 0.538465 0.306835 0.182575
H6    H     H_    0.153844 0.456017 0.307530 0.179788
H7    H     H_    0.153202 0.541640 0.682873 0.178896
H8    H     H_    0.848049 0.462001 0.688148 0.181693
H9    H     H_    0.598769 0.696310 0.588910 0.118062
H10   H     H_    0.401281 0.303717 0.410869 0.117766
H11   H     H_    0.401232 0.695978 0.411077 0.118256
H12   H     H_    0.598754 0.304031 0.588992 0.117592
H13   H     H_    0.601449 0.829913 0.588938 0.133118
H14   H     H_    0.398614 0.170102 0.410770 0.134417
H15   H     H_    0.398574 0.829568 0.410977 0.133415
H16   H     H_    0.601453 0.170436 0.588891 0.134388
H17   H     H_    0.450945 0.933606 0.315882 0.173846
H18   H     H_    0.549110 0.066395 0.683890 0.174467
H19   H     H_    0.549089 0.933937 0.683941 0.172655
H20   H     H_    0.450965 0.066071 0.315828 0.172225
N1    N     N_R   0.500000 0.689440 0.500000 -0.089730
N2    N     N_R   0.500000 0.310560 0.500000 -0.089975
O1    O     O_R   0.398180 0.560840 0.499970 -0.626773
O2    O     O_R   0.601820 0.439160 0.500030 -0.620552
O3    O     O_R   0.601820 0.560840 0.500030 -0.627091
O4    O     O_R   0.398180 0.439160 0.499970 -0.621153
O5    O     O_R   0.499990 0.560810 0.316770 -0.614664
O6    O     O_R   0.500010 0.439190 0.683230 -0.611988
O7    O     O_R   0.500010 0.560810 0.683230 -0.615263
O8    O     O_R   0.499990 0.439190 0.316770 -0.613448
Zn1   Zn    Zn3+2 0.500000 0.581210 0.500000 0.942568
Zn2   Zn    Zn3+2 0.500000 0.418790 0.500000 0.947690
C53   C     C_2   0.460283 0.232676 0.121000 0.477075
H21   H     H_    0.412438 0.232103 0.174073 0.023313
O9    O     O_2   0.497587 0.179195 0.124102 -0.527673
C54   C     C_2   0.541320 0.766721 0.878959 0.478086
H22   H     H_    0.589242 0.767152 0.826109 0.016845
O10   O     O_2   0.504164 0.820311 0.875660 -0.527080
C55   C     C_2   0.544813 0.233542 0.877965 0.475176
H23   H     H_    0.592563 0.234016 0.824608 0.023155
O11   O     O_2   0.508512 0.179212 0.875099 -0.529328
C56   C     C_2   0.456062 0.766053 0.121284 0.477179
H24   H     H_    0.408195 0.765667 0.174301 0.017018
O12   O     O_2   0.492452 0.820314 0.124445 -0.528404
C57   C     C_2   0.705542 0.544028 0.271901 0.429663
H25   H     H_    0.649382 0.541034 0.266475 0.082679
O13   O     O_2   0.736558 0.565324 0.179111 -0.557451
C58   C     C_2   0.292173 0.451647 0.273568 0.399626
H26   H     H_    0.347884 0.457359 0.266906 0.036495
O14   O     O_2   0.260597 0.426019 0.183415 -0.563434
C59   C     C_2   0.291780 0.548781 0.722471 0.424092
H27   H     H_    0.347887 0.546159 0.730196 0.085297
O15   O     O_2   0.259682 0.572124 0.812520 -0.560372
C60   C     C_2   0.710090 0.456666 0.726430 0.404598
H28   H     H_    0.654298 0.461095 0.733847 0.034154
O16   O     O_2   0.742728 0.433978 0.817600 -0.557432
N3    N     N_2   0.926867 0.632416 0.476113 -0.303091
H29   H     H_    0.947693 0.670368 0.416028 0.236411
C61   C     C_3   0.906967 0.662982 0.596139 -0.755423
H30   H     H_    0.875055 0.712303 0.579841 0.242997
H31   H     H_    0.953779 0.678216 0.652351 0.230180
H32   H     H_    0.875552 0.623600 0.650501 0.256335
N4    N     N_2   0.071279 0.365186 0.525587 -0.307355
H33   H     H_    0.111656 0.356850 0.464398 0.241173
C62   C     C_3   0.089662 0.348308 0.654957 -0.757182
H34   H     H_    0.129797 0.386656 0.690786 0.249712
H35   H     H_    0.110830 0.292356 0.660033 0.246311
H36   H     H_    0.043312 0.351289 0.716147 0.241859
N5    N     N_2   0.075717 0.630320 0.467035 -0.300337
H37   H     H_    0.056172 0.674188 0.515371 0.234519
C63   C     C_3   0.094457 0.647823 0.338813 -0.748550
H38   H     H_    0.127606 0.697162 0.338708 0.242247
H39   H     H_    0.047227 0.658408 0.280679 0.228548
H40   H     H_    0.124188 0.602780 0.295821 0.259657
N6    N     N_2   0.924906 0.366959 0.514987 -0.298368
H41   H     H_    0.945950 0.328624 0.574866 0.254091
C64   C     C_3   0.905561 0.336660 0.393688 -0.724573
H42   H     H_    0.872688 0.287856 0.407780 0.239901
H43   H     H_    0.952707 0.320632 0.341038 0.241248
H44   H     H_    0.875311 0.376578 0.337170 0.249624

loop_
_geom_bond_atom_site_label_1
_geom_bond_atom_site_label_2
_ccdc_geom_bond_type
C38   C40   A    
C21   C26   A    
C12   N2    A    
C14   C18   A    
C61   H30   S    
O6    Zn2   S    
C33   C56   S    
O2    Zn2   S    
C6    C9    A    
C57   H25   S    
C63   H38   S    
C53   H21   S    
C15   C19   A    
C30   H2    S    
C3    C43   A    
C29   H1    S    
C32   C36   A    
C38   C42   A    
C27   O5    A    
C62   H35   S    
C63   H39   S    
C47   H5    S    
C20   C25   S    
O3    Zn1   S    
C18   H16   S    
N4    H33   S    
C15   H13   S    
C29   C33   A    
C28   C41   S    
C23   C26   A    
C19   C26   S    
C34   C55   S    
C45   C59   S    
O7    Zn1   S    
C11   C15   A    
C12   C16   A    
N4    C62   S    
C22   C25   A    
C32   C38   A    
C18   C20   A    
C64   H44   S    
C60   O16   D    
C1    O4    A    
C9    C52   S    
C7    N5    S    
C10   C51   S    
C22   H18   S    
C57   O13   D    
C39   C42   A    
C4    C45   A    
C53   O9    D    
C17   H15   S    
C30   C34   A    
C1    O1    A    
C23   H19   S    
C24   C25   A    
C61   H31   S    
C11   N1    A    
C62   H36   S    
N2    Zn2   S    
C55   H23   S    
C5    C7    A    
C17   C19   A    
C63   H40   S    
C6    C8    A    
C4    C44   A    
C31   C37   A    
C21   H17   S    
N6    C64   S    
C55   O11   D    
C12   H10   S    
C35   C54   S    
C8    N6    S    
C13   H11   S    
C45   C49   A    
C16   C20   A    
C49   C52   A    
C14   H12   S    
C29   C39   A    
C58   O14   D    
C50   C51   A    
C30   C40   A    
C59   O15   D    
C56   O12   D    
N5    H37   S    
C40   C41   A    
C54   O10   D    
O8    Zn2   S    
C31   C35   A    
C16   H14   S    
N6    H41   S    
C14   N2    A    
C2    O2    A    
C24   H20   S    
C64   H42   S    
C7    C9    A    
C28   O7    A    
C27   O8    A    
C43   C57   S    
C13   N1    A    
C11   H9    S    
C47   C51   A    
C48   H6    S    
C36   C53   S    
C46   C50   A    
C3    C46   A    
C49   H7    S    
C13   C17   A    
C1    C4    S    
C50   H8    S    
N3    C61   S    
C2    C3    S    
C5    C10   A    
C37   C39   A    
C2    O3    A    
C62   H34   S    
O5    Zn1   S    
C44   C58   S    
C27   C42   S    
O1    Zn1   S    
C5    N3    S    
C46   C60   S    
C58   H26   S    
C33   C35   A    
N1    Zn1   S    
C61   H32   S    
C34   C36   A    
C37   C41   A    
C56   H24   S    
C28   O6    A    
C6    N4    S    
N5    C63   S    
O4    Zn2   S    
C48   C52   A    
C54   H22   S    
C8    C10   A    
C60   H28   S    
C21   C24   A    
C59   H27   S    
C22   C23   A    
C31   H3    S    
N3    H29   S    
C43   C47   A    
C32   H4    S    
C44   C48   A    
C64   H43   S    
