data_mof_unit_18797.cif
_audit_creation_date              2012-12-10T19:34:59-0500
_audit_creation_method            fapswitch 2.2
_symmetry_space_group_name_H-M    P1
_symmetry_Int_Tables_number       1
_space_group_crystal_system       triclinic
_cell_length_a                    10.925334
_cell_length_b                    15.779463
_cell_length_c                    17.128796
_cell_angle_alpha                 96.857679
_cell_angle_beta                  92.73459
_cell_angle_gamma                 92.400063
_cell_volume                      2925.09838144

loop_
_atom_site_label
_atom_site_type_symbol
_atom_type_description
_atom_site_fract_x
_atom_site_fract_y
_atom_site_fract_z
_atom_type_partial_charge
C1    C     C_R   0.505679 0.488916 0.348661 0.790876
C2    C     C_R   0.494324 0.511085 0.651339 0.790878
C3    C     C_R   0.512187 0.481966 0.262392 -0.043652
C4    C     C_R   0.487837 0.518037 0.737608 -0.043624
C5    C     C_R   0.483092 0.553534 0.224988 -0.285364
C6    C     C_R   0.517038 0.446492 0.775016 -0.285377
C7    C     C_R   0.485094 0.550678 0.143842 -0.165734
C8    C     C_R   0.515074 0.449357 0.856163 -0.165717
C9    C     C_R   0.517280 0.475760 0.097871 0.339216
C10   C     C_R   0.482807 0.524259 0.902131 0.339228
C11   C     C_R   0.549203 0.405033 0.134619 -0.200312
C12   C     C_R   0.450786 0.594964 0.865379 -0.200322
C13   C     C_R   0.547185 0.406586 0.216463 0.127567
C14   C     C_R   0.452775 0.593404 0.783533 0.127549
C15   C     C_R   0.440898 0.751133 0.460007 0.032219
C16   C     C_R   0.559068 0.248870 0.540015 0.032244
C17   C     C_R   0.444767 0.840526 0.462777 -0.324226
C18   C     C_R   0.555197 0.159478 0.537247 -0.324224
C19   C     C_R   0.526079 0.891554 0.517491 0.373493
C20   C     C_R   0.473921 0.108446 0.482508 0.373488
C21   C     C_R   0.601801 0.849496 0.568334 0.054865
C22   C     C_R   0.398233 0.150501 0.431643 0.054877
C23   C     C_R   0.262221 0.499480 0.492325 0.811795
C24   C     C_R   0.737780 0.500519 0.507671 0.811798
C25   C     C_R   0.594446 0.759429 0.563013 0.049660
C26   C     C_R   0.405583 0.240568 0.436967 0.049652
C27   C     C_R   0.094135 0.485693 0.344302 0.171433
C28   C     C_R   0.905867 0.514315 0.655695 0.171439
C29   C     C_R   0.011080 0.480959 0.278686 -0.106216
C30   C     C_R   0.988924 0.519070 0.721314 -0.106213
C31   C     C_R   0.886909 0.483554 0.287678 -0.202037
C32   C     C_R   0.113097 0.516467 0.712323 -0.202057
C33   C     C_R   0.842899 0.490378 0.362130 -0.145387
C34   C     C_R   0.157106 0.509621 0.637870 -0.145402
C35   C     C_R   0.921931 0.494720 0.430890 0.044853
C36   C     C_R   0.078070 0.505279 0.569108 0.044869
C37   C     C_R   0.050726 0.493328 0.423104 0.044094
C38   C     C_R   0.949275 0.506674 0.576893 0.044089
C39   C     C_R   0.871905 0.500561 0.506254 -0.160333
C40   C     C_R   0.128095 0.499438 0.493743 -0.160334
Cu1   Cu    Cu3+1 0.493970 0.415220 0.496180 0.930926
Cu2   Cu    Cu3+1 0.506030 0.584780 0.503820 0.930921
N1    N     N_2   0.518971 0.468408 0.014664 -0.259424
N2    N     N_2   0.481125 0.531613 0.985338 -0.259419
N3    N     N_R   0.515100 0.712130 0.509560 -0.183438
N4    N     N_R   0.484900 0.287870 0.490440 -0.183430
N5    N     N_2   0.534748 0.983545 0.523513 -0.235460
N6    N     N_2   0.465251 0.016455 0.476487 -0.235461
O1    O     O_R   0.494360 0.420530 0.382500 -0.585808
O2    O     O_R   0.505640 0.579470 0.617500 -0.585797
O3    O     O_R   0.504550 0.563720 0.388950 -0.589973
O4    O     O_R   0.495450 0.436280 0.611050 -0.589974
O5    O     O_R   0.314560 0.428400 0.496770 -0.578404
O6    O     O_R   0.685440 0.571600 0.503230 -0.578418
O7    O     O_R   0.324750 0.571590 0.503220 -0.581107
O8    O     O_R   0.675250 0.428410 0.496780 -0.581100
H1    H     H_    0.176053 0.519876 0.763530 0.158233
H2    H     H_    0.823957 0.480156 0.236472 0.158226
H3    H     H_    0.615521 0.130967 0.577657 0.167918
H4    H     H_    0.384412 0.869039 0.422387 0.167922
C41   C     C_3   0.690082 0.900091 0.628093 -0.875166
H5    H     H_    0.742645 0.857894 0.663404 0.224003
H6    H     H_    0.756282 0.938348 0.597703 0.248221
H7    H     H_    0.638872 0.943814 0.668938 0.244508
C42   C     C_3   0.309997 0.099901 0.371854 -0.875148
H8    H     H_    0.257453 0.142096 0.336529 0.223997
H9    H     H_    0.361247 0.056188 0.331022 0.244506
H10   H     H_    0.243774 0.061633 0.402219 0.248213
H11   H     H_    0.652162 0.726815 0.601749 0.127290
H12   H     H_    0.347887 0.273180 0.398217 0.127274
C43   C     C_3   0.225975 0.482080 0.325245 -0.886070
H13   H     H_    0.274490 0.542909 0.350332 0.233573
H14   H     H_    0.264796 0.425147 0.347139 0.239477
H15   H     H_    0.239154 0.475287 0.260911 0.225327
C44   C     C_3   0.774021 0.517929 0.674751 -0.886058
H16   H     H_    0.735194 0.574858 0.652852 0.239487
H17   H     H_    0.725513 0.457094 0.649669 0.233560
H18   H     H_    0.760835 0.524727 0.739085 0.225327
H19   H     H_    0.042424 0.475350 0.219286 0.137764
H20   H     H_    0.957582 0.524694 0.780713 0.137764
H21   H     H_    0.745015 0.492307 0.364474 0.139111
H22   H     H_    0.254991 0.507677 0.635527 0.139113
H23   H     H_    0.543681 0.388141 0.741527 0.171140
H24   H     H_    0.456514 0.611900 0.258478 0.171173
H25   H     H_    0.539328 0.392931 0.882568 0.160582
H26   H     H_    0.460932 0.607124 0.117442 0.160586
H27   H     H_    0.574988 0.348024 0.098568 0.141822
H28   H     H_    0.424944 0.651961 0.901426 0.141821
C45   C     C_3   0.584477 0.327926 0.252080 -0.818981
H29   H     H_    0.619177 0.279093 0.207429 0.216571
H30   H     H_    0.659155 0.344901 0.298222 0.241684
H31   H     H_    0.504259 0.298057 0.277551 0.244394
C46   C     C_3   0.415386 0.672042 0.747908 -0.818968
H32   H     H_    0.380625 0.720855 0.792556 0.216570
H33   H     H_    0.495572 0.701956 0.722439 0.244415
H34   H     H_    0.340722 0.655023 0.701763 0.241661
H35   H     H_    0.621860 0.287274 0.582071 0.134430
H36   H     H_    0.378080 0.712732 0.417969 0.134445

loop_
_geom_bond_atom_site_label_1
_geom_bond_atom_site_label_2
_ccdc_geom_bond_type
C46   H32   S    
C27   C29   A    
Cu1   Cu2   S    
C2    C4    S    
C44   H16   S    
C22   C42   S    
C31   H2    S    
C35   C37   A    
C37   C40   A    
C38   C39   A    
C19   N5    S    
C16   H35   S    
C7    H26   S    
C24   O6    A    
C23   C40   S    
C24   C39   S    
C18   C20   A    
C7    C9    A    
C8    H25   S    
C41   H6    S    
C2    O2    A    
C33   C35   A    
C11   H27   S    
C42   H9    S    
Cu1   N4    S    
C31   C33   A    
C45   H30   S    
C14   C46   S    
C21   C41   S    
C3    C13   A    
Cu2   O3    S    
C30   H20   S    
C46   H33   S    
C32   H1    S    
C10   C12   A    
Cu1   O1    S    
C23   O5    A    
C9    N1    S    
C12   H28   S    
C10   N2    S    
C36   C40   A    
C4    C6    A    
C16   N4    A    
C5    C7    A    
C5    H24   S    
C6    C8    A    
C1    C3    S    
Cu2   N3    S    
C32   C34   A    
C41   H7    S    
C35   C39   A    
N1    N2    D    
Cu1   O8    S    
Cu2   O7    S    
C44   H17   S    
N5    N6    D    
C29   H19   S    
C28   C38   A    
C42   H10   S    
C45   H31   S    
C1    O3    A    
Cu1   O5    S    
C20   N6    S    
C2    O4    A    
Cu2   O2    S    
C8    C10   A    
C20   C22   A    
C46   H34   S    
C9    C11   A    
C26   H12   S    
C25   H11   S    
C15   N3    A    
C15   H36   S    
C25   N3    A    
C27   C43   S    
C43   H14   S    
C15   C17   A    
C21   C25   A    
C6    H23   S    
Cu1   O4    S    
C13   C45   S    
C12   C14   A    
C3    C5    A    
C43   H15   S    
C23   O7    A    
C24   O8    A    
C36   C38   A    
C43   H13   S    
C29   C31   A    
Cu2   O6    S    
C30   C32   A    
C11   C13   A    
C1    O1    A    
C27   C37   A    
C28   C30   A    
C17   C19   A    
C34   C36   A    
C4    C14   A    
C41   H5    S    
C44   H18   S    
C26   N4    A    
C17   H4    S    
C18   H3    S    
C16   C18   A    
C42   H8    S    
C22   C26   A    
C34   H22   S    
C45   H29   S    
C28   C44   S    
C33   H21   S    
C19   C21   A    
