data_mof_unit_30243.cif
_audit_creation_date              2013-03-05T16:11:15-0500
_audit_creation_method            fapswitch 2.2
_symmetry_space_group_name_H-M    P1
_symmetry_Int_Tables_number       1
_space_group_crystal_system       triclinic
_cell_length_a                    6.940318
_cell_length_b                    20.491952
_cell_length_c                    24.490124
_cell_angle_alpha                 90.445385
_cell_angle_beta                  90.590131
_cell_angle_gamma                 89.701694
_cell_volume                      3482.66593973

loop_
_atom_site_label
_atom_site_type_symbol
_atom_site_description
_atom_site_fract_x
_atom_site_fract_y
_atom_site_fract_z
_atom_type_partial_charge
O1    O     O_R   0.507280 0.423750 0.460310 -0.583303
O2    O     O_R   0.171030 0.555650 0.437630 -0.567901
O3    O     O_R   0.004080 0.576250 0.539690 -0.575545
C1    C     C_R   0.339482 0.574981 0.421290 0.990923
O4    O     O_R   0.177330 0.422980 0.453960 -0.581152
O5    O     O_R   0.010420 0.442640 0.556140 -0.588962
C2    C     C_R   0.345380 0.398907 0.442887 0.947683
O6    O     O_R   0.500930 0.557360 0.443860 -0.578579
O7    O     O_3   0.340310 0.506600 0.533500 -0.276405
V1    V     V_3+5 0.064140 0.498780 0.493780 1.250169
O8    O     O_R   0.680890 0.444350 0.562370 -0.586574
C3    C     C_R   0.850521 0.424350 0.578041 0.962063
O9    O     O_R   0.674590 0.577020 0.546040 -0.603956
C4    C     C_R   0.842667 0.601537 0.556574 0.976351
V2    V     V_3+5 0.564550 0.501220 0.506220 1.229582
O10   O     O_3   0.838250 0.493400 0.466500 -0.249604
C5    C     C_R   0.969248 0.838320 0.909419 -0.360254
C6    C     C_R   0.844743 0.664393 0.587522 -0.177585
C7    C     C_R   0.910744 0.721079 0.903826 0.323012
C8    C     C_R   0.908538 0.780067 0.933740 0.259461
C9    C     C_R   0.013358 0.838563 0.853009 -0.201115
C10   C     C_R   0.978679 0.781277 0.820655 0.046706
C11   C     C_R   0.964229 0.720835 0.847919 -0.063780
C12   C     C_R   0.947950 0.781937 0.762555 0.105430
C13   C     C_R   0.952743 0.722661 0.731714 0.070862
C14   C     C_R   0.989820 0.664389 0.760208 -0.250134
C15   C     C_R   0.995904 0.662714 0.817424 -0.089736
C16   C     C_R   0.895334 0.839623 0.735495 -0.175071
C17   C     C_R   0.851831 0.840729 0.679904 -0.134461
C18   C     C_R   0.833196 0.781131 0.650376 0.036321
C19   C     C_R   0.907414 0.722956 0.674257 0.141600
C20   C     C_R   0.732913 0.777126 0.599270 -0.148231
C21   C     C_R   0.737970 0.718521 0.568332 -0.145374
C22   C     C_R   0.925088 0.666640 0.640316 -0.199683
H1    H     H_    0.996335 0.622894 0.654297 0.112065
H2    H     H_    0.008165 0.618579 0.738995 0.157706
H3    H     H_    0.879426 0.884963 0.757576 0.173607
C23   C     C_R   0.760325 0.297606 0.750127 -0.149399
C24   C     C_R   0.895566 0.296139 0.707100 -0.028559
C25   C     C_R   0.043494 0.248135 0.706925 -0.150218
C26   C     C_R   0.057551 0.202581 0.750048 0.331057
C27   C     C_R   0.924297 0.204023 0.793106 -0.026294
C28   C     C_R   0.774643 0.251363 0.793146 -0.185935
C29   C     C_1   0.876602 0.341683 0.661396 0.135326
C30   C     C_1   0.945779 0.158147 0.838424 0.156495
C31   C     C_1   0.960669 0.120427 0.876359 -0.182432
C32   C     C_1   0.863055 0.379461 0.623490 -0.201139
C33   C     C_R   0.575387 0.790959 0.248235 -0.152410
C34   C     C_R   0.439490 0.792475 0.204637 -0.024289
C35   C     C_R   0.288849 0.745939 0.202846 -0.172181
C36   C     C_R   0.270370 0.699897 0.245439 0.344653
C37   C     C_R   0.401294 0.699486 0.289850 -0.017203
C38   C     C_R   0.557206 0.743898 0.290463 -0.181293
C39   C     C_1   0.461049 0.839265 0.159890 0.144674
C40   C     C_1   0.371827 0.654806 0.335788 0.149594
C41   C     C_1   0.351621 0.618307 0.374445 -0.229255
C42   C     C_1   0.475499 0.878122 0.122786 -0.161244
C43   C     C_R   0.479001 0.163007 0.089220 -0.219298
C44   C     C_R   0.344842 0.337073 0.411060 -0.139343
C45   C     C_R   0.599788 0.273756 0.101394 0.345986
C46   C     C_R   0.560698 0.219709 0.067045 -0.168131
C47   C     C_R   0.420197 0.163733 0.143928 -0.129508
C48   C     C_R   0.450305 0.219051 0.178298 0.125113
C49   C     C_R   0.570625 0.269204 0.158639 -0.050206
C50   C     C_R   0.376474 0.224028 0.232777 -0.011350
C51   C     C_R   0.461421 0.270033 0.270248 -0.015043
C52   C     C_R   0.624608 0.305522 0.253088 0.216944
C53   C     C_R   0.668415 0.309752 0.197083 -0.203719
C54   C     C_R   0.219671 0.185577 0.251364 -0.099533
C55   C     C_R   0.179099 0.183520 0.307119 -0.162280
C56   C     C_R   0.262133 0.227656 0.344409 0.086197
C57   C     C_R   0.386690 0.276484 0.324498 0.157517
C58   C     C_R   0.204015 0.229051 0.399879 -0.077552
C59   C     C_R   0.245057 0.284114 0.432121 -0.164922
C60   C     C_R   0.416737 0.333008 0.357683 -0.116176
H4    H     H_    0.481307 0.376236 0.340873 0.161375
H5    H     H_    0.193389 0.286828 0.473738 0.147191
H6    H     H_    0.062465 0.152635 0.320111 0.190605
H7    H     H_    0.364052 0.118940 0.160328 0.099960
O11   O     O_R   0.323320 0.942780 0.056240 -0.589173
O12   O     O_R   0.647300 0.077050 0.046060 -0.606074
O13   O     O_R   0.813840 0.057330 0.943840 -0.578802
C61   C     C_R   0.479261 0.100931 0.057426 0.978694
O14   O     O_R   0.653250 0.944380 0.062400 -0.575000
O15   O     O_R   0.819830 0.923720 0.960300 -0.572897
C62   C     C_R   0.485198 0.924120 0.077966 0.976902
O16   O     O_R   0.317330 0.076390 0.039790 -0.571881
O17   O     O_3   0.483830 0.993470 0.966560 -0.257787
V3    V     V_3+5 0.760140 0.001210 0.006210 1.257772
O18   O     O_R   0.149290 0.922840 0.953850 -0.593497
C63   C     C_R   0.980434 0.898702 0.943193 1.108567
O19   O     O_R   0.143340 0.055500 0.937510 -0.564888
C64   C     C_R   0.973689 0.075757 0.921999 1.033052
V4    V     V_3+5 0.259690 0.998600 0.993650 1.268605
O20   O     O_3   0.986130 0.006520 0.033440 -0.281184
C65   C     C_2   0.062002 0.601206 0.843370 1.102332
O21   O     O_2   0.011718 0.548438 0.824529 -0.591617
O22   O     O_R   0.188266 0.603688 0.888225 -0.735753
H8    H     H_    0.225037 0.558724 0.901961 0.369401
C66   C     C_2   0.602273 0.830609 0.580834 1.068686
O23   O     O_2   0.478806 0.851957 0.611573 -0.599411
O24   O     O_R   0.619292 0.855761 0.528192 -0.721383
H9    H     H_    0.521836 0.891611 0.520418 0.358923
C67   C     C_2   0.637250 0.253995 0.839376 1.065972
O25   O     O_2   0.557789 0.204246 0.854423 -0.575913
O26   O     O_R   0.599156 0.313443 0.865643 -0.752440
H10   H     H_    0.502915 0.309022 0.896239 0.361967
C68   C     C_2   0.600045 0.346315 0.748945 1.129517
O27   O     O_2   0.435053 0.329299 0.758275 -0.618172
O28   O     O_R   0.638050 0.411600 0.737046 -0.771023
H11   H     H_    0.517536 0.439776 0.737233 0.339518
C69   C     C_2   0.182876 0.244972 0.661234 1.078258
O29   O     O_2   0.263604 0.294491 0.646152 -0.643557
O30   O     O_R   0.219588 0.185491 0.634897 -0.735406
H12   H     H_    0.316208 0.189702 0.604367 0.338365
Br1   Br    Br    0.266815 0.139904 0.752375 -0.421982
C70   C     C_2   0.702214 0.740668 0.335309 1.073847
O31   O     O_2   0.739723 0.789400 0.362450 -0.577280
O32   O     O_R   0.798070 0.681835 0.345675 -0.754304
H13   H     H_    0.902743 0.686411 0.374607 0.354089
C71   C     C_2   0.739988 0.837467 0.248515 1.111839
O33   O     O_2   0.903708 0.817961 0.257934 -0.623978
O34   O     O_R   0.707456 0.903557 0.237746 -0.783596
H14   H     H_    0.830453 0.930044 0.238717 0.347044
C72   C     C_2   0.151059 0.744738 0.156003 1.109642
O35   O     O_2   0.070985 0.795032 0.141330 -0.616241
O36   O     O_R   0.114816 0.686126 0.128259 -0.706562
H15   H     H_    0.017953 0.691360 0.097342 0.377084
Br2   Br    Br    0.061479 0.637873 0.244202 -0.370174
C73   C     C_2   0.840245 0.347889 0.181272 1.186524
O37   O     O_2   0.855527 0.404899 0.195763 -0.542249
O38   O     O_R   0.985461 0.318330 0.150415 -0.738841
H16   H     H_    0.096201 0.348942 0.142894 0.349559
Br3   Br    Br    0.651094 0.357208 0.067934 -0.368053
C74   C     C_2   0.612263 0.221516 0.008341 1.057265
O39   O     O_2   0.500755 0.199891 0.973798 -0.620708
O40   O     O_R   0.790281 0.246565 0.992734 -0.730720
H17   H     H_    0.810629 0.243825 0.951860 0.325857
Br4   Br    Br    0.822555 0.331498 0.305669 -0.547242
C75   C     C_2   0.076352 0.153734 0.214400 0.997617
O41   O     O_2   0.024679 0.180500 0.172226 -0.598968
O42   O     O_R   0.994025 0.094321 0.229087 -0.786649
H18   H     H_    0.896284 0.078123 0.201129 0.326817
C76   C     C_2   0.099200 0.174240 0.425460 1.017902
O43   O     O_2   0.979734 0.185365 0.460767 -0.612758
O44   O     O_R   0.142029 0.109738 0.410728 -0.768917
H19   H     H_    0.062351 0.076928 0.431356 0.357689
C77   C     C_2   0.624182 0.712427 0.516863 1.065703
O45   O     O_2   0.451762 0.725214 0.516342 -0.627073
O46   O     O_R   0.713670 0.690400 0.469437 -0.779669
H20   H     H_    0.619368 0.687274 0.437805 0.321812
C78   C     C_2   0.845798 0.905910 0.653716 1.085805
O47   O     O_2   0.919365 0.913605 0.609065 -0.587013
O48   O     O_R   0.763604 0.959119 0.681177 -0.741295
H21   H     H_    0.770750 0.000969 0.659495 0.356144
Br5   Br    Br    0.796988 0.645192 0.937073 -0.345807
Br6   Br    Br    0.833248 0.780564 0.009560 -0.455055
C79   C     C_2   0.120062 0.894708 0.830037 1.023227
O49   O     O_2   0.258340 0.884604 0.800517 -0.588851
O50   O     O_R   0.060173 0.958693 0.840805 -0.823427
H22   H     H_    0.143555 0.992233 0.822254 0.351356

loop_
_geom_bond_atom_site_label_1
_geom_bond_atom_site_label_2
_geom_bond_distance
_ccdc_geom_bond_type
C43   C47   1.404558 A    
C61   O16   1.301921 A    
C40   C41   1.220736 T    
C48   C50   1.436831 A    
C9    C79   1.488679 S    
C13   C19   1.438752 A    
C45   Br3   1.938266 S    
C55   H6    1.082042 S    
C26   C27   1.409765 A    
C4    C6    1.489446 S    
C7    C11   1.422257 A    
C7    C8    1.408677 A    
C5    C63   1.484909 S    
C1    O6    1.295212 A    
C69   O30   1.398030 S    
O30   H12   1.013947 S    
C36   Br2   1.932833 S    
O34   H14   1.013948 S    
C25   C69   1.487486 S    
C30   C31   1.216392 T    
C42   C62   1.454689 S    
C14   C15   1.402102 A    
C17   C18   1.420274 A    
O13   V3    1.959087 S    
C49   C53   1.420567 A    
C16   C17   1.391782 A    
O14   C62   1.301801 A    
C70   O32   1.397663 S    
O5    C3    1.295929 A    
C23   C24   1.418402 A    
C38   C70   1.483600 S    
O26   H10   1.013801 S    
O4    V1    1.990066 S    
V2    O10   2.147726 S    
O22   H8    1.013836 S    
O16   V4    1.986771 S    
C5    C8    1.406675 A    
C68   O27   1.223043 D    
C22   H1    1.077988 S    
C58   C59   1.400940 A    
C28   C67   1.488203 S    
C69   O29   1.223138 D    
O11   C62   1.295342 A    
O28   H11   1.013886 S    
O8    V2    1.973134 S    
C43   C61   1.486285 S    
C51   C57   1.436106 A    
O38   H16   1.013841 S    
C59   H5    1.084842 S    
C65   O22   1.398916 S    
C55   C56   1.402093 A    
O1    V2    1.977860 S    
C11   C15   1.418247 A    
C52   Br4   1.946651 S    
O7    V1    2.146638 S    
O18   C63   1.297650 A    
C37   C40   1.472588 S    
O12   V3    1.990102 S    
C43   C46   1.410500 A    
C51   C52   1.418219 A    
O13   C64   1.295834 A    
O9    C4    1.295219 A    
C1    C41   1.459472 S    
C79   O50   1.397396 S    
C7    Br5   1.936549 S    
C15   C65   1.484347 S    
C54   C55   1.398013 A    
C72   O35   1.223052 D    
C3    C32   1.451097 S    
C2    C44   1.482473 S    
C67   O25   1.222739 D    
O12   C61   1.294491 A    
O18   V4    1.980092 S    
O15   C63   1.296574 A    
C33   C38   1.426510 A    
O17   V4    1.699873 S    
O42   H18   1.014095 S    
C52   C53   1.411318 A    
C47   H7    1.080907 S    
C74   O39   1.222792 D    
C12   C13   1.425775 A    
C76   O44   1.398689 S    
C33   C71   1.491458 S    
C56   C58   1.421102 A    
O15   V3    1.982990 S    
C13   C14   1.408957 A    
C5    C9    1.418117 A    
C36   C37   1.410088 A    
C45   C46   1.411295 A    
C27   C30   1.465981 S    
V3    O20   1.701666 S    
C73   O38   1.398546 S    
C60   H4    1.081011 S    
C47   C48   1.421663 A    
C21   C77   1.485317 S    
O32   H13   1.013737 S    
C65   O21   1.223445 D    
C66   O24   1.398480 S    
C35   C36   1.419161 A    
O48   H21   1.013861 S    
C19   C22   1.422485 A    
V4    O20   2.147795 S    
C35   C72   1.486062 S    
C75   O41   1.222835 D    
C53   C73   1.485535 S    
C6    C22   1.403291 A    
C44   C59   1.395449 A    
C71   O33   1.222869 D    
C24   C29   1.467355 S    
O3    C4    1.301780 A    
C14   H2    1.076969 S    
C33   C34   1.417750 A    
C78   O48   1.398782 S    
C50   C51   1.435152 A    
O6    V2    1.964411 S    
C8    Br6   1.934065 S    
O9    V2    1.980010 S    
C79   O49   1.223288 D    
C10   C12   1.436747 A    
C27   C28   1.417519 A    
C26   Br1   1.934488 S    
O11   V4    1.964964 S    
O36   H15   1.013288 S    
O2    V1    1.963247 S    
C44   C60   1.405719 A    
C24   C25   1.418180 A    
C37   C38   1.417426 A    
C46   C74   1.485909 S    
O4    C2    1.294461 A    
O44   H19   1.013880 S    
C74   O40   1.398359 S    
C25   C26   1.417215 A    
O1    C2    1.302492 A    
C12   C16   1.404509 A    
C77   O46   1.393648 S    
C76   O43   1.223440 D    
O5    V1    1.959164 S    
O8    C3    1.299773 A    
C29   C32   1.215930 T    
C67   O26   1.398458 S    
C75   O42   1.398709 S    
O40   H17   1.013431 S    
O46   H20   1.010839 S    
C45   C49   1.422387 A    
O50   H22   1.013938 S    
C73   O37   1.223132 D    
O7    V2    1.702659 S    
C23   C28   1.424848 A    
O3    V1    1.983205 S    
V1    O10   1.701592 S    
C70   O31   1.222966 D    
C20   C21   1.415461 A    
C17   C78   1.486387 S    
C18   C20   1.427820 A    
C57   C60   1.424770 A    
O19   V4    1.973355 S    
C18   C19   1.423646 A    
C31   C64   1.452037 S    
C16   H3    1.077115 S    
C54   C75   1.487853 S    
C50   C54   1.427253 A    
O2    C1    1.304150 A    
O19   C64   1.300419 A    
C68   O28   1.398413 S    
C77   O45   1.223626 D    
C23   C68   1.490895 S    
O24   H9    1.013798 S    
C6    C21   1.411623 A    
C71   O34   1.398502 S    
C48   C49   1.417835 A    
C20   C66   1.488619 S    
C56   C57   1.418269 A    
O17   V3    2.146618 S    
C34   C35   1.418866 A    
O14   V3    1.963447 S    
C72   O36   1.398001 S    
C10   C11   1.416136 A    
C66   O23   1.223354 D    
C78   O47   1.223253 D    
C9    C10   1.431218 A    
C39   C42   1.218094 T    
C34   C39   1.470982 S    
C58   C76   1.487293 S    
