data_mof_unit_14837.cif
_audit_creation_date              2012-12-10T20:29:22-0500
_audit_creation_method            fapswitch 2.2
_symmetry_space_group_name_H-M    P1
_symmetry_Int_Tables_number       1
_space_group_crystal_system       triclinic
_cell_length_a                    18.534479
_cell_length_b                    18.686305
_cell_length_c                    18.987064
_cell_angle_alpha                 109.938263
_cell_angle_beta                  109.500681
_cell_angle_gamma                 108.987261
_cell_volume                      5061.15944102

loop_
_atom_site_label
_atom_site_type_symbol
_atom_type_description
_atom_site_fract_x
_atom_site_fract_y
_atom_site_fract_z
_atom_type_partial_charge
C1    C     C_R   0.381521 0.502204 0.380357 0.864930
C2    C     C_R   0.816702 0.767463 0.817912 -0.159116
C3    C     C_R   0.330680 0.276382 0.807599 -0.160544
C4    C     C_R   0.078163 0.321300 0.822626 -0.261904
C5    C     C_R   0.997126 0.314022 0.810900 -0.076528
C6    C     C_R   0.917583 0.245536 0.735359 -0.009082
C7    C     C_R   0.920802 0.184160 0.672039 -0.246049
C8    C     C_R   0.001668 0.189604 0.685059 -0.084452
C9    C     C_R   0.081264 0.258536 0.760701 0.001031
C10   C     C_R   0.785102 0.198648 0.752882 -0.094593
C11   C     C_R   0.703908 0.193319 0.738318 -0.142570
C12   C     C_R   0.668236 0.227319 0.689791 -0.099699
C13   C     C_R   0.825407 0.816216 0.573423 -0.241245
C14   C     C_R   0.713425 0.266141 0.655242 -0.115639
C15   C     C_R   0.794628 0.271602 0.669703 -0.184330
C16   C     C_R   0.831324 0.238782 0.719430 0.103493
C17   C     C_R   0.811160 0.810429 0.494348 -0.082283
C18   C     C_R   0.731899 0.743168 0.416238 0.018178
C19   C     C_R   0.670744 0.680030 0.420171 -0.228325
C20   C     C_R   0.685528 0.686626 0.499625 -0.079945
C21   C     C_R   0.762043 0.755899 0.576866 -0.005096
C22   C     C_R   0.627806 0.723772 0.277432 -0.168952
C23   C     C_R   0.605809 0.714708 0.195717 -0.132858
C24   C     C_R   0.665469 0.717435 0.165770 -0.135734
C25   C     C_R   0.620264 0.620250 0.500251 0.865214
C26   C     C_R   0.747249 0.729370 0.217558 -0.079273
C27   C     C_R   0.769366 0.738478 0.299261 -0.031426
C28   C     C_R   0.710099 0.735946 0.330258 0.113603
C29   C     C_R   0.545683 0.782959 0.488070 -0.127280
C30   C     C_R   0.478874 0.700341 0.417037 -0.127997
C31   C     C_R   0.391326 0.670088 0.399049 0.139299
C32   C     C_R   0.371310 0.723890 0.452383 -0.149804
C33   C     C_R   0.438328 0.806331 0.523522 -0.138298
C34   C     C_R   0.525474 0.835768 0.541446 -0.093206
C35   C     C_R   0.255242 0.579666 0.256800 -0.257138
C36   C     C_R   0.622409 0.501625 0.619529 0.868871
C37   C     C_R   0.187406 0.498930 0.184067 -0.072126
C38   C     C_R   0.182864 0.419705 0.176197 -0.007016
C39   C     C_R   0.248687 0.423329 0.241612 -0.261442
C40   C     C_R   0.316606 0.503972 0.314559 -0.079037
C41   C     C_R   0.320192 0.583210 0.323254 -0.003555
C42   C     C_R   0.053902 0.273017 0.112726 -0.148739
C43   C     C_R   0.986950 0.190132 0.042331 -0.128989
C44   C     C_R   0.977345 0.165904 0.960130 -0.114325
C45   C     C_R   0.034719 0.224491 0.948225 -0.137493
C46   C     C_R   0.101279 0.307847 0.018305 -0.129134
C47   C     C_R   0.378394 0.379832 0.498477 0.863468
C48   C     C_R   0.111132 0.332644 0.101022 0.134450
C49   C     C_R   0.187367 0.505707 0.541443 -0.153861
C50   C     C_R   0.207437 0.442074 0.549814 -0.111196
C51   C     C_R   0.217851 0.387623 0.486218 0.122426
C52   C     C_R   0.206016 0.396643 0.413291 -0.155678
C53   C     C_R   0.184528 0.459516 0.404585 -0.121125
C54   C     C_R   0.175949 0.514443 0.468883 -0.104427
C55   C     C_R   0.174475 0.252912 0.495098 -0.219323
C56   C     C_R   0.187386 0.184483 0.499088 -0.085473
C57   C     C_R   0.262597 0.179761 0.502140 0.009094
C58   C     C_R   0.765633 0.803529 0.788550 0.023707
C59   C     C_R   0.324331 0.245207 0.501353 -0.238443
C60   C     C_R   0.311186 0.313422 0.497120 -0.059197
C61   C     C_R   0.235857 0.318011 0.493735 0.047530
C62   C     C_R   0.351561 0.122244 0.571220 -0.146287
C63   C     C_R   0.366155 0.053180 0.570449 -0.147936
C64   C     C_R   0.306788 0.967875 0.500577 -0.122592
C65   C     C_R   0.232852 0.951539 0.431278 -0.128709
C66   C     C_R   0.217682 0.020328 0.432023 -0.121705
C67   C     C_R   0.276804 0.106180 0.502272 0.130067
C68   C     C_R   0.780538 0.513564 0.611616 -0.179362
C69   C     C_R   0.748663 0.800774 0.709533 -0.162747
C70   C     C_R   0.852111 0.510950 0.604334 -0.154351
C71   C     C_R   0.908894 0.497204 0.660718 -0.153730
C72   C     C_R   0.896041 0.488936 0.726406 -0.186272
C73   C     C_R   0.825629 0.494626 0.736979 0.084910
C74   C     C_R   0.764876 0.502928 0.676423 0.088177
C75   C     C_R   0.691215 0.502178 0.683812 -0.104491
C76   C     C_R   0.679577 0.496509 0.750938 -0.208744
C77   C     C_R   0.740255 0.491019 0.811535 -0.219322
C78   C     C_R   0.813346 0.491278 0.805759 -0.116491
C79   C     C_R   0.997730 0.876938 0.380667 0.857296
C80   C     C_R   0.781508 0.761764 0.660718 0.087553
C81   C     C_R   0.879158 0.877926 0.497367 0.856842
C82   C     C_R   0.000948 0.121568 0.619736 0.876816
C83   C     C_R   0.120627 0.119091 0.499411 0.868020
C84   C     C_R   0.998168 0.379787 0.878258 0.869236
C85   C     C_R   0.120505 0.499208 0.119004 0.867074
C86   C     C_R   0.000689 0.620346 0.120737 0.861459
C87   C     C_R   0.879614 0.496213 0.876613 0.865962
C88   C     C_R   0.087625 0.764391 0.544199 -0.129460
C89   C     C_R   0.081251 0.771662 0.471970 -0.111509
C90   C     C_R   0.000260 0.722563 0.394114 0.012218
C91   C     C_R   0.833392 0.727795 0.691406 -0.170096
C92   C     C_R   0.925151 0.660491 0.387692 -0.025331
C93   C     C_R   0.933265 0.655223 0.462040 -0.170554
C94   C     C_R   0.013581 0.706966 0.539494 -0.148520
C95   C     C_R   0.999928 0.675022 0.255702 -0.158961
C96   C     C_R   0.000898 0.686745 0.187175 -0.084330
C97   C     C_R   0.003260 0.761600 0.183959 -0.004692
C98   C     C_R   0.001004 0.822207 0.248375 -0.271820
C99   C     C_R   0.998640 0.810079 0.316140 -0.092685
C100  C     C_R   0.998582 0.736253 0.321025 0.035745
C101  C     C_R   0.077967 0.853627 0.133669 -0.151715
C102  C     C_R   0.850675 0.730403 0.769438 -0.175287
C103  C     C_R   0.084862 0.865563 0.066947 -0.129954
C104  C     C_R   0.021670 0.801678 0.980804 -0.123124
C105  C     C_R   0.950613 0.726846 0.961594 -0.117454
C106  C     C_R   0.942256 0.715735 0.027772 -0.089315
C107  C     C_R   0.007226 0.777747 0.114160 0.130694
C108  C     C_R   0.284836 0.237846 0.841807 -0.172446
C109  C     C_R   0.204132 0.233259 0.827462 -0.106660
C110  C     C_R   0.167945 0.265975 0.777419 0.115486
C111  C     C_R   0.214146 0.305193 0.743412 -0.222666
C112  C     C_R   0.296413 0.311425 0.758997 0.037035
H1    H     H_    0.830294 0.768250 0.878228 0.175168
H2    H     H_    0.648364 0.710383 0.102505 0.145028
H3    H     H_    0.793575 0.731595 0.194460 0.159116
H4    H     H_    0.833018 0.748274 0.338757 0.090285
H5    H     H_    0.577272 0.899626 0.596466 0.131554
H6    H     H_    0.613078 0.806236 0.501658 0.137172
H7    H     H_    0.494968 0.660089 0.375702 0.095886
H8    H     H_    0.304017 0.701727 0.439135 0.118105
H9    H     H_    0.422687 0.847441 0.564681 0.122087
H10   H     H_    0.256991 0.639960 0.262039 0.151987
H11   H     H_    0.246183 0.362767 0.236315 0.158017
H12   H     H_    0.060988 0.290953 0.176242 0.125497
H13   H     H_    0.942733 0.144553 0.051569 0.142413
H14   H     H_    0.925749 0.101576 0.905750 0.132438
H15   H     H_    0.027697 0.204926 0.884695 0.139589
H16   H     H_    0.145642 0.352628 0.008488 0.106987
H17   H     H_    0.159668 0.563226 0.462083 0.125003
H18   H     H_    0.179899 0.547741 0.590869 0.130905
H19   H     H_    0.214660 0.435204 0.605736 0.169653
H20   H     H_    0.211871 0.354065 0.362670 0.105271
H21   H     H_    0.173684 0.465351 0.347713 0.142633
H22   H     H_    0.709160 0.827625 0.685065 0.170515
H23   H     H_    0.116060 0.255373 0.492759 0.147478
H24   H     H_    0.382897 0.243002 0.503869 0.150418
H25   H     H_    0.398298 0.188082 0.625531 0.164033
H26   H     H_    0.423701 0.065862 0.623864 0.125948
H27   H     H_    0.318292 0.914504 0.499908 0.117069
H28   H     H_    0.187590 0.885588 0.376856 0.135167
H29   H     H_    0.160528 0.006982 0.377653 0.100548
H30   H     H_    0.622704 0.495490 0.755938 0.167110
H31   H     H_    0.739178 0.525843 0.567147 0.158351
H32   H     H_    0.863203 0.519085 0.554404 0.138270
H33   H     H_    0.859886 0.698674 0.654408 0.138745
H34   H     H_    0.963365 0.493296 0.653801 0.138519
H35   H     H_    0.940738 0.476264 0.767236 0.158330
H36   H     H_    0.731328 0.488853 0.864510 0.169790
H37   H     H_    0.018563 0.701698 0.595778 0.129876
H38   H     H_    0.150142 0.803597 0.604051 0.120763
H39   H     H_    0.139640 0.816839 0.477024 0.134169
H40   H     H_    0.877507 0.610150 0.460400 0.176850
H41   H     H_    0.000579 0.618149 0.258453 0.148685
H42   H     H_    0.002009 0.879804 0.246168 0.160802
H43   H     H_    0.890307 0.702936 0.791002 0.144283
H44   H     H_    0.128560 0.902335 0.200231 0.124441
H45   H     H_    0.139836 0.923591 0.081972 0.131322
H46   H     H_    0.028020 0.810211 0.929213 0.127611
H47   H     H_    0.901828 0.676369 0.895685 0.132225
H48   H     H_    0.886709 0.657389 0.011642 0.106495
H49   H     H_    0.393529 0.279832 0.820268 0.170139
H50   H     H_    0.312108 0.211714 0.879790 0.137521
H51   H     H_    0.169187 0.203198 0.854306 0.122116
H52   H     H_    0.185939 0.330707 0.705096 0.150043
H53   H     H_    0.885698 0.868785 0.633105 0.162426
H54   H     H_    0.138911 0.374814 0.881226 0.154467
H55   H     H_    0.859980 0.130846 0.613414 0.161309
H56   H     H_    0.812303 0.172251 0.790661 0.128961
H57   H     H_    0.668666 0.162885 0.764681 0.123498
H58   H     H_    0.605476 0.223303 0.678704 0.127127
H59   H     H_    0.685652 0.292204 0.617453 0.146446
H60   H     H_    0.829037 0.301537 0.642471 0.143381
H61   H     H_    0.610773 0.625876 0.361224 0.150507
H62   H     H_    0.580842 0.721802 0.299704 0.127628
H63   H     H_    0.542450 0.705539 0.155600 0.139897
O1    O     O_R   0.408360 0.551710 0.460090 -0.602767
O2    O     O_R   0.948280 0.908380 0.356650 -0.625798
O3    O     O_R   0.960110 0.908350 0.551690 -0.617986
O4    O     O_R   0.856660 0.908370 0.448270 -0.621052
O5    O     O_R   0.051720 0.091580 0.643310 -0.615734
O6    O     O_R   0.948270 0.091600 0.539890 -0.624040
O7    O     O_R   0.143340 0.091590 0.551680 -0.604389
O8    O     O_R   0.039890 0.091610 0.448270 -0.625346
O9    O     O_R   0.051710 0.460040 0.908380 -0.634510
O10   O     O_R   0.948270 0.356620 0.908410 -0.612656
O11   O     O_R   0.143330 0.551680 0.091590 -0.624734
O12   O     O_R   0.408390 0.448280 0.356670 -0.628036
O13   O     O_R   0.039890 0.448260 0.091620 -0.614308
O14   O     O_R   0.051700 0.643310 0.091570 -0.612930
O15   O     O_R   0.948260 0.539890 0.091600 -0.607247
O16   O     O_R   0.960080 0.551670 0.908360 -0.629330
O17   O     O_R   0.856640 0.448250 0.908390 -0.609214
O18   O     O_R   0.591600 0.643340 0.551710 -0.613118
O19   O     O_R   0.591630 0.539900 0.448290 -0.622680
O20   O     O_R   0.591610 0.551720 0.643330 -0.609492
O21   O     O_R   0.591640 0.448290 0.539910 -0.631963
O22   O     O_R   0.408370 0.460100 0.551710 -0.594258
O23   O     O_R   0.408400 0.356660 0.448290 -0.630443
O24   O     O_R   0.051730 0.908360 0.460070 -0.613691
Zn1   Zn    Zn3+2 0.499980 0.569070 0.569050 1.013480
Zn2   Zn    Zn3+2 0.500020 0.430930 0.430950 0.954521
Zn3   Zn    Zn3+2 0.069080 0.999960 0.569030 0.970745
Zn4   Zn    Zn3+2 0.930920 0.999990 0.430930 0.962568
Zn5   Zn    Zn3+2 0.069060 0.569020 0.999970 0.954995
Zn6   Zn    Zn3+2 0.930920 0.430910 0.000010 0.981699
C113  C     C_2   0.729858 0.843591 0.839653 0.878340
O25   O     O_2   0.744625 0.845970 0.908442 -0.636425
O26   O     O_R   0.679014 0.878891 0.809280 -0.831810
H64   H     H_    0.658464 0.904334 0.849834 0.343800
C114  C     C_2   0.837916 0.600281 0.306301 0.857771
O27   O     O_2   0.829129 0.593572 0.237264 -0.633027
O28   O     O_R   0.764577 0.550953 0.308848 -0.814398
H65   H     H_    0.708852 0.513519 0.250140 0.349801
C115  C     C_2   0.347376 0.355518 0.726163 0.896605
O29   O     O_2   0.325142 0.398103 0.696164 -0.657006
O30   O     O_R   0.421884 0.349586 0.730490 -0.839318
H66   H     H_    0.450647 0.382049 0.705613 0.338693

loop_
_geom_bond_atom_site_label_1
_geom_bond_atom_site_label_2
_ccdc_geom_bond_type
C78   C87   S    
C101  C107  A    
C55   C56   A    
C98   H42   S    
C1    O1    A    
C24   H2    S    
C69   H22   S    
O9    Zn5   S    
C73   C74   A    
C105  C106  A    
C92   C114  S    
C95   C96   A    
C51   C61   S    
C91   H33   S    
C75   C76   A    
C43   H13   S    
C36   O21   A    
C97   C98   A    
C42   H12   S    
C7    C8    A    
C66   H29   S    
C105  H47   S    
C77   C78   A    
C52   C53   A    
C94   H37   S    
C115  O29   D    
C82   O6    A    
C44   H14   S    
C26   C27   A    
C37   C38   A    
C62   C67   A    
C53   H21   S    
C8    C82   S    
C37   C85   S    
C35   C37   A    
O1    Zn1   S    
C81   O3    A    
O5    Zn3   S    
C5    C6    A    
C2    H1    S    
C113  O26   S    
C57   C59   A    
C23   H63   S    
C106  C107  A    
C58   C113  S    
C68   C74   A    
C49   C54   A    
C2    C102  A    
C59   H24   S    
C85   O11   A    
C39   H11   S    
C108  C109  A    
C68   H31   S    
C18   C19   A    
O17   Zn6   S    
C49   C50   A    
C26   H3    S    
C1    C40   S    
C47   C60   S    
C110  C111  A    
C65   H28   S    
C13   H53   S    
C111  C112  A    
C4    H54   S    
C8    C9    A    
C113  O25   D    
O24   Zn3   S    
C23   C24   A    
C79   O2    A    
C47   O23   A    
C70   C71   A    
C112  C115  S    
C17   C81   S    
C42   C43   A    
C38   C48   S    
C72   C73   A    
C27   H4    S    
C85   O13   A    
C66   C67   A    
C59   C60   A    
C101  C103  A    
C22   C28   A    
C33   H9    S    
C84   O10   A    
O6    Zn4   S    
C57   C67   S    
C90   C100  S    
C104  C105  A    
C22   H62   S    
C50   C51   A    
C88   C94   A    
C1    O12   A    
O14   Zn5   S    
C46   C48   A    
O13   Zn6   S    
C86   O15   A    
C79   O24   A    
C74   C75   A    
C83   O8    A    
C51   C52   A    
C52   H20   S    
O10   Zn6   S    
C84   O9    A    
C18   C28   S    
C76   C77   A    
C81   O4    A    
C109  H51   S    
C104  H46   S    
C39   C40   A    
C5    C84   S    
C95   C100  A    
O26   H64   S    
C12   H58   S    
C101  H44   S    
C45   C46   A    
O19   Zn2   S    
C108  H50   S    
C29   C34   A    
C45   H15   S    
C83   O7    A    
C60   C61   A    
C95   H41   S    
O22   Zn1   S    
C43   C44   A    
C19   H61   S    
C29   C30   A    
C36   C75   S    
O15   Zn6   S    
C90   C92   A    
C31   C32   A    
C14   C15   A    
C89   H39   S    
C3    C112  A    
C73   C78   A    
C96   C97   A    
C62   C63   A    
O2    Zn4   S    
C17   C18   A    
C13   C21   A    
C93   C94   A    
C42   C48   A    
O30   H66   S    
C77   H36   S    
C86   C96   S    
C10   H56   S    
C40   C41   A    
C12   C14   A    
C65   C66   A    
C114  O28   S    
C10   C11   A    
O3    Zn3   S    
C63   H26   S    
O16   Zn5   S    
C91   C102  A    
C72   H35   S    
C30   H7    S    
O11   Zn5   S    
C25   O18   A    
C44   C45   A    
C56   C83   S    
C87   O16   A    
O20   Zn1   S    
C49   H18   S    
C79   C99   S    
C9    C110  S    
C56   C57   A    
C54   H17   S    
C7    H55   S    
C86   O14   A    
C31   C41   S    
O7    Zn3   S    
C88   H38   S    
C35   H10   S    
C103  H45   S    
C111  H52   S    
C24   C26   A    
O4    Zn4   S    
C14   H59   S    
C93   H40   S    
C11   C12   A    
C2    C58   A    
C58   C69   A    
C53   C54   A    
C6    C7    A    
C3    C108  A    
O18   Zn1   S    
C29   H6    S    
O12   Zn2   S    
C70   H32   S    
C99   C100  A    
C13   C17   A    
O8    Zn4   S    
C64   C65   A    
C19   C20   A    
C4    C9    A    
C36   O20   A    
C71   C72   A    
C106  H48   S    
C10   C16   A    
C109  C110  A    
C32   C33   A    
O21   Zn2   S    
C30   C31   A    
C38   C39   A    
C34   H5    S    
C80   C91   A    
C55   H23   S    
C15   C16   A    
C55   C61   A    
C21   C80   S    
C92   C93   A    
C33   C34   A    
C15   H60   S    
O23   Zn2   S    
C115  O30   S    
C114  O27   D    
C62   H25   S    
C35   C41   A    
C46   H16   S    
C50   H19   S    
C3    H49   S    
C6    C16   S    
C63   C64   A    
C97   C107  S    
C4    C5    A    
C71   H34   S    
C20   C21   A    
C68   C70   A    
C98   C99   A    
C20   C25   S    
C82   O5    A    
C103  C104  A    
C11   H57   S    
C22   C23   A    
C47   O22   A    
C69   C80   A    
C89   C90   A    
C32   H8    S    
C102  H43   S    
C25   O19   A    
C88   C89   A    
O28   H65   S    
C87   O17   A    
C27   C28   A    
C64   H27   S    
C76   H30   S    
