data_mof_unit_55461.cif
_audit_creation_date              2012-12-10T16:38:07-0500
_audit_creation_method            fapswitch 2.2
_symmetry_space_group_name_H-M    P1
_symmetry_Int_Tables_number       1
_space_group_crystal_system       triclinic
_cell_length_a                    28.160083
_cell_length_b                    18.603581
_cell_length_c                    16.858416
_cell_angle_alpha                 90.250378
_cell_angle_beta                  61.22893
_cell_angle_gamma                 90.232084
_cell_volume                      7741.38437289

loop_
_atom_site_label
_atom_site_type_symbol
_atom_type_description
_atom_site_fract_x
_atom_site_fract_y
_atom_site_fract_z
_atom_type_partial_charge
C1    C     C_R   0.701387 0.268752 0.676979 0.948144
C2    C     C_R   0.095730 0.504789 0.511092 -0.053293
C3    C     C_R   0.189659 0.219419 0.910558 -0.039164
C4    C     C_R   0.665865 0.406976 0.994995 0.324702
C5    C     C_R   0.329699 0.598560 0.019484 0.320532
C6    C     C_R   0.391530 0.312440 0.944162 0.358142
C7    C     C_R   0.618386 0.672894 0.049526 0.368645
C8    C     C_R   0.165865 0.906976 0.994995 0.324701
C9    C     C_R   0.829699 0.098560 0.019484 0.320531
C10   C     C_R   0.891530 0.812440 0.944163 0.358142
C11   C     C_R   0.118386 0.172895 0.049526 0.368646
C12   C     C_R   0.685286 0.381029 0.051383 0.461438
C13   C     C_R   0.410759 0.004489 0.467594 -0.055110
C14   C     C_R   0.305379 0.618849 0.966886 0.443546
C15   C     C_R   0.361472 0.298158 0.898579 0.449065
C16   C     C_R   0.651574 0.675039 0.091077 0.460242
C17   C     C_R   0.185286 0.881029 0.051382 0.461438
C18   C     C_R   0.805379 0.118849 0.966886 0.443546
C19   C     C_R   0.861472 0.798158 0.898579 0.449065
C20   C     C_R   0.151574 0.175039 0.091077 0.460242
C21   C     C_R   0.715125 0.186198 0.824569 0.389117
C22   C     C_R   0.279885 0.822792 0.181842 0.374380
C23   C     C_R   0.265267 0.183928 0.198385 0.402499
C24   C     C_R   0.595730 0.004789 0.511092 -0.053293
C25   C     C_R   0.745069 0.804680 0.796042 0.397403
C26   C     C_R   0.215125 0.686198 0.824569 0.389117
C27   C     C_R   0.779885 0.322792 0.181842 0.374381
C28   C     C_R   0.765267 0.683928 0.198385 0.402499
C29   C     C_R   0.245069 0.304680 0.796042 0.397403
C30   C     C_R   0.737994 0.161325 0.877069 -0.201133
C31   C     C_R   0.255966 0.844862 0.130615 -0.199296
C32   C     C_R   0.233833 0.170000 0.156374 -0.161900
C33   C     C_R   0.779599 0.810436 0.833692 -0.185681
C34   C     C_R   0.237994 0.661325 0.877069 -0.201134
C35   C     C_R   0.110239 0.380411 0.461437 0.559249
C36   C     C_R   0.755965 0.344862 0.130616 -0.199298
C37   C     C_R   0.733833 0.670000 0.156374 -0.161899
C38   C     C_R   0.279599 0.310436 0.833692 -0.185681
C39   C     C_R   0.072135 0.103022 0.936506 0.967342
C40   C     C_R   0.927998 0.897517 0.063233 1.008653
C41   C     C_R   0.920394 0.091997 0.071662 0.981326
C42   C     C_R   0.084134 0.921301 0.924352 0.987567
C43   C     C_R   0.572135 0.603022 0.936506 0.967341
C44   C     C_R   0.427998 0.397516 0.063233 1.008652
C45   C     C_R   0.420394 0.591997 0.071662 0.981326
C46   C     C_R   0.926399 0.630880 0.424826 0.592746
C47   C     C_R   0.584134 0.421301 0.924352 0.987566
C48   C     C_R   0.544887 0.135503 0.511761 -0.212164
C49   C     C_R   0.451130 0.876472 0.500007 -0.195444
C50   C     C_R   0.465825 0.134961 0.453676 -0.202002
C51   C     C_R   0.556976 0.876271 0.475974 -0.203629
C52   C     C_R   0.044887 0.635503 0.511761 -0.212164
C53   C     C_R   0.951130 0.376472 0.500006 -0.195443
C54   C     C_R   0.965825 0.634961 0.453676 -0.202000
C55   C     C_R   0.056976 0.376271 0.475974 -0.203629
C56   C     C_R   0.525983 0.201486 0.495200 0.419718
C57   C     C_R   0.896598 0.381297 0.522008 0.567167
C58   C     C_R   0.476621 0.810385 0.497282 0.409290
C59   C     C_R   0.487627 0.201076 0.463466 0.423935
C60   C     C_R   0.530677 0.810239 0.481178 0.434575
C61   C     C_R   0.025983 0.701486 0.495200 0.419718
C62   C     C_R   0.976621 0.310385 0.497282 0.409289
C63   C     C_R   0.987627 0.701076 0.463465 0.423934
C64   C     C_R   0.030677 0.310239 0.481178 0.434574
C65   C     C_R   0.484226 0.070596 0.472248 -0.080660
C66   C     C_R   0.529585 0.940733 0.484884 -0.071582
C67   C     C_R   0.527302 0.070898 0.491887 -0.069482
C68   C     C_R   0.078301 0.631383 0.552574 0.540257
C69   C     C_R   0.480070 0.940602 0.485013 -0.066505
C70   C     C_R   0.984226 0.570596 0.472247 -0.080660
C71   C     C_R   0.029585 0.440733 0.484884 -0.071582
C72   C     C_R   0.027302 0.570898 0.491887 -0.069483
C73   C     C_R   0.980070 0.440602 0.485013 -0.066506
C74   C     C_R   0.958462 0.505340 0.474487 0.063841
C75   C     C_R   0.051238 0.505677 0.495021 0.064615
C76   C     C_R   0.458462 0.005339 0.474488 0.063841
C77   C     C_R   0.551238 0.005677 0.495021 0.064615
C78   C     C_R   0.879580 0.440821 0.488086 -0.134585
C79   C     C_R   0.610239 0.880411 0.461437 0.559249
C80   C     C_R   0.110397 0.568108 0.539616 -0.125807
C81   C     C_R   0.125534 0.440634 0.497254 -0.132029
C82   C     C_R   0.893381 0.567844 0.444127 -0.123495
C83   C     C_R   0.379580 0.940821 0.488086 -0.134584
C84   C     C_R   0.610397 0.068108 0.539616 -0.125807
C85   C     C_R   0.625534 0.940634 0.497254 -0.132029
C86   C     C_R   0.393381 0.067844 0.444127 -0.123495
C87   C     C_R   0.835237 0.438521 0.469170 -0.231607
C88   C     C_R   0.157194 0.566061 0.551490 -0.188445
C89   C     C_R   0.166242 0.438562 0.525052 -0.228083
C90   C     C_R   0.426399 0.130880 0.424827 0.592745
C91   C     C_R   0.843222 0.566001 0.442820 -0.191595
C92   C     C_R   0.335237 0.938521 0.469170 -0.231607
C93   C     C_R   0.657194 0.066061 0.551490 -0.188445
C94   C     C_R   0.666242 0.938561 0.525052 -0.228083
C95   C     C_R   0.343222 0.066001 0.442820 -0.191595
C96   C     C_R   0.820480 0.500595 0.439859 0.325943
C97   C     C_R   0.178055 0.500716 0.559108 0.311560
C98   C     C_R   0.320480 0.000594 0.439859 0.325943
C99   C     C_R   0.678055 0.000716 0.559108 0.311560
C100  C     C_3   0.046992 0.224910 0.560698 -0.181254
C101  C     C_R   0.396598 0.881297 0.522008 0.567167
C102  C     C_3   0.998854 0.800113 0.375490 -0.163288
C103  C     C_3   0.955600 0.223312 0.424867 -0.144882
C104  C     C_3   0.096270 0.781008 0.437557 -0.178764
C105  C     C_3   0.546992 0.724910 0.560698 -0.181253
C106  C     C_3   0.498854 0.300113 0.375490 -0.163287
C107  C     C_3   0.455600 0.723312 0.424867 -0.144882
C108  C     C_3   0.596270 0.281008 0.437557 -0.178764
C109  C     C_3   0.175011 0.363722 0.315780 -0.232113
C110  C     C_3   0.945616 0.664986 0.282924 -0.314250
C111  C     C_3   0.827695 0.371742 0.667178 -0.271772
C112  C     C_R   0.299666 0.735058 0.322801 0.923264
C113  C     C_R   0.578302 0.131383 0.552574 0.540257
C114  C     C_3   0.051600 0.661754 0.699466 -0.182930
C115  C     C_3   0.675011 0.863722 0.315780 -0.232112
C116  C     C_3   0.445616 0.164986 0.282924 -0.314250
C117  C     C_3   0.327694 0.871742 0.667178 -0.271772
C118  C     C_3   0.551599 0.161754 0.699466 -0.182931
C119  C     C_3   0.666888 0.450661 0.704743 -0.180307
C120  C     C_3   0.429313 0.750601 0.209467 -0.138730
C121  C     C_3   0.330594 0.437688 0.269517 -0.201407
C122  C     C_3   0.559852 0.733482 0.798761 -0.258481
C123  C     C_3   0.166888 0.950661 0.704743 -0.180305
C124  C     C_R   0.720508 0.274762 0.955888 -0.029549
C125  C     C_3   0.929313 0.250601 0.209467 -0.138733
C126  C     C_3   0.830594 0.937688 0.269518 -0.201408
C127  C     C_3   0.059852 0.233482 0.798761 -0.258481
C128  C     C_3   0.622913 0.386387 0.199844 -0.354877
C129  C     C_3   0.361237 0.589493 0.820455 -0.218445
C130  C     C_3   0.401174 0.231315 0.769124 -0.197240
C131  C     C_3   0.610030 0.596129 0.209496 -0.212878
C132  C     C_3   0.122913 0.886388 0.199843 -0.354876
C133  C     C_3   0.861237 0.089493 0.820456 -0.218446
C134  C     C_3   0.901175 0.731315 0.769124 -0.197242
C135  C     C_R   0.274806 0.730121 0.053157 -0.029428
C136  C     C_3   0.110030 0.096129 0.209497 -0.212881
C137  C     C_R   0.287991 0.251852 0.037250 -0.033631
C138  C     C_R   0.722405 0.729663 0.953656 -0.024918
C139  C     C_R   0.220508 0.774762 0.955888 -0.029549
C140  C     C_R   0.774806 0.230121 0.053157 -0.029428
C141  C     C_R   0.787991 0.751852 0.037250 -0.033631
C142  C     C_R   0.222405 0.229663 0.953656 -0.024918
C143  C     C_R   0.746261 0.206433 0.937439 0.044547
C144  C     C_R   0.298768 0.266627 0.323043 0.934090
C145  C     C_R   0.247771 0.797378 0.072547 0.039382
C146  C     C_R   0.240560 0.209435 0.080633 0.049215
C147  C     C_R   0.771262 0.769589 0.909176 0.035501
C148  C     C_R   0.246261 0.706433 0.937439 0.044547
C149  C     C_R   0.747771 0.297378 0.072547 0.039381
C150  C     C_R   0.740561 0.709435 0.080633 0.049215
C151  C     C_R   0.271262 0.269589 0.909176 0.035501
C152  C     C_R   0.775174 0.184278 0.984833 -0.100747
C153  C     C_R   0.218042 0.818117 0.027425 -0.104170
C154  C     C_R   0.205572 0.201455 0.041471 -0.062305
C155  C     C_R   0.700577 0.734842 0.677496 0.923695
C156  C     C_R   0.806350 0.775800 0.948013 -0.089302
C157  C     C_R   0.275174 0.684278 0.984833 -0.100748
C158  C     C_R   0.718042 0.318117 0.027425 -0.104170
C159  C     C_R   0.705572 0.701455 0.041471 -0.062305
C160  C     C_R   0.306350 0.275800 0.948013 -0.089303
C161  C     C_R   0.665099 0.363331 0.927586 -0.137244
C162  C     C_R   0.335911 0.648066 0.077389 -0.149899
C163  C     C_R   0.366016 0.309474 0.040256 -0.094661
C164  C     C_R   0.640238 0.682115 0.955171 -0.076164
C165  C     C_R   0.165099 0.863332 0.927586 -0.137243
C166  C     C_R   0.201387 0.768752 0.676979 0.948143
C167  C     C_R   0.835911 0.148066 0.077389 -0.149898
C168  C     C_R   0.866016 0.809474 0.040256 -0.094661
C169  C     C_R   0.140238 0.182115 0.955171 -0.076164
C170  C     C_R   0.635136 0.381174 0.882118 -0.192007
C171  C     C_R   0.373834 0.640305 0.111911 -0.208579
C172  C     C_R   0.385858 0.342812 0.096000 -0.180687
C173  C     C_R   0.612288 0.661845 0.906011 -0.180640
C174  C     C_R   0.135136 0.881174 0.882118 -0.192007
C175  C     C_R   0.873834 0.140305 0.111911 -0.208579
C176  C     C_R   0.885858 0.842812 0.096000 -0.180687
C177  C     C_R   0.799666 0.235058 0.322801 0.923264
C178  C     C_R   0.112289 0.161845 0.906011 -0.180640
C179  C     C_R   0.651348 0.354260 0.797113 0.412596
C180  C     C_R   0.369862 0.685068 0.181503 0.401755
C181  C     C_R   0.358408 0.333333 0.189005 0.390133
C182  C     C_R   0.627683 0.690982 0.821346 0.394798
C183  C     C_R   0.151348 0.854260 0.797113 0.412595
C184  C     C_R   0.869862 0.185068 0.181503 0.401756
C185  C     C_R   0.858408 0.833333 0.189005 0.390133
C186  C     C_R   0.127683 0.190982 0.821346 0.394798
C187  C     C_R   0.680829 0.290345 0.771677 -0.204900
C188  C     C_R   0.798768 0.766627 0.323043 0.934090
C189  C     C_R   0.324928 0.728178 0.223647 -0.203399
C190  C     C_R   0.321720 0.277300 0.225399 -0.216702
C191  C     C_R   0.676054 0.729177 0.776975 -0.201774
C192  C     C_R   0.180829 0.790345 0.771677 -0.204900
C193  C     C_R   0.824928 0.228178 0.223647 -0.203399
C194  C     C_R   0.821720 0.777300 0.225399 -0.216702
C195  C     C_R   0.176054 0.229177 0.776975 -0.201774
C196  C     C_R   0.697769 0.257871 0.831555 -0.064642
C197  C     C_R   0.300537 0.753216 0.172202 -0.046988
C198  C     C_R   0.301121 0.243213 0.171234 -0.075847
C199  C     C_R   0.200577 0.234842 0.677496 0.923695
C200  C     C_R   0.704643 0.750312 0.825221 -0.057543
C201  C     C_R   0.197769 0.757871 0.831555 -0.064642
C202  C     C_R   0.800537 0.253216 0.172202 -0.046988
C203  C     C_R   0.801121 0.743213 0.171234 -0.075847
C204  C     C_R   0.204643 0.250312 0.825221 -0.057543
C205  C     C_R   0.691130 0.129810 0.535237 0.945779
C206  C     C_R   0.305611 0.872212 0.476003 0.926880
C207  C     C_R   0.309043 0.129941 0.463261 0.933701
C208  C     C_R   0.694795 0.872342 0.522583 0.928807
C209  C     C_R   0.191130 0.629810 0.535237 0.945778
C210  C     C_R   0.910760 0.504489 0.467594 -0.055110
C211  C     C_R   0.805611 0.372212 0.476003 0.926879
C212  C     C_R   0.809043 0.629941 0.463261 0.933701
C213  C     C_R   0.194795 0.372342 0.522583 0.928808
C214  C     C_R   0.694770 0.298726 0.904874 -0.051791
C215  C     C_R   0.303722 0.710423 0.100499 -0.040038
C216  C     C_R   0.317823 0.269290 0.083325 -0.039734
C217  C     C_R   0.689659 0.719419 0.910558 -0.039164
C218  C     C_R   0.194770 0.798726 0.904874 -0.051791
C219  C     C_R   0.803722 0.210423 0.100498 -0.040038
C220  C     C_R   0.817823 0.769290 0.083325 -0.039733
Cl1   Cl    Cl    0.774934 0.498315 0.395171 -0.434630
Cl2   Cl    Cl    0.839705 0.005703 0.025427 -0.617494
Cl3   Cl    Cl    0.963017 0.813637 0.877165 -0.575295
Cl4   Cl    Cl    0.048508 0.186139 0.120350 -0.651772
Cl5   Cl    Cl    0.697544 0.120821 0.767645 -0.530190
Cl6   Cl    Cl    0.295976 0.889655 0.238514 -0.532129
Cl7   Cl    Cl    0.270386 0.113210 0.262087 -0.502211
Cl8   Cl    Cl    0.743017 0.881262 0.736681 -0.481851
Cl9   Cl    Cl    0.197544 0.620821 0.767645 -0.530191
Cl10  Cl    Cl    0.795976 0.389655 0.238514 -0.532129
Cl11  Cl    Cl    0.770386 0.613210 0.262087 -0.502211
Cl12  Cl    Cl    0.215770 0.498120 0.618170 -0.432280
Cl13  Cl    Cl    0.243017 0.381261 0.736681 -0.481850
Cl14  Cl    Cl    0.274934 0.998315 0.395171 -0.434630
Cl15  Cl    Cl    0.715771 0.998120 0.618170 -0.432279
Cl16  Cl    Cl    0.654984 0.500040 0.998265 -0.682991
Cl17  Cl    Cl    0.339706 0.505703 0.025427 -0.617493
Cl18  Cl    Cl    0.463017 0.313637 0.877165 -0.575294
Cl19  Cl    Cl    0.548508 0.686139 0.120350 -0.651772
Cl20  Cl    Cl    0.154984 0.000040 0.998264 -0.682992
H1    H     H_    0.744954 0.104512 0.873375 0.255720
H2    H     H_    0.062839 0.265506 0.590809 0.137911
H3    H     H_    0.927693 0.734992 0.694831 0.220761
H4    H     H_    0.864312 0.700784 0.781180 0.136869
H5    H     H_    0.142153 0.056596 0.168541 0.214885
H6    H     H_    0.072879 0.083857 0.204920 0.209201
H7    H     H_    0.099975 0.088688 0.281150 0.190435
H8    H     H_    0.068676 0.173801 0.554532 0.184747
H9    H     H_    0.025848 0.763105 0.319733 0.103178
H10   H     H_    0.023211 0.841649 0.387086 0.158597
H11   H     H_    0.973266 0.828469 0.352124 0.197699
H12   H     H_    0.999016 0.215120 0.374455 0.186348
H13   H     H_    0.936620 0.262115 0.398587 0.138640
H14   H     H_    0.934540 0.171025 0.434018 0.179506
H15   H     H_    0.098522 0.773558 0.370315 0.075082
H16   H     H_    0.127184 0.746582 0.440950 0.193765
H17   H     H_    0.248207 0.901569 0.132356 0.247171
H18   H     H_    0.106961 0.837735 0.442258 0.181228
H19   H     H_    0.503113 0.715153 0.606777 0.152536
H20   H     H_    0.562839 0.765506 0.590809 0.137910
H21   H     H_    0.568676 0.673801 0.554532 0.184747
H22   H     H_    0.525848 0.263105 0.319733 0.103178
H23   H     H_    0.523211 0.341649 0.387087 0.158597
H24   H     H_    0.473266 0.328468 0.352125 0.197698
H25   H     H_    0.499016 0.715120 0.374455 0.186349
H26   H     H_    0.436620 0.762115 0.398587 0.138640
H27   H     H_    0.434540 0.671025 0.434018 0.179506
H28   H     H_    0.208429 0.123050 0.178010 0.206234
H29   H     H_    0.598522 0.273557 0.370315 0.075081
H30   H     H_    0.627184 0.246582 0.440950 0.193765
H31   H     H_    0.606961 0.337735 0.442258 0.181228
H32   H     H_    0.198992 0.411261 0.316129 0.122524
H33   H     H_    0.146361 0.379069 0.290785 0.167340
H34   H     H_    0.203616 0.324031 0.267409 0.196725
H35   H     H_    0.988310 0.647050 0.256268 0.149600
H36   H     H_    0.921066 0.621958 0.273973 0.182678
H37   H     H_    0.945967 0.711714 0.241974 0.202043
H38   H     H_    0.798635 0.407115 0.659085 0.127950
H39   H     H_    0.809391 0.853157 0.809523 0.236082
H40   H     H_    0.852314 0.403570 0.690422 0.148886
H41   H     H_    0.803708 0.332283 0.720967 0.195455
H42   H     H_    0.012325 0.634114 0.719242 0.119917
H43   H     H_    0.079440 0.625655 0.709864 0.162949
H44   H     H_    0.043232 0.708496 0.745259 0.241504
H45   H     H_    0.698992 0.911261 0.316129 0.122523
H46   H     H_    0.646361 0.879070 0.290785 0.167340
H47   H     H_    0.703616 0.824031 0.267409 0.196725
H48   H     H_    0.488310 0.147049 0.256268 0.149600
H49   H     H_    0.421066 0.121959 0.273974 0.182678
H50   H     H_    0.244954 0.604512 0.873375 0.255720
H51   H     H_    0.445968 0.211714 0.241974 0.202043
H52   H     H_    0.298634 0.907115 0.659085 0.127951
H53   H     H_    0.352314 0.903571 0.690422 0.148886
H54   H     H_    0.303708 0.832283 0.720967 0.195455
H55   H     H_    0.512325 0.134115 0.719242 0.119917
H56   H     H_    0.579440 0.125655 0.709864 0.162949
H57   H     H_    0.543232 0.208496 0.745259 0.241504
H58   H     H_    0.710735 0.437207 0.666020 0.113945
H59   H     H_    0.659651 0.490995 0.758305 0.131810
H60   H     H_    0.655404 0.475800 0.656874 0.207914
H61   H     H_    0.748206 0.401569 0.132356 0.247171
H62   H     H_    0.398481 0.792463 0.247135 0.130375
H63   H     H_    0.454581 0.767567 0.137877 0.177092
H64   H     H_    0.455099 0.748369 0.242328 0.204229
H65   H     H_    0.288065 0.418873 0.310436 0.122878
H66   H     H_    0.335310 0.467620 0.209126 0.158523
H67   H     H_    0.339030 0.475902 0.311914 0.197485
H68   H     H_    0.580966 0.785668 0.772113 0.160754
H69   H     H_    0.531816 0.737476 0.872888 0.153218
H70   H     H_    0.534966 0.722128 0.765358 0.166369
H71   H     H_    0.210735 0.937207 0.666020 0.113945
H72   H     H_    0.708429 0.623049 0.178010 0.206234
H73   H     H_    0.159651 0.990995 0.758305 0.131810
H74   H     H_    0.155404 0.975800 0.656874 0.207914
H75   H     H_    0.898481 0.292463 0.247135 0.130376
H76   H     H_    0.954581 0.267567 0.137877 0.177092
H77   H     H_    0.955099 0.248369 0.242328 0.204230
H78   H     H_    0.788065 0.918873 0.310437 0.122878
H79   H     H_    0.835310 0.967621 0.209126 0.158523
H80   H     H_    0.839030 0.975903 0.311914 0.197486
H81   H     H_    0.080966 0.285668 0.772113 0.160754
H82   H     H_    0.031816 0.237476 0.872888 0.153219
H83   H     H_    0.309391 0.353157 0.809523 0.236082
H84   H     H_    0.034966 0.222128 0.765358 0.166369
H85   H     H_    0.629593 0.329035 0.210254 0.157453
H86   H     H_    0.588585 0.391186 0.184962 0.173555
H87   H     H_    0.611383 0.415351 0.264210 0.193444
H88   H     H_    0.396517 0.580047 0.831813 0.171256
H89   H     H_    0.361465 0.645949 0.798543 0.142751
H90   H     H_    0.365838 0.553727 0.764383 0.219932
H91   H     H_    0.423825 0.201239 0.797171 0.157401
H92   H     H_    0.427693 0.234992 0.694830 0.220760
H93   H     H_    0.364312 0.200784 0.781180 0.136869
H94   H     H_    0.003113 0.215153 0.606776 0.152537
H95   H     H_    0.642153 0.556596 0.168542 0.214885
H96   H     H_    0.572881 0.583856 0.204917 0.209201
H97   H     H_    0.599974 0.588688 0.281150 0.190435
H98   H     H_    0.129591 0.829037 0.210253 0.157451
H99   H     H_    0.088585 0.891191 0.184961 0.173556
H100  H     H_    0.111383 0.915352 0.264210 0.193443
H101  H     H_    0.896517 0.080045 0.831814 0.171258
H102  H     H_    0.861467 0.145948 0.798544 0.142750
H103  H     H_    0.865838 0.053727 0.764383 0.219931
H104  H     H_    0.923825 0.701239 0.797171 0.157402
O1    O     O_R   0.746490 0.236330 0.638080 -0.584407
O2    O     O_R   0.325830 0.813840 0.483730 -0.601124
O3    O     O_R   0.325830 0.186160 0.483730 -0.590799
O4    O     O_R   0.674170 0.813840 0.516270 -0.602696
O5    O     O_R   0.174170 0.686160 0.516270 -0.625163
O6    O     O_R   0.825830 0.313840 0.483730 -0.601124
O7    O     O_R   0.825830 0.686160 0.483730 -0.590799
O8    O     O_R   0.174170 0.313840 0.516270 -0.602696
O9    O     O_R   0.739960 0.127620 0.525000 -0.564369
O10   O     O_R   0.260040 0.872380 0.475000 -0.561165
O11   O     O_R   0.260040 0.127620 0.475000 -0.565754
O12   O     O_R   0.253510 0.763670 0.361920 -0.619244
O13   O     O_R   0.739960 0.872380 0.525000 -0.558569
O14   O     O_R   0.239960 0.627620 0.525000 -0.564369
O15   O     O_R   0.760040 0.372380 0.475000 -0.561165
O16   O     O_R   0.760040 0.627620 0.475000 -0.565754
O17   O     O_R   0.239960 0.372380 0.525000 -0.558569
O18   O     O_R   0.680700 0.294870 0.629350 -0.556641
O19   O     O_R   0.319300 0.705130 0.370650 -0.602767
O20   O     O_R   0.319300 0.294870 0.370650 -0.564423
O21   O     O_R   0.680700 0.705130 0.629350 -0.591218
O22   O     O_R   0.180700 0.794870 0.629350 -0.556641
O23   O     O_R   0.253510 0.236330 0.361920 -0.581026
O24   O     O_R   0.819300 0.205130 0.370650 -0.602767
O25   O     O_R   0.819300 0.794870 0.370650 -0.564423
O26   O     O_R   0.180700 0.205130 0.629350 -0.591218
O27   O     O_R   0.062020 0.072840 0.007170 -0.564666
O28   O     O_R   0.937980 0.927160 0.992830 -0.548068
O29   O     O_R   0.937980 0.072840 0.992830 -0.619843
O30   O     O_R   0.062020 0.927160 0.007170 -0.620716
O31   O     O_R   0.562020 0.572840 0.007170 -0.564666
O32   O     O_R   0.437980 0.427160 0.992830 -0.548067
O33   O     O_R   0.437980 0.572840 0.992830 -0.619842
O34   O     O_R   0.746490 0.763670 0.638080 -0.598858
O35   O     O_R   0.562020 0.427160 0.007170 -0.620716
O36   O     O_R   0.947860 0.073950 0.109290 -0.551571
O37   O     O_R   0.052140 0.926050 0.890710 -0.539732
O38   O     O_R   0.052140 0.073950 0.890710 -0.604202
O39   O     O_R   0.947860 0.926050 0.109290 -0.593620
O40   O     O_R   0.447860 0.573950 0.109290 -0.551571
O41   O     O_R   0.552140 0.426050 0.890710 -0.539732
O42   O     O_R   0.552140 0.573950 0.890710 -0.604203
O43   O     O_R   0.447860 0.426050 0.109290 -0.593620
O44   O     O_3   0.056614 0.245587 0.473788 -0.548426
O45   O     O_R   0.246490 0.736330 0.638080 -0.584407
O46   O     O_3   0.964478 0.765070 0.457722 -0.539765
O47   O     O_3   0.949530 0.245799 0.509222 -0.573786
O48   O     O_3   0.043993 0.766885 0.510176 -0.537447
O49   O     O_3   0.556614 0.745587 0.473788 -0.548426
O50   O     O_3   0.464478 0.265070 0.457723 -0.539765
O51   O     O_3   0.449530 0.745799 0.509222 -0.573786
O52   O     O_3   0.543992 0.266885 0.510176 -0.537447
O53   O     O_3   0.147589 0.331702 0.402020 -0.541309
O54   O     O_3   0.922712 0.686870 0.374130 -0.555656
O55   O     O_3   0.860741 0.333850 0.586526 -0.540127
O56   O     O_R   0.753510 0.263670 0.361920 -0.619244
O57   O     O_3   0.075647 0.687048 0.609647 -0.546364
O58   O     O_3   0.647588 0.831702 0.402020 -0.541309
O59   O     O_3   0.422712 0.186870 0.374130 -0.555656
O60   O     O_3   0.360741 0.833850 0.586526 -0.540127
O61   O     O_3   0.575647 0.187048 0.609647 -0.546364
O62   O     O_3   0.634924 0.388375 0.741255 -0.554803
O63   O     O_3   0.406857 0.681495 0.213776 -0.571997
O64   O     O_3   0.367489 0.379896 0.245056 -0.578164
O65   O     O_3   0.597196 0.676963 0.778502 -0.581555
O66   O     O_3   0.134924 0.888375 0.741255 -0.554803
O67   O     O_R   0.753510 0.736330 0.361920 -0.581026
O68   O     O_3   0.906857 0.181496 0.213776 -0.571997
O69   O     O_3   0.867489 0.879896 0.245056 -0.578164
O70   O     O_3   0.097196 0.176963 0.778502 -0.581555
O71   O     O_3   0.670391 0.418134 0.131054 -0.603071
O72   O     O_3   0.311987 0.572536 0.898191 -0.584723
O73   O     O_3   0.388094 0.301669 0.804907 -0.573434
O74   O     O_3   0.627660 0.667873 0.184418 -0.597394
O75   O     O_3   0.170391 0.918134 0.131054 -0.603071
O76   O     O_3   0.811987 0.072536 0.898191 -0.584723
O77   O     O_3   0.888094 0.801669 0.804907 -0.573434
O78   O     O_R   0.246490 0.263670 0.638080 -0.598858
O79   O     O_3   0.127660 0.167874 0.184418 -0.597393
O80   O     O_R   0.674170 0.186160 0.516270 -0.625163
Zn1   Zn    Zn3+2 0.792340 0.208750 0.507670 1.089909
Zn2   Zn    Zn3+2 0.494040 0.500000 0.919480 1.098240
Zn3   Zn    Zn3+2 0.005960 0.000000 0.080520 1.054140
Zn4   Zn    Zn3+2 0.994040 1.000000 0.919480 1.098239
Zn5   Zn    Zn3+2 0.207660 0.791250 0.492330 1.073641
Zn6   Zn    Zn3+2 0.207660 0.208750 0.492330 1.101788
Zn7   Zn    Zn3+2 0.792340 0.791250 0.507670 1.139061
Zn8   Zn    Zn3+2 0.292340 0.708750 0.507670 1.089909
Zn9   Zn    Zn3+2 0.707660 0.291250 0.492330 1.073641
Zn10  Zn    Zn3+2 0.707660 0.708750 0.492330 1.101788
Zn11  Zn    Zn3+2 0.292340 0.291250 0.507670 1.139061
Zn12  Zn    Zn3+2 0.505960 0.500000 0.080520 1.054141

loop_
_geom_bond_atom_site_label_1
_geom_bond_atom_site_label_2
_ccdc_geom_bond_type
C62   O47   S    
C90   O59   S    
C181  O64   S    
C27   C202  A    
C119  H60   S    
C125  H75   S    
C17   C153  A    
C6    Cl18  S    
C127  O70   S    
C177  C193  S    
C50   C59   A    
C108  H29   S    
C52   C61   A    
C122  O65   S    
C54   C63   A    
C144  O20   A    
C58   C60   A    
O34   Zn7   S    
O23   Zn6   S    
C133  O76   S    
O9    Zn1   S    
C127  H82   S    
C61   C63   A    
C20   O79   S    
C62   C64   A    
C33   C147  A    
C112  C189  S    
C34   C148  A    
C50   C90   A    
O16   Zn10  S    
C130  H91   S    
C114  O57   S    
C115  H47   S    
C30   H1    S    
C124  C158  A    
C70   C74   A    
C136  O79   S    
C4    C12   A    
C24   C85   A    
C140  C152  A    
C88   C97   A    
C137  C160  A    
C82   C91   A    
C8    Cl20  S    
C198  C216  A    
C49   C69   A    
C3    C204  A    
C211  O6    A    
C18   C152  A    
C107  O51   S    
C11   C20   A    
C150  C159  A    
C105  O49   S    
C137  C146  A    
C94   C208  S    
C86   C90   A    
C71   C73   A    
C209  O14   A    
C3    C169  A    
C41   O29   A    
C129  O72   S    
C68   O57   S    
C61   O48   S    
C117  H53   S    
C51   C66   A    
C58   O51   S    
C131  H97   S    
C44   C172  S    
C205  O9    A    
C52   C72   A    
C163  C216  A    
C186  C195  A    
C207  O3    A    
C146  C154  A    
C133  H101  S    
C123  H74   S    
C106  H24   S    
C164  C173  A    
C46   O54   S    
C168  C220  A    
C44   O43   A    
C163  C172  A    
C132  H99   S    
C29   Cl13  S    
C41   O36   A    
C173  C182  A    
C11   C169  A    
C117  H52   S    
O31   Zn12  S    
C119  H58   S    
C79   C85   A    
C39   C178  S    
C100  H2    S    
C21   C30   A    
C189  C197  A    
C110  O54   S    
C66   C77   A    
C103  O47   S    
C112  O19   A    
C121  H65   S    
C42   O37   A    
C57   C78   A    
C108  H31   S    
C64   O44   S    
O35   Zn12  S    
C183  O66   S    
C141  C156  A    
C60   O49   S    
C8    C17   A    
C56   C59   A    
C1    O18   A    
C15   C160  A    
C80   C88   A    
C39   O38   A    
C5    C162  A    
C43   C173  S    
C139  C218  A    
O32   Zn2   S    
C115  H45   S    
C104  H15   S    
C84   C93   A    
C21   C196  A    
C86   C95   A    
C178  C186  A    
C63   O46   S    
C24   C77   A    
C179  C187  A    
C6    C163  A    
C10   C168  A    
C96   Cl1   S    
C43   O31   A    
C103  H14   S    
C128  H85   S    
C2    C81   A    
C40   O39   A    
C55   C71   A    
C2    C75   A    
C184  C193  A    
C199  O78   A    
C78   C87   A    
C102  O46   S    
C135  C157  A    
C22   C197  A    
C67   C77   A    
C37   C150  A    
C36   H61   S    
C35   O53   S    
C130  O73   S    
C118  H56   S    
O42   Zn2   S    
C180  C189  A    
O6    Zn1   S    
C126  H79   S    
O14   Zn8   S    
C133  H103  S    
O2    Zn8   S    
C106  H22   S    
C155  O21   A    
C69   C76   A    
C186  O70   S    
O37   Zn4   S    
C1    O1    A    
C92   C206  S    
C46   C82   A    
C9    Cl2   S    
C43   O42   A    
C144  O23   A    
C29   C38   A    
C104  O48   S    
C149  C158  A    
C78   C210  A    
C120  H63   S    
C109  H34   S    
O25   Zn7   S    
C110  H37   S    
C91   C96   A    
C48   C67   A    
C29   C204  A    
C206  O2    A    
C122  H68   S    
C4    Cl16  S    
C211  O15   A    
C72   C75   A    
C129  H90   S    
C167  C219  A    
C114  H42   S    
C141  C150  A    
C195  C199  S    
C1    C187  S    
C55   C64   A    
C139  C148  A    
C162  C171  A    
C102  H11   S    
C26   C201  A    
C134  H104  S    
C191  C200  A    
C42   C174  S    
C40   C176  S    
C135  C145  A    
C165  C174  A    
C122  H69   S    
O3    Zn11  S    
O15   Zn9   S    
C31   C145  A    
C101  O60   S    
C107  H25   S    
C166  O22   A    
C196  C214  A    
O24   Zn1   S    
C98   Cl14  S    
C128  H87   S    
C136  H6    S    
C104  H18   S    
C142  C154  A    
C134  H4    S    
O4    Zn10  S    
C131  H96   S    
C155  O34   A    
C105  H20   S    
C106  O50   S    
C129  H88   S    
C38   C151  A    
C167  C175  A    
O22   Zn5   S    
C28   Cl11  S    
C168  C176  A    
C100  H94   S    
C83   C101  A    
C4    C161  A    
C28   C203  A    
C87   C211  S    
C199  O26   A    
C119  H59   S    
C212  O7    A    
C22   Cl6   S    
C131  O74   S    
C170  C179  A    
C108  H30   S    
O1    Zn1   S    
C16   O74   S    
C205  O80   A    
O11   Zn6   S    
C144  C190  S    
C28   C37   A    
C148  C157  A    
C127  H81   S    
C212  O16   A    
O45   Zn8   S    
C51   C79   A    
C8    C165  A    
C57   O55   S    
C110  H35   S    
C113  O61   S    
C114  H43   S    
O26   Zn6   S    
C130  H92   S    
O12   Zn5   S    
C108  O52   S    
C48   C113  A    
C123  H71   S    
C51   C60   A    
C45   O33   A    
C140  C149  A    
C14   O72   S    
C82   C210  A    
C164  C217  A    
C118  O61   S    
C161  C214  A    
C19   C156  A    
C187  C196  A    
C102  H9    S    
C73   C74   A    
C185  C194  A    
C183  C192  A    
C176  C185  A    
C130  H93   S    
C23   C198  A    
C121  H66   S    
C65   C76   A    
C5    Cl17  S    
C203  C220  A    
C111  H40   S    
C201  C218  A    
C49   C101  A    
C97   Cl12  S    
C32   C146  A    
O19   Zn8   S    
C139  C153  A    
O7    Zn7   S    
C125  H77   S    
C138  C217  A    
C65   C67   A    
C123  H73   S    
C192  C201  A    
C100  O44   S    
C124  C143  A    
O40   Zn12  S    
C93   C99   A    
C121  O64   S    
C81   C89   A    
O33   Zn2   S    
C41   C175  S    
C132  O75   S    
C129  H89   S    
C200  C217  A    
C111  H41   S    
C40   O28   A    
O17   Zn11  S    
C125  H76   S    
C45   C171  S    
C120  H62   S    
C26   Cl9   S    
C95   C207  S    
C134  O77   S    
C14   C157  A    
O41   Zn2   S    
O10   Zn5   S    
C185  O69   S    
C195  C204  A    
C19   O77   S    
C193  C202  A    
O20   Zn11  S    
C206  O10   A    
C100  H8    S    
C140  C219  A    
C10   C19   A    
C46   C54   A    
C107  H26   S    
C188  O67   A    
C147  C156  A    
C5    C14   A    
C121  H67   S    
C20   C154  A    
C10   Cl3   S    
C180  O63   S    
C213  O17   A    
C7    C16   A    
C88   C209  S    
C137  C216  A    
C103  H13   S    
C128  H86   S    
C182  C191  A    
C190  C198  A    
C89   C213  S    
C53   C57   A    
C116  H51   S    
C37   H72   S    
C104  H16   S    
C11   Cl4   S    
C27   C36   A    
C209  O5    A    
C7    C164  A    
C13   C83   A    
C111  O55   S    
C117  H54   S    
C23   C32   A    
C141  C220  A    
C25   C200  A    
C126  H80   S    
O29   Zn4   S    
O30   Zn3   S    
C182  O65   S    
C177  O24   A    
C133  H102  S    
O5    Zn5   S    
C106  H23   S    
C166  C192  S    
O38   Zn4   S    
C30   C143  A    
C136  H7    S    
C59   O50   S    
C174  C183  A    
C120  H64   S    
C109  H33   S    
C179  O62   S    
C175  C184  A    
C68   C80   A    
C84   C113  A    
C47   O35   A    
C208  O13   A    
C93   C205  S    
C35   C81   A    
C95   C98   A    
C92   C98   A    
C124  C214  A    
C83   C92   A    
O8    Zn6   S    
C74   C210  A    
C103  H12   S    
C109  H32   S    
C39   O27   A    
C36   C149  A    
C66   C69   A    
C115  H46   S    
O39   Zn3   S    
O80   Zn9   S    
C116  H49   S    
C122  H70   S    
C132  H98   S    
O28   Zn4   S    
C181  C190  A    
C126  O69   S    
C120  O63   S    
C27   Cl10  S    
C6    C15   A    
O21   Zn10  S    
C15   O73   S    
C135  C215  A    
C54   C70   A    
C13   C86   A    
C116  O59   S    
C116  H48   S    
C112  O12   A    
C52   C68   A    
O67   Zn10  S    
C145  C153  A    
C188  C194  S    
C105  H19   S    
C16   C159  A    
C3    C142  A    
C172  C181  A    
C207  O11   A    
C50   C65   A    
C26   C34   A    
C162  C215  A    
C12   O71   S    
C213  O8    A    
C22   C31   A    
C35   C55   A    
C111  H38   S    
C118  H55   S    
C9    C167  A    
C38   H83   S    
O27   Zn3   S    
C126  H78   S    
C109  O53   S    
C49   C58   A    
C128  O71   S    
C89   C97   A    
C123  O66   S    
C202  C219  A    
C99   Cl15  S    
C85   C94   A    
C9    C18   A    
C13   C76   A    
C138  C147  A    
C87   C96   A    
C188  O25   A    
C31   H17   S    
C127  H84   S    
C115  O58   S    
C155  C191  S    
C165  C218  A    
C47   O41   A    
O18   Zn9   S    
C110  H36   S    
C161  C170  A    
C114  H44   S    
C7    Cl19  S    
C117  O60   S    
C107  H27   S    
C171  C180  A    
O13   Zn7   S    
C44   O32   A    
C45   O40   A    
C169  C178  A    
C47   C170  S    
C33   H39   S    
C48   C56   A    
C143  C152  A    
C17   O75   S    
C118  H57   S    
C102  H10   S    
C18   O76   S    
C53   C73   A    
C91   C212  S    
C197  C215  A    
C208  O4    A    
C23   Cl7   S    
O43   Zn12  S    
O78   Zn11  S    
C142  C151  A    
C21   Cl5   S    
C138  C159  A    
C25   Cl8   S    
C132  H100  S    
C125  O68   S    
C184  O68   S    
C12   C158  A    
C151  C160  A    
C119  O62   S    
C24   C84   A    
C131  H95   S    
C71   C75   A    
O36   Zn3   S    
C94   C99   A    
C56   O52   S    
C194  C203  A    
C136  H5    S    
C32   H28   S    
C79   O58   S    
C134  H3    S    
C2    C80   A    
C177  O56   A    
O56   Zn9   S    
C53   C62   A    
C105  H21   S    
C166  O45   A    
C25   C33   A    
C42   O30   A    
C70   C72   A    
C34   H50   S    
