data_mof_unit_18992.cif
_audit_creation_date              2012-12-11T15:27:27-0500
_audit_creation_method            fapswitch 2.2
_symmetry_space_group_name_H-M    P1
_symmetry_Int_Tables_number       1
_space_group_crystal_system       triclinic
_cell_length_a                    13.929014
_cell_length_b                    13.990985
_cell_length_c                    27.424038
_cell_angle_alpha                 89.884329
_cell_angle_beta                  89.963362
_cell_angle_gamma                 120.305278
_cell_volume                      4614.07668018

loop_
_atom_site_label
_atom_site_type_symbol
_atom_type_description
_atom_site_fract_x
_atom_site_fract_y
_atom_site_fract_z
_atom_type_partial_charge
C1    C     C_R   0.233757 0.787242 0.568469 0.542194
C2    C     C_1   0.704988 0.861662 0.859157 -0.021630
C3    C     C_1   0.114937 0.884877 0.850777 -0.022301
C4    C     C_1   0.155631 0.296385 0.859339 -0.020402
C5    C     C_1   0.626947 0.814521 0.658638 -0.070591
C6    C     C_1   0.178094 0.820361 0.655557 -0.070987
C7    C     C_1   0.186306 0.373820 0.658823 -0.070262
C8    C     C_1   0.599986 0.796406 0.616448 -0.013664
C9    C     C_1   0.199265 0.806445 0.614619 -0.014102
C10   C     C_1   0.195728 0.400299 0.616551 -0.013633
C11   C     C_R   0.107427 0.220610 0.949068 0.545556
C12   C     C_R   0.212650 0.447304 0.568806 0.541171
C13   C     C_R   0.779835 0.886790 0.948966 0.543963
C14   C     C_R   0.091441 0.929704 0.941763 0.561364
C15   C     C_R   0.614773 0.807748 0.385623 0.025192
C16   C     C_R   0.192483 0.807014 0.385615 0.025035
C17   C     C_R   0.192617 0.386059 0.385523 0.025117
C18   C     C_R   0.608196 0.891561 0.360239 -0.125948
C19   C     C_R   0.107183 0.716491 0.360566 -0.126016
C20   C     C_R   0.283294 0.391545 0.360472 -0.125798
C21   C     C_R   0.636793 0.910191 0.311339 -0.123145
C22   C     C_R   0.088350 0.726383 0.311701 -0.123033
C23   C     C_R   0.552510 0.765463 0.568796 0.539927
C24   C     C_R   0.273539 0.362922 0.311623 -0.122933
C25   C     C_R   0.674618 0.846990 0.287452 0.036576
C26   C     C_R   0.152928 0.827461 0.287498 0.036425
C27   C     C_R   0.172427 0.326291 0.287409 0.036420
C28   C     C_R   0.233043 0.787506 0.431555 0.543129
C29   C     C_R   0.212335 0.445768 0.431529 0.543142
C30   C     C_R   0.554402 0.766912 0.431590 0.542116
C31   C     C_R   0.692427 0.771522 0.314092 -0.120264
C32   C     C_R   0.230102 0.920890 0.313821 -0.120444
C33   C     C_R   0.078754 0.309980 0.313710 -0.120214
C34   C     C_3   0.642290 0.728055 0.790197 0.136328
C35   C     C_R   0.661981 0.751448 0.362933 -0.127240
C36   C     C_R   0.250306 0.910599 0.362617 -0.127565
C37   C     C_R   0.088922 0.340348 0.362492 -0.127300
C38   C     C_R   0.656007 0.759198 0.206665 -0.119936
C39   C     C_R   0.240819 0.896257 0.206330 -0.119918
C40   C     C_R   0.104641 0.345002 0.206105 -0.119839
C41   C     C_R   0.676818 0.767509 0.156866 -0.131509
C42   C     C_R   0.232391 0.908720 0.156544 -0.131460
C43   C     C_R   0.092259 0.323796 0.156367 -0.131202
C44   C     C_R   0.753919 0.966360 0.161310 -0.125345
C45   C     C_3   0.257469 0.932805 0.785867 0.137242
C46   C     C_R   0.032263 0.787625 0.161702 -0.126109
C47   C     C_R   0.211910 0.244581 0.161831 -0.125809
C48   C     C_R   0.735137 0.958328 0.211188 -0.121700
C49   C     C_R   0.040455 0.776860 0.211582 -0.121411
C50   C     C_R   0.222628 0.263912 0.211673 -0.121561
C51   C     C_R   0.689029 0.855095 0.234416 0.035806
C52   C     C_R   0.144458 0.833680 0.234453 0.035622
C53   C     C_R   0.166449 0.311340 0.234378 0.035499
C54   C     C_R   0.729273 0.871580 0.134316 0.022869
C55   C     C_R   0.127713 0.857365 0.134341 0.021472
C56   C     C_3   0.088399 0.365116 0.790787 0.137072
C57   C     C_R   0.142906 0.270235 0.134337 0.022669
C58   C     C_R   0.106777 0.221410 0.086212 0.548778
C59   C     C_R   0.778499 0.884858 0.086192 0.547780
C60   C     C_R   0.115042 0.893292 0.086146 0.560733
C61   C     C_3   0.570946 0.863858 0.736357 -0.229339
C62   C     C_3   0.103498 0.724671 0.734737 -0.229173
C63   C     C_3   0.293604 0.425247 0.736003 -0.229860
C64   C     C_3   0.770598 0.916212 0.722255 -0.230342
C65   C     C_3   0.087037 0.890207 0.711367 -0.227196
C66   C     C_3   0.136990 0.229804 0.722709 -0.232353
C67   C     C_3   0.624130 0.716458 0.734021 -0.187900
C68   C     C_3   0.789609 0.931570 0.778068 -0.222528
C69   C     C_3   0.065450 0.902608 0.765742 -0.223270
C70   C     C_3   0.132071 0.210635 0.778526 -0.225422
C71   C     C_1   0.733127 0.872181 0.901224 0.002245
C72   C     C_1   0.103369 0.903467 0.892545 0.005841
C73   C     C_1   0.139223 0.267762 0.901377 0.001134
C74   C     C_3   0.648223 0.828076 0.711408 0.040837
C75   C     C_3   0.160553 0.836816 0.706868 0.040426
C76   C     C_3   0.178202 0.353009 0.711613 0.042052
C77   C     C_3   0.590781 0.876057 0.792368 -0.258310
C78   C     C_3   0.274288 0.914319 0.731275 -0.189900
C79   C     C_3   0.088221 0.742582 0.789457 -0.254252
C80   C     C_3   0.285885 0.405392 0.791994 -0.258000
C81   C     C_3   0.682451 0.849363 0.806447 0.079136
C82   C     C_3   0.131413 0.866875 0.799373 0.079030
C83   C     C_3   0.164951 0.319076 0.806665 0.079604
C84   C     C_3   0.095290 0.383472 0.734533 -0.187674
Cr1   Cr    Cr6+3 0.164410 0.584450 0.499910 1.018933
Cr2   Cr    Cr6+3 0.415550 0.579960 0.499910 1.018484
Cr3   Cr    Cr6+3 0.420040 0.835590 0.499910 1.018633
Cr4   Cr    Cr6+3 0.156760 0.076070 0.017830 1.026397
Cr5   Cr    Cr6+3 0.923930 0.080690 0.017830 1.026898
Cr6   Cr    Cr6+3 0.919310 0.843240 0.017830 1.033486
H1    H     H_    0.615703 0.961909 0.803589 0.139262
H2    H     H_    0.572477 0.936744 0.376863 0.132985
H3    H     H_    0.060818 0.635538 0.377438 0.132195
H4    H     H_    0.364358 0.426160 0.377343 0.132573
H5    H     H_    0.616679 0.678176 0.223649 0.104410
H6    H     H_    0.322373 0.937734 0.223009 0.104459
H7    H     H_    0.063680 0.385240 0.222636 0.104683
H8    H     H_    0.657065 0.693592 0.136456 0.119550
H9    H     H_    0.306816 0.962626 0.135855 0.120102
H10   H     H_    0.038917 0.344284 0.135584 0.119996
H11   H     H_    0.622376 0.968919 0.291627 0.100175
H12   H     H_    0.998679 0.692077 0.799441 0.143395
H13   H     H_    0.028282 0.653120 0.292250 0.100144
H14   H     H_    0.346999 0.376202 0.292192 0.100082
H15   H     H_    0.761427 0.033449 0.231806 0.101693
H16   H     H_    0.964958 0.728268 0.232482 0.101531
H17   H     H_    0.270619 0.237083 0.232686 0.101745
H18   H     H_    0.795440 0.047790 0.144638 0.130943
H19   H     H_    0.950377 0.748016 0.145301 0.130087
H20   H     H_    0.250925 0.202098 0.145576 0.130225
H21   H     H_    0.725369 0.724696 0.296640 0.101553
H22   H     H_    0.278087 0.000726 0.296153 0.101357
H23   H     H_    0.343437 0.375788 0.802925 0.142810
H24   H     H_    0.998840 0.278063 0.296044 0.101475
H25   H     H_    0.586705 0.944044 0.720782 0.132901
H26   H     H_    0.020945 0.667795 0.718246 0.133612
H27   H     H_    0.354951 0.405232 0.720167 0.132931
H28   H     H_    0.669416 0.687643 0.382024 0.126539
H29   H     H_    0.315334 0.981949 0.381428 0.126332
H30   H     H_    0.017436 0.333866 0.381279 0.126406
H31   H     H_    0.827475 0.890386 0.706281 0.107502
H32   H     H_    0.128796 0.973062 0.693497 0.109507
H33   H     H_    0.052906 0.176521 0.706776 0.109020
H34   H     H_    0.482313 0.801489 0.729056 0.108564
H35   H     H_    0.791294 0.996636 0.705182 0.119342
H36   H     H_    0.006281 0.838293 0.692469 0.117674
H37   H     H_    0.193781 0.204983 0.705790 0.115837
H38   H     H_    0.813924 0.018061 0.787831 0.115467
H39   H     H_    0.975322 0.849524 0.773389 0.101112
H40   H     H_    0.190593 0.181794 0.788479 0.122080
H41   H     H_    0.860429 0.920928 0.788737 0.106743
H42   H     H_    0.087176 0.988976 0.773249 0.108045
H43   H     H_    0.047558 0.143531 0.789225 0.108256
H44   H     H_    0.536723 0.651342 0.726268 0.089603
H45   H     H_    0.154496 0.684178 0.731573 0.109852
H46   H     H_    0.328170 0.876818 0.728842 0.087788
H47   H     H_    0.122979 0.471806 0.726693 0.089103
H48   H     H_    0.678328 0.688906 0.716660 0.132289
H49   H     H_    0.318318 0.994494 0.711236 0.132992
H50   H     H_    0.011985 0.333242 0.717443 0.132823
H51   H     H_    0.560647 0.672767 0.808015 0.148474
H52   H     H_    0.301118 0.900128 0.808390 0.150979
H53   H     H_    0.119496 0.447008 0.808569 0.148416
H54   H     H_    0.784214 0.731272 0.786159 0.319823
H55   H     H_    0.280104 0.080388 0.772592 0.318503
H56   H     H_    0.324658 0.514415 0.728580 0.107984
H57   H     H_    0.944068 0.227862 0.787037 0.320321
H58   H     H_    0.511948 0.819198 0.811808 0.099668
H59   H     H_    0.134109 0.713167 0.812406 0.107107
H60   H     H_    0.313192 0.484912 0.811318 0.098115
O1    O     O_R   0.137310 0.468260 0.552980 -0.509575
O2    O     O_R   0.139940 0.470480 0.446230 -0.522072
O3    O     O_R   0.529520 0.669460 0.446230 -0.521200
O4    O     O_R   0.330540 0.860060 0.446230 -0.521835
O5    O     O_R   0.176560 0.690850 0.450770 -0.506471
O6    O     O_R   0.309150 0.485710 0.450770 -0.505561
O7    O     O_R   0.514290 0.823440 0.450770 -0.506258
O8    O     O_3   0.333333 0.666667 0.499990 -0.264715
O9    O     O_3   0.000000 1.000000 0.017910 -0.245280
O10   O     O_R   0.149710 0.171070 0.967700 -0.518272
O11   O     O_R   0.828930 0.978640 0.967700 -0.500188
O12   O     O_R   0.531740 0.669050 0.552980 -0.508872
O13   O     O_R   0.021360 0.850290 0.967700 -0.489780
O14   O     O_R   0.178510 0.985930 0.071830 -0.514711
O15   O     O_R   0.014070 0.192580 0.071830 -0.516536
O16   O     O_R   0.807420 0.821490 0.071830 -0.518484
O17   O     O_R   0.147830 0.173300 0.066650 -0.500732
O18   O     O_R   0.826700 0.974530 0.066650 -0.499047
O19   O     O_R   0.025470 0.852170 0.066650 -0.493704
O20   O     O_3   0.715044 0.691778 0.805671 -0.702234
O21   O     O_3   0.306192 0.046154 0.796943 -0.705208
O22   O     O_3   0.977812 0.296791 0.806566 -0.700404
O23   O     O_R   0.330950 0.862690 0.552980 -0.509495
O24   O     O_R   0.180530 0.983530 0.965090 -0.494973
O25   O     O_R   0.016470 0.197000 0.965090 -0.496064
O26   O     O_R   0.803000 0.819470 0.965090 -0.505778
O27   O     O_R   0.174120 0.688790 0.549730 -0.499037
O28   O     O_R   0.311210 0.485330 0.549730 -0.497875
O29   O     O_R   0.514670 0.825880 0.549730 -0.498318

loop_
_geom_bond_atom_site_label_1
_geom_bond_atom_site_label_2
_ccdc_geom_bond_type
C25   C31   A    
C30   O7    A    
C12   O28   A    
H55   O21   S    
C34   H51   S    
C26   C32   A    
Cr6   O26   S    
C15   C18   A    
C18   C21   A    
C17   C29   S    
C45   C82   S    
C24   C27   A    
Cr2   O28   S    
C78   H49   S    
C76   C84   S    
C6    C9    T    
C25   C51   S    
C6    C75   S    
C66   C70   S    
C27   C33   A    
C80   H60   S    
C39   H6    S    
C37   H30   S    
C46   C49   A    
C1    O23   A    
C33   H24   S    
C15   C30   S    
C61   H34   S    
C60   O19   A    
C64   C68   S    
Cr2   O3    S    
C69   H42   S    
C63   H27   S    
C63   C76   S    
C64   H31   S    
H54   O20   S    
C70   H40   S    
C17   C20   A    
Cr4   O24   S    
C66   H37   S    
C79   C82   S    
Cr1   O5    S    
Cr4   O9    S    
Cr5   O11   S    
C14   O13   A    
C36   H29   S    
C58   O15   A    
Cr2   O6    S    
C5    C74   S    
C21   C25   A    
C69   C82   S    
C56   H53   S    
C1    O27   A    
C30   O3    A    
C20   C24   A    
C61   C77   S    
C67   H48   S    
C38   H5    S    
C61   H25   S    
C70   H43   S    
C79   H12   S    
C56   C84   S    
C45   C78   S    
Cr2   O12   S    
C34   C81   S    
C39   C42   A    
C68   H38   S    
C63   H56   S    
C23   O29   A    
C16   C28   S    
C19   H3    S    
C79   H59   S    
C23   O12   A    
C21   H11   S    
Cr4   O17   S    
C39   C52   A    
C55   C60   S    
Cr6   O16   S    
C28   O4    A    
C12   O1    A    
C8    C23   S    
C80   C83   S    
C45   O21   S    
C15   C35   A    
C11   O10   A    
Cr5   O9    S    
C47   C50   A    
C54   C59   S    
C44   H18   S    
Cr3   O23   S    
C48   C51   A    
C50   C53   A    
C62   C79   S    
C19   C22   A    
C1    C9    S    
C43   H10   S    
C38   C41   A    
C11   C73   S    
C40   H7    S    
C13   O26   A    
C13   C71   S    
Cr4   O14   S    
C33   C37   A    
C22   H13   S    
Cr3   O7    S    
C24   H14   S    
C62   H45   S    
C46   C55   A    
C68   H41   S    
Cr1   O1    S    
Cr5   O18   S    
C62   H26   S    
C58   O17   A    
C26   C52   S    
C42   C55   A    
C47   C57   A    
C48   H15   S    
C77   C81   S    
C49   C52   A    
C66   C76   S    
C40   C43   A    
C3    C82   S    
Cr3   O4    S    
C67   C74   S    
C17   C37   A    
C65   H32   S    
C70   C83   S    
Cr2   O8    S    
C77   H58   S    
Cr5   O15   S    
C4    C73   T    
C7    C76   S    
C59   O16   A    
C10   C12   S    
C29   O6    A    
Cr1   O27   S    
C84   H47   S    
C64   H35   S    
C50   H17   S    
C31   C35   A    
C62   C75   S    
Cr1   O8    S    
Cr6   O9    S    
C2    C71   T    
C32   C36   A    
H57   O22   S    
C56   C83   S    
C20   H4    S    
C77   H1    S    
C64   C74   S    
C32   H22   S    
C66   H33   S    
C14   C72   S    
C35   H28   S    
C34   O20   S    
C34   C67   S    
C5    C8    T    
C27   C53   S    
C13   O11   A    
C49   H16   S    
C38   C51   A    
C61   C74   S    
C63   C80   S    
C47   H20   S    
C11   O25   A    
C65   C75   S    
Cr3   O8    S    
C68   C81   S    
Cr6   O13   S    
C67   H44   S    
C7    C10   T    
C3    C72   T    
Cr1   O2    S    
C18   H2    S    
C14   O24   A    
C28   O5    A    
C42   H9    S    
C65   H36   S    
C29   O2    A    
C57   C58   S    
C45   H52   S    
C4    C83   S    
C16   C19   A    
C65   C69   S    
C56   O22   S    
Cr6   O19   S    
C60   O14   A    
C31   H21   S    
Cr4   O10   S    
C75   C78   S    
C41   C54   A    
C43   C57   A    
Cr3   O29   S    
C44   C54   A    
C80   H23   S    
C84   H50   S    
C69   H39   S    
C40   C53   A    
C22   C26   A    
C46   H19   S    
Cr5   O25   S    
C41   H8    S    
C2    C81   S    
C78   H46   S    
C16   C36   A    
C59   O18   A    
C44   C48   A    
