data_mof_unit_15544.cif
_audit_creation_date              2013-03-05T16:15:18-0500
_audit_creation_method            fapswitch 2.2
_symmetry_space_group_name_H-M    P1
_symmetry_Int_Tables_number       1
_space_group_crystal_system       triclinic
_cell_length_a                    27.788121
_cell_length_b                    10.624028
_cell_length_c                    9.416579
_cell_angle_alpha                 90.15055
_cell_angle_beta                  89.86092
_cell_angle_gamma                 89.836239
_cell_volume                      2779.94997937

loop_
_atom_site_label
_atom_site_type_symbol
_atom_site_description
_atom_site_fract_x
_atom_site_fract_y
_atom_site_fract_z
_atom_type_partial_charge
O1    O     O_R   0.500020 0.316850 0.620870 -0.585354
O2    O     O_R   0.499980 0.683150 0.379130 -0.586557
O3    O     O_R   0.500000 0.316860 0.379090 -0.569275
O4    O     O_R   0.500000 0.683140 0.620910 -0.568366
C1    C     C_R   0.500031 0.259384 0.499700 0.781380
C2    C     C_R   0.500007 0.740615 0.500298 0.779836
O5    O     O_R   0.430270 0.500020 0.620880 -0.540884
O6    O     O_R   0.569730 0.499980 0.379120 -0.551904
O7    O     O_R   0.430250 0.500030 0.379090 -0.491540
O8    O     O_R   0.569750 0.499970 0.620910 -0.494330
C3    C     C_R   0.407320 0.499916 0.500123 0.883074
C4    C     C_R   0.592448 0.499323 0.499871 0.909912
Cu1   Cu    Cu3+1 0.500010 0.499990 0.643150 1.050790
Cu2   Cu    Cu3+1 0.499990 0.500010 0.356850 1.047119
C5    C     C_R   0.177700 0.385201 0.512983 0.562905
C6    C     C_R   0.821222 0.593792 0.551669 0.605097
O9    O     O_2   0.203235 0.276929 0.509894 -0.524406
O10   O     O_2   0.795625 0.697460 0.587101 -0.531942
N1    N     N_R   0.201049 0.497889 0.507876 -0.446751
N2    N     N_R   0.797952 0.488011 0.506794 -0.430070
C7    C     C_R   0.176672 0.609760 0.512461 0.564552
C8    C     C_R   0.822449 0.380348 0.472261 0.555476
C9    C     C_R   0.277384 0.502440 0.372119 0.189872
C10   C     C_R   0.722113 0.548951 0.388694 0.199139
C11   C     C_R   0.327917 0.502153 0.371651 0.532574
C12   C     C_R   0.671589 0.552380 0.388638 0.450336
C13   C     C_R   0.328210 0.496872 0.629840 0.534662
C14   C     C_R   0.670223 0.436487 0.610957 0.546150
C15   C     C_R   0.278165 0.496352 0.630104 -0.212698
C16   C     C_R   0.720288 0.432701 0.610693 -0.243256
C17   C     C_R   0.252611 0.498654 0.502741 0.120965
C18   C     C_R   0.746378 0.488735 0.500731 0.170679
C19   C     C_R   0.101165 0.495258 0.525515 -0.103217
C20   C     C_R   0.897831 0.486073 0.525218 -0.100683
C21   C     C_R   0.127403 0.381631 0.521302 -0.052178
C22   C     C_R   0.871491 0.594855 0.561910 -0.057856
C23   C     C_R   0.103209 0.266835 0.531682 -0.216199
C24   C     C_R   0.895536 0.700808 0.613666 -0.228471
C25   C     C_R   0.125869 0.611558 0.522659 -0.059640
C26   C     C_R   0.873245 0.376370 0.480469 -0.059903
C27   C     C_R   0.353924 0.499878 0.500518 -0.365178
C28   C     C_R   0.645395 0.496216 0.499795 -0.319054
H1    H     H_    0.258924 0.493781 0.730242 0.190096
H2    H     H_    0.739073 0.386867 0.697022 0.188175
H3    H     H_    0.123293 0.179616 0.539107 0.181325
H4    H     H_    0.875246 0.781271 0.652153 0.180639
C29   C     C_R   0.975159 0.376122 0.505607 0.019665
C30   C     C_R   0.023861 0.605461 0.547616 0.017783
C31   C     C_R   0.973170 0.600449 0.568473 0.032946
C32   C     C_R   0.025795 0.375257 0.525977 0.032406
C33   C     C_R   0.948783 0.487515 0.533158 0.013195
C34   C     C_R   0.050208 0.492064 0.532944 0.013433
C35   C     C_R   0.950455 0.270671 0.452405 -0.232223
C36   C     C_R   0.048745 0.720222 0.535732 -0.239789
C37   C     C_R   0.900320 0.268338 0.442544 0.246685
C38   C     C_R   0.098939 0.724728 0.527424 0.249491
O11   O     O_2   0.797463 0.278579 0.429189 -0.501659
O12   O     O_2   0.201794 0.718060 0.506968 -0.505046
C39   C     C_R   0.053071 0.262557 0.540161 0.230454
C40   C     C_R   0.945707 0.703069 0.623270 0.238208
H5    H     H_    0.969727 0.189239 0.413188 0.174307
H6    H     H_    0.029650 0.808672 0.529366 0.177837
C41   C     C_3   0.539612 0.041928 0.566603 -0.158002
C42   C     C_3   0.460475 0.958080 0.433386 -0.162534
C43   C     C_3   0.539560 0.957459 0.432570 -0.157337
C44   C     C_3   0.460527 0.042534 0.567420 -0.160555
H7    H     H_    0.571867 0.919430 0.377502 0.173411
H8    H     H_    0.428219 0.080535 0.622498 0.161440
H9    H     H_    0.571959 0.079463 0.621012 0.170973
H10   H     H_    0.428127 0.920578 0.378964 0.152987
C45   C     C_3   0.500037 0.877596 0.500989 0.008220
C46   C     C_3   0.500046 0.122404 0.499003 0.007682
C47   C     C_3   0.500092 0.959786 0.635165 -0.118073
C48   C     C_3   0.499996 0.040215 0.364825 -0.117495
H11   H     H_    0.500138 0.924274 0.745958 0.167482
H12   H     H_    0.499948 0.075728 0.254032 0.166994
C49   C     C_3   0.492543 0.612589 0.050992 -0.243092
C50   C     C_3   0.507505 0.387418 0.949027 -0.240249
C51   C     C_3   0.459065 0.539801 0.949656 -0.161155
C52   C     C_3   0.540974 0.460243 0.050427 -0.159781
H13   H     H_    0.424765 0.573556 0.903198 0.227037
H14   H     H_    0.575457 0.427829 0.097271 0.195321
H15   H     H_    0.486625 0.707335 0.097934 0.172707
H16   H     H_    0.513417 0.292667 0.902089 0.176919
N3    N     N_3   0.500040 0.499970 0.858290 -0.237406
N4    N     N_3   0.499960 0.500030 0.141710 -0.237086
C53   C     C_3   0.533010 0.571657 0.950494 0.799993
C54   C     C_3   0.467015 0.428333 0.049497 0.810057
F1    F     F_    0.351079 0.493224 0.756884 -0.627281
F2    F     F_    0.646144 0.379644 0.718702 -0.630208
F3    F     F_    0.568113 0.648206 0.892954 -0.618329
F4    F     F_    0.431995 0.351484 0.106933 -0.592081
F5    F     F_    0.648259 0.611970 0.281286 -0.637634
F6    F     F_    0.351241 0.501389 0.244694 -0.583774
N5    N     N_2   0.748599 0.608970 0.278653 -0.394783
H17   H     H_    0.732841 0.690786 0.242377 0.305402
C55   C     C_3   0.762563 0.526239 0.163449 -0.593348
H18   H     H_    0.784674 0.579195 0.085629 0.221853
H19   H     H_    0.730128 0.489361 0.108591 0.255256
H20   H     H_    0.784424 0.446400 0.203515 0.241733
N6    N     N_2   0.251959 0.501799 0.240827 -0.369659
H21   H     H_    0.218361 0.461038 0.244636 0.256250
C56   C     C_3   0.251717 0.620716 0.166301 -0.548422
H22   H     H_    0.231977 0.692908 0.229212 0.228242
H23   H     H_    0.233453 0.609007 0.062355 0.211276
H24   H     H_    0.288972 0.653639 0.145902 0.270966
N7    N     N_2   0.877870 0.156491 0.392606 -0.375180
H25   H     H_    0.894553 0.118461 0.304305 0.239853
C57   C     C_3   0.870249 0.063092 0.501851 -0.576606
H26   H     H_    0.850065 0.982275 0.456890 0.242009
H27   H     H_    0.848921 0.103581 0.591002 0.247684
H28   H     H_    0.905344 0.028390 0.542577 0.186678
N8    N     N_2   0.121728 0.844430 0.525560 -0.374815
H29   H     H_    0.105103 0.908508 0.459659 0.230483
C58   C     C_3   0.130522 0.895863 0.665535 -0.594515
H30   H     H_    0.151403 0.984325 0.655985 0.238328
H31   H     H_    0.151746 0.828510 0.730449 0.246148
H32   H     H_    0.095891 0.916671 0.720243 0.200160
N9    N     N_2   0.031151 0.147302 0.581504 -0.449914
H33   H     H_    0.049679 0.067709 0.550227 0.244052
C59   C     C_3   0.017286 0.143498 0.729596 -0.688156
H34   H     H_    0.999120 0.053251 0.752523 0.228483
H35   H     H_    0.991822 0.221179 0.755062 0.243781
H36   H     H_    0.049617 0.151105 0.798344 0.226730
N10   N     N_2   0.967346 0.802908 0.701515 -0.453028
H37   H     H_    0.946866 0.883881 0.706464 0.241953
C60   C     C_3   0.985561 0.766836 0.839492 -0.683977
H38   H     H_    0.003656 0.848537 0.889820 0.217903
H39   H     H_    0.012317 0.689468 0.829617 0.244657
H40   H     H_    0.955472 0.736057 0.909075 0.230641

loop_
_geom_bond_atom_site_label_1
_geom_bond_atom_site_label_2
_geom_bond_distance
_ccdc_geom_bond_type
C44   H8    1.110212 S    
C41   C43   1.546734 S    
N6    H21   1.030879 S    
C53   F3    1.382304 S    
C13   C15   1.390680 A    
C47   H11   1.110349 S    
C35   C37   1.396746 A    
N5    H17   1.031551 S    
N1    C17   1.433551 S    
C8    O11   1.348675 S    
C60   H39   1.110328 S    
C55   H18   1.110401 S    
C19   C34   1.418064 A    
O5    C3    1.305092 A    
C20   C33   1.418153 A    
C19   C25   1.415463 A    
C31   C40   1.423944 A    
C48   H12   1.110348 S    
O1    C1    1.292658 A    
C32   C39   1.421985 A    
C40   N10   1.425200 S    
C21   C23   1.397832 A    
C10   C12   1.404342 A    
C52   C53   1.530016 S    
C57   H27   1.111425 S    
N4    C54   1.475362 S    
C43   H7    1.110249 S    
C49   H15   1.109961 S    
C58   H30   1.109663 S    
C42   C45   1.531607 S    
C14   C28   1.406733 A    
O4    Cu1   1.957575 S    
C59   H36   1.111621 S    
C4    C28   1.471553 S    
C5    N1    1.364249 A    
C35   H5    1.079984 S    
C44   C46   1.531601 S    
C54   F4    1.382169 S    
C31   C33   1.418804 A    
C32   C34   1.417421 A    
N7    H25   1.031905 S    
C13   F1    1.356582 S    
C42   H10   1.110216 S    
C20   C22   1.408045 A    
O6    C4    1.301919 A    
C29   C35   1.407284 A    
C26   C37   1.415102 A    
C12   F5    1.359106 S    
C49   C51   1.542257 S    
C11   F6    1.358500 S    
N6    C56   1.446829 S    
Cu1   Cu2   2.695968 S    
C15   H1    1.083308 S    
N7    C57   1.446797 S    
C16   H2    1.083112 S    
O2    C2    1.292647 A    
O6    Cu2   1.949762 S    
C5    C21   1.400299 A    
C51   C54   1.529866 S    
C55   H19   1.111725 S    
C29   C32   1.420576 A    
N9    C59   1.446561 S    
C2    C45   1.455289 S    
C36   C38   1.397747 A    
C59   H35   1.110901 S    
N3    C53   1.475685 S    
C41   H9    1.110250 S    
Cu2   N4    2.025887 S    
C46   C48   1.533969 S    
C57   H28   1.111111 S    
C11   C27   1.414122 A    
C45   C47   1.533966 S    
C29   C33   1.413344 A    
C36   H6    1.079718 S    
C58   H31   1.111383 S    
C43   C45   1.531655 S    
C44   C47   1.545760 S    
C43   C48   1.545805 S    
C37   N7    1.423032 S    
C9    C17   1.408808 A    
C30   C36   1.407958 A    
O7    Cu2   1.948720 S    
C10   C18   1.407648 A    
C13   C27   1.410920 A    
C25   C38   1.414925 A    
C7    C25   1.414837 A    
C30   C34   1.414243 A    
C6    N2    1.364784 A    
C58   H32   1.111806 S    
C8    C26   1.414358 A    
C56   H23   1.110520 S    
O7    C3    1.304385 A    
C59   H34   1.106366 S    
C23   C39   1.396213 A    
O3    Cu2   1.957574 S    
O8    C4    1.301315 A    
C24   C40   1.397586 A    
C50   N3    1.485843 S    
C52   H14   1.110101 S    
C30   C31   1.422928 A    
N2    C8    1.367463 A    
C49   N4    1.485618 S    
N10   H37   1.030998 S    
C20   C26   1.416348 A    
C10   N5    1.422840 S    
O4    C2    1.290901 A    
O1    Cu1   1.956415 S    
C23   H3    1.082852 S    
C60   H38   1.110106 S    
C51   N3    1.485370 S    
C55   H20   1.109342 S    
C12   C28   1.408384 A    
C51   H13   1.108755 S    
N8    H29   1.031388 S    
N2    C18   1.434414 S    
C50   C54   1.529663 S    
C5    O9    1.350026 S    
C39   N9    1.423911 S    
N1    C7    1.366855 A    
O3    C1    1.290892 A    
O8    Cu1   1.948720 S    
N9    H33   1.030697 S    
N5    C55   1.446016 S    
C1    C46   1.455280 S    
C41   C47   1.545781 S    
C52   N4    1.485601 S    
C14   C16   1.391666 A    
C60   H40   1.111471 S    
C7    O12   1.348545 S    
C15   C17   1.395490 A    
C57   H26   1.110414 S    
C6    C22   1.400526 A    
C16   C18   1.397946 A    
C9    N6    1.425445 S    
C22   C24   1.397874 A    
C19   C21   1.408908 A    
C3    C27   1.483774 S    
C56   H24   1.110159 S    
C50   C52   1.542675 S    
C9    C11   1.404211 A    
O2    Cu2   1.956414 S    
C24   H4    1.083794 S    
C50   H16   1.109964 S    
O5    Cu1   1.949762 S    
C41   C46   1.531644 S    
C49   C53   1.529404 S    
C6    O10   1.350079 S    
Cu1   N3    2.025887 S    
C56   H22   1.110732 S    
N10   C60   1.447705 S    
C42   C48   1.545739 S    
C14   F2    1.357965 S    
C42   C44   1.546648 S    
C38   N8    1.422415 S    
N8    C58   1.447128 S    
