data_mof_unit_57137.cif
_audit_creation_date              2012-12-10T18:25:42-0500
_audit_creation_method            fapswitch 2.2
_symmetry_space_group_name_H-M    P1
_symmetry_Int_Tables_number       1
_space_group_crystal_system       triclinic
_cell_length_a                    23.559308
_cell_length_b                    15.879128
_cell_length_c                    14.633404
_cell_angle_alpha                 90.581946
_cell_angle_beta                  90.354383
_cell_angle_gamma                 89.979618
_cell_volume                      5473.98766692

loop_
_atom_site_label
_atom_site_type_symbol
_atom_type_description
_atom_site_fract_x
_atom_site_fract_y
_atom_site_fract_z
_atom_type_partial_charge
C1    C     C_R   0.500003 0.339530 0.499564 0.817418
C2    C     C_R   0.499981 0.660469 0.500435 0.810083
C3    C     C_R   0.236658 0.519923 0.422900 -0.209026
C4    C     C_R   0.763398 0.488104 0.578928 -0.226328
C5    C     C_R   0.296111 0.522009 0.419812 0.136771
C6    C     C_R   0.704059 0.487308 0.582064 0.124298
C7    C     C_R   0.327837 0.501545 0.499195 -0.075316
C8    C     C_R   0.672247 0.499422 0.500824 -0.058796
C9    C     C_R   0.299012 0.480869 0.579831 -0.315794
C10   C     C_R   0.701157 0.511741 0.418157 -0.324262
C11   C     C_R   0.239683 0.479460 0.582191 0.203128
C12   C     C_R   0.760525 0.512517 0.415678 0.204699
C13   C     C_R   0.208592 0.498937 0.503323 0.352868
C14   C     C_R   0.791623 0.500558 0.496476 0.356761
C15   C     C_3   0.550939 0.971996 0.471981 0.249807
C16   C     C_3   0.448975 0.027998 0.528007 0.249980
C17   C     C_3   0.509919 0.025472 0.414093 0.248526
C18   C     C_3   0.489995 0.974521 0.585895 0.248099
C19   C     C_1   0.499991 0.250075 0.498626 -0.153365
C20   C     C_1   0.499963 0.749921 0.501370 -0.155883
C21   C     C_3   0.540986 0.028538 0.556653 0.250009
C22   C     C_3   0.458929 0.971453 0.443335 0.249470
C23   C     C_R   0.390598 0.500893 0.499661 0.818651
C24   C     C_R   0.609436 0.499606 0.500356 0.829626
C25   C     C_3   0.499964 0.083306 0.498742 -0.136435
C26   C     C_3   0.499952 0.916687 0.501247 -0.136045
C27   C     C_1   0.499978 0.174710 0.498291 0.143850
C28   C     C_1   0.499953 0.825285 0.501702 0.142566
C29   C     C_3   0.449454 0.526840 0.969856 -0.067961
C30   C     C_3   0.550597 0.473134 0.030136 -0.067770
C31   C     C_3   0.459100 0.448173 0.028910 0.371300
C32   C     C_3   0.540952 0.551798 0.971075 0.370592
C33   C     C_3   0.490149 0.578192 0.031852 0.330763
C34   C     C_3   0.509904 0.421783 0.968136 0.330143
C35   C     C_3   0.500162 0.499328 0.092266 -0.173861
C36   C     C_3   0.499886 0.500645 0.907729 -0.173960
C37   C     C_1   0.500056 0.499590 0.194409 0.294149
C38   C     C_1   0.499966 0.500398 0.805589 0.292455
C39   C     C_R   0.880839 0.569398 0.530595 0.543092
C40   C     C_R   0.119486 0.429926 0.469208 0.549337
C41   C     C_R   0.880791 0.432079 0.462116 0.566804
C42   C     C_R   0.119499 0.567013 0.538236 0.561603
C43   C     C_R   0.940320 0.430189 0.462910 -0.023647
C44   C     C_R   0.059980 0.568931 0.537360 -0.022241
C45   C     C_R   0.970210 0.499910 0.499035 -0.016201
C46   C     C_R   0.030097 0.499240 0.501128 -0.015905
C47   C     C_R   0.940355 0.570264 0.533169 -0.019083
C48   C     C_R   0.059961 0.428928 0.466878 -0.020984
C49   C     C_R   0.970523 0.360363 0.429063 -0.164003
C50   C     C_R   0.029783 0.638742 0.571230 -0.164568
C51   C     C_R   0.029739 0.359754 0.430992 -0.162586
C52   C     C_R   0.970575 0.639415 0.569124 -0.162965
Cu1   Cu    Cu3+1 0.500010 0.500000 0.590220 1.011840
Cu2   Cu    Cu3+1 0.499990 0.500000 0.409780 1.008928
H1    H     H_    0.948534 0.305990 0.400991 0.186287
H2    H     H_    0.051771 0.693087 0.599372 0.186381
H3    H     H_    0.051713 0.304968 0.404265 0.186729
H4    H     H_    0.948605 0.694228 0.595796 0.186719
H5    H     H_    0.211787 0.535551 0.362902 0.141089
H6    H     H_    0.787807 0.478648 0.640983 0.147834
H7    H     H_    0.322459 0.464949 0.641211 0.174299
H8    H     H_    0.677792 0.521420 0.355123 0.175371
N1    N     N_R   0.852464 0.500971 0.495605 -0.448849
N2    N     N_R   0.147801 0.498303 0.504352 -0.448994
N3    N     N_1   0.499980 0.500000 0.274190 -0.158543
N4    N     N_1   0.500020 0.500000 0.725810 -0.158303
O1    O     O_R   0.500010 0.379080 0.576170 -0.562656
O2    O     O_R   0.499990 0.620920 0.423830 -0.566470
O3    O     O_R   0.500000 0.379080 0.423800 -0.569143
O4    O     O_R   0.500000 0.620920 0.576200 -0.570506
O5    O     O_R   0.417890 0.499980 0.576200 -0.590562
O6    O     O_R   0.582110 0.500020 0.423800 -0.593908
O7    O     O_R   0.417870 0.499970 0.423830 -0.541726
O8    O     O_R   0.582130 0.500030 0.576170 -0.535237
O9    O     O_2   0.851477 0.636326 0.562635 -0.541817
O10   O     O_2   0.148911 0.363274 0.436654 -0.537968
O11   O     O_2   0.851380 0.365483 0.428865 -0.541171
O12   O     O_2   0.148937 0.633340 0.572071 -0.542255
O13   O     O_3   0.417654 0.394060 0.065357 -0.575036
C53   C     C_3   0.383306 0.360358 0.994633 0.109717
H9    H     H_    0.408102 0.341738 0.933105 0.171956
H10   H     H_    0.350472 0.407014 0.974676 0.178815
C54   C     C_3   0.353435 0.282164 0.029297 -0.803894
H11   H     H_    0.326777 0.298588 0.089231 0.264358
H12   H     H_    0.325898 0.255228 0.974518 0.201292
H13   H     H_    0.385274 0.234179 0.049717 0.246610
O14   O     O_3   0.582390 0.605884 0.934563 -0.579092
C55   C     C_3   0.616766 0.639606 0.005233 0.107400
H14   H     H_    0.649530 0.592891 0.025321 0.178271
H15   H     H_    0.591969 0.658424 0.066691 0.173657
C56   C     C_3   0.646762 0.717628 0.970403 -0.810179
H16   H     H_    0.614998 0.765687 0.949885 0.247730
H17   H     H_    0.674342 0.744565 0.025125 0.202864
H18   H     H_    0.673393 0.701000 0.910500 0.260286
N5    N     N_3   0.394391 0.554580 0.935857 -0.602216
H19   H     H_    0.372133 0.579970 0.991192 0.242771
H20   H     H_    0.401352 0.603146 0.889649 0.212890
N6    N     N_3   0.605660 0.445393 0.064141 -0.603448
H21   H     H_    0.627917 0.419991 0.008812 0.241980
H22   H     H_    0.598697 0.396838 0.110362 0.212694
O15   O     O_3   0.519079 0.342070 0.927154 -0.574242
C57   C     C_3   0.529376 0.280600 0.994177 0.089560
H23   H     H_    0.503471 0.289935 0.056882 0.172303
H24   H     H_    0.575052 0.280962 0.013254 0.146313
C58   C     C_3   0.515089 0.194300 0.954198 -0.806087
H25   H     H_    0.541262 0.181588 0.892692 0.259673
H26   H     H_    0.523819 0.144902 0.005504 0.203918
H27   H     H_    0.469486 0.191678 0.934688 0.243162
O16   O     O_3   0.480978 0.657910 0.072823 -0.575177
C59   C     C_3   0.470676 0.719372 0.005793 0.089220
H28   H     H_    0.424991 0.719042 0.986771 0.146351
H29   H     H_    0.496547 0.709999 0.943057 0.172430
C60   C     C_3   0.485016 0.805669 0.045728 -0.806902
H30   H     H_    0.530632 0.808263 0.065156 0.243384
H31   H     H_    0.476266 0.855062 0.994425 0.204135
H32   H     H_    0.458887 0.818412 0.107276 0.259151
N7    N     N_3   0.324014 0.546308 0.337060 -0.534172
H33   H     H_    0.341110 0.606321 0.348229 0.222691
H34   H     H_    0.294721 0.551884 0.283477 0.218458
N8    N     N_3   0.676666 0.473281 0.667725 -0.542760
H35   H     H_    0.689926 0.520238 0.713695 0.232944
H36   H     H_    0.690452 0.415306 0.692854 0.221663
N9    N     N_3   0.210770 0.457761 0.664403 -0.568626
H37   H     H_    0.223429 0.500179 0.715697 0.229578
H38   H     H_    0.224163 0.397667 0.683598 0.219845
N10   N     N_3   0.789441 0.526184 0.331374 -0.566844
H39   H     H_    0.776138 0.584143 0.305576 0.217156
H40   H     H_    0.776695 0.479249 0.285017 0.232769
O17   O     O_3   0.519574 0.058734 0.326360 -0.582568
C61   C     C_3   0.530778 0.992842 0.263290 0.096934
H41   H     H_    0.499348 0.940782 0.267555 0.177401
H42   H     H_    0.573753 0.966382 0.274699 0.182274
C62   C     C_3   0.528575 0.027625 0.166892 -0.847932
H43   H     H_    0.560542 0.078476 0.159613 0.255394
H44   H     H_    0.537956 0.976722 0.116627 0.209975
H45   H     H_    0.485698 0.053433 0.152189 0.247736
O18   O     O_3   0.480338 0.941261 0.673628 -0.582819
C63   C     C_3   0.469138 0.007155 0.736697 0.096935
H46   H     H_    0.426162 0.033619 0.725291 0.182284
H47   H     H_    0.500568 0.059214 0.732428 0.177722
C64   C     C_3   0.471343 0.972376 0.833097 -0.848183
H48   H     H_    0.514220 0.946567 0.847796 0.247580
H49   H     H_    0.461965 0.023282 0.883360 0.210054
H50   H     H_    0.439376 0.921527 0.840381 0.255410
O19   O     O_3   0.602668 0.935900 0.442956 -0.583552
C65   C     C_3   0.642853 0.999836 0.425955 0.080129
H51   H     H_    0.658501 0.028212 0.490888 0.185304
H52   H     H_    0.625212 0.050883 0.382691 0.176215
C66   C     C_3   0.693384 0.961476 0.376562 -0.797425
H53   H     H_    0.679482 0.933347 0.310333 0.243343
H54   H     H_    0.725496 0.010975 0.363290 0.211418
H55   H     H_    0.713060 0.911747 0.419192 0.262131
O20   O     O_3   0.397247 0.064100 0.557028 -0.583248
C67   C     C_3   0.357060 0.000169 0.574035 0.079890
H56   H     H_    0.374696 0.949133 0.617319 0.175910
H57   H     H_    0.341420 0.971776 0.509105 0.184876
C68   C     C_3   0.306524 0.038544 0.623400 -0.797524
H58   H     H_    0.286856 0.088267 0.580751 0.262331
H59   H     H_    0.274408 0.989051 0.636673 0.211226
H60   H     H_    0.320418 0.066685 0.689627 0.243240
O21   O     O_3   0.416896 0.934715 0.386405 -0.584308
C69   C     C_3   0.388049 0.997880 0.337066 0.080485
H61   H     H_    0.415592 0.024368 0.283383 0.184191
H62   H     H_    0.373376 0.050354 0.381981 0.179859
C70   C     C_3   0.336348 0.959208 0.290270 -0.805968
H63   H     H_    0.307202 0.932939 0.342083 0.250535
H64   H     H_    0.313441 0.008089 0.250742 0.209896
H65   H     H_    0.349749 0.908005 0.242816 0.254561
O22   O     O_3   0.583023 0.065257 0.613591 -0.582391
C71   C     C_3   0.611860 0.002074 0.662918 0.079641
H66   H     H_    0.626527 0.949603 0.617995 0.178987
H67   H     H_    0.584313 0.975586 0.716596 0.183788
C72   C     C_3   0.663567 0.040719 0.709725 -0.803281
H68   H     H_    0.650173 0.091918 0.757190 0.255346
H69   H     H_    0.686465 0.991823 0.749242 0.208481
H70   H     H_    0.692718 0.066987 0.657918 0.251163

loop_
_geom_bond_atom_site_label_1
_geom_bond_atom_site_label_2
_ccdc_geom_bond_type
O14   C55   S    
C68   H58   S    
C18   C21   S    
O22   C71   S    
N5    H19   S    
C18   C26   S    
O21   C69   S    
C66   H53   S    
N9    H37   S    
Cu2   N3    S    
Cu1   Cu2   S    
C58   H26   S    
C29   C36   S    
O15   C57   S    
C30   C35   S    
C9    H7    S    
C32   C36   S    
C39   C47   A    
C35   C37   S    
C65   H51   S    
C2    O2    A    
C66   H54   S    
C41   O11   S    
C21   O22   S    
N9    H38   S    
C12   N10   S    
C71   H66   S    
C65   C66   S    
C29   C33   S    
C57   C58   S    
C40   C48   A    
C59   H28   S    
C59   H29   S    
C8    C24   S    
C64   H48   S    
C48   C51   A    
C38   N4    T    
C44   C46   A    
C49   C51   A    
C37   N3    T    
C62   H45   S    
C50   C52   A    
C51   H3    S    
C39   O9    S    
C19   C27   T    
C67   H57   S    
C3    C13   A    
C60   H32   S    
C45   C47   A    
C68   H59   S    
C41   C43   A    
C10   H8    S    
C42   C44   A    
C23   O7    A    
C53   C54   S    
Cu1   O4    S    
C10   C12   A    
C6    N8    S    
N8    H36   S    
O19   C65   S    
C65   H52   S    
C72   H69   S    
Cu1   O8    S    
C58   H27   S    
C46   C48   A    
C1    C19   S    
C34   O15   S    
C30   C34   S    
C2    C20   S    
C23   O5    A    
C67   C68   S    
C53   H10   S    
C66   H55   S    
C56   H16   S    
C5    C7    A    
C22   O21   S    
C43   C49   A    
C15   C26   S    
C6    C8    A    
C20   C28   T    
C72   H68   S    
C32   O14   S    
C17   O17   S    
C50   H2    S    
C1    O1    A    
C40   O10   S    
C5    N7    S    
C64   H49   S    
C18   O18   S    
C61   H42   S    
C56   H17   S    
C69   C70   S    
C43   C45   A    
Cu2   O7    S    
C54   H11   S    
C55   C56   S    
Cu2   O2    S    
C7    C9    A    
C4    H6    S    
C31   C34   S    
C16   C18   S    
C57   H24   S    
Cu1   N4    S    
C9    C11   A    
C59   C60   S    
C67   H56   S    
C52   H4    S    
C4    C6    A    
C70   H65   S    
C54   H12   S    
C12   C14   A    
C42   O12   S    
C68   H60   S    
N6    H22   S    
C62   H43   S    
C31   C35   S    
C64   H50   S    
C61   C62   S    
C33   O16   S    
C41   N1    A    
Cu1   O5    S    
C42   N2    A    
N8    H35   S    
C24   O6    A    
C15   O19   S    
C60   H30   S    
C58   H25   S    
C72   H70   S    
C44   C50   A    
C16   C25   S    
C15   C17   S    
C21   C25   S    
C16   C22   S    
C8    C10   A    
C11   N9    S    
C55   H15   S    
C53   H9    S    
C3    C5    A    
C63   C64   S    
N5    H20   S    
C31   O13   S    
C47   C52   A    
C63   H47   S    
C69   H61   S    
C39   N1    A    
O18   C63   S    
C30   N6    S    
C26   C28   S    
C17   C22   S    
C40   N2    A    
C13   N2    S    
C17   C25   S    
C32   C33   S    
N7    H34   S    
C61   H41   S    
O17   C61   S    
C29   C31   S    
C69   H62   S    
C49   H1    S    
N7    H33   S    
C56   H18   S    
C30   C32   S    
C11   C13   A    
C24   O8    A    
Cu2   O3    S    
C71   H67   S    
N10   H39   S    
C7    C23   S    
C14   N1    S    
C36   C38   S    
C33   C35   S    
C34   C36   S    
C4    C14   A    
C57   H23   S    
Cu1   O1    S    
C1    O3    A    
N10   H40   S    
C63   H46   S    
C29   N5    S    
O13   C53   S    
C45   C46   A    
C70   H63   S    
C15   C21   S    
C54   H13   S    
Cu2   O6    S    
C55   H14   S    
C70   H64   S    
N6    H21   S    
C22   C26   S    
O16   C59   S    
C16   O20   S    
C62   H44   S    
O20   C67   S    
C2    O4    A    
C71   C72   S    
C60   H31   S    
C25   C27   S    
C3    H5    S    
