data_mof_unit_55778.cif
_audit_creation_date              2013-03-05T15:55:55-0500
_audit_creation_method            fapswitch 2.2
_symmetry_space_group_name_H-M    P1
_symmetry_Int_Tables_number       1
_space_group_crystal_system       triclinic
_cell_length_a                    21.680909
_cell_length_b                    7.238279
_cell_length_c                    14.815303
_cell_angle_alpha                 90.000053
_cell_angle_beta                  106.470511
_cell_angle_gamma                 89.996645
_cell_volume                      2229.59742958

loop_
_atom_site_label
_atom_site_type_symbol
_atom_site_description
_atom_site_fract_x
_atom_site_fract_y
_atom_site_fract_z
_atom_type_partial_charge
O1    O     O_R   0.335860 0.638190 0.002110 -0.561432
O2    O     O_R   0.664140 0.361810 0.997890 -0.555431
O3    O     O_R   0.164140 0.138190 0.997890 -0.561199
O4    O     O_R   0.835860 0.861810 0.002110 -0.555443
O5    O     O_R   0.217530 0.305920 0.861960 -0.578049
O6    O     O_R   0.782470 0.694080 0.138040 -0.579488
O7    O     O_R   0.282470 0.805920 0.138040 -0.577962
O8    O     O_R   0.717530 0.194080 0.861960 -0.579472
C1    C     C_R   0.205703 0.476496 0.825839 0.975685
C2    C     C_R   0.793894 0.523473 0.174251 0.996600
C3    C     C_R   0.294298 0.976492 0.174161 0.975749
C4    C     C_R   0.706103 0.023475 0.825749 0.996634
O9    O     O_R   0.338690 0.308320 0.993240 -0.544733
O10   O     O_R   0.661310 0.691680 0.006760 -0.556192
O11   O     O_R   0.161310 0.808320 0.006760 -0.544677
O12   O     O_R   0.838690 0.191680 0.993240 -0.556179
O13   O     O_R   0.286170 0.140430 0.130100 -0.586873
O14   O     O_R   0.713830 0.859570 0.869900 -0.582754
O15   O     O_R   0.213830 0.640430 0.869900 -0.586892
O16   O     O_R   0.786170 0.359570 0.130100 -0.582752
C5    C     C_R   0.364646 0.477213 0.996755 1.030069
C6    C     C_R   0.634535 0.522318 0.999341 1.040426
C7    C     C_R   0.135349 0.977239 0.003234 1.029881
C8    C     C_R   0.865462 0.022310 0.000668 1.040609
O17   O     O_3   0.232630 0.472410 0.044750 -0.253127
O18   O     O_3   0.767370 0.527590 0.955250 -0.261437
O19   O     O_3   0.267370 0.972410 0.955250 -0.253373
O20   O     O_3   0.732630 0.027590 0.044750 -0.261464
V1    V     V_3+5 0.253220 0.196620 0.991700 1.332183
V2    V     V_3+5 0.746780 0.803380 0.008300 1.333071
V3    V     V_3+5 0.246780 0.696620 0.008300 1.332246
V4    V     V_3+5 0.753220 0.303380 0.991700 1.333109
C9    C     C_R   0.037927 0.838883 0.042174 0.412841
C10   C     C_R   0.972009 0.166914 0.005670 0.467369
C11   C     C_R   0.462063 0.338889 0.957749 0.412970
C12   C     C_R   0.527979 0.666902 0.994457 0.466278
C13   C     C_R   0.970961 0.841348 0.029802 0.288797
C14   C     C_R   0.029516 0.149718 0.980811 0.301586
C15   C     C_R   0.529031 0.341376 0.970126 0.288814
C16   C     C_R   0.470469 0.649540 0.019295 0.301886
C17   C     C_R   0.935763 0.008081 0.006250 -0.527839
C18   C     C_R   0.067256 0.988064 0.008018 -0.516538
C19   C     C_R   0.564231 0.508088 0.993773 -0.527378
C20   C     C_R   0.432739 0.487967 0.991985 -0.516097
C21   C     C_R   0.679161 0.019129 0.723322 -0.206740
C22   C     C_R   0.322155 0.982750 0.276347 -0.205400
C23   C     C_R   0.820832 0.519117 0.276676 -0.206732
C24   C     C_R   0.177845 0.482761 0.723654 -0.205300
C25   C     C_R   0.690761 0.080802 0.568530 0.599191
C26   C     C_R   0.310546 0.944842 0.432835 0.587848
C27   C     C_R   0.809225 0.580743 0.431468 0.599173
C28   C     C_R   0.189450 0.444837 0.567167 0.587830
C29   C     C_R   0.717289 0.065480 0.665634 -0.175540
C30   C     C_R   0.283815 0.950991 0.335501 -0.154822
C31   C     C_R   0.782700 0.565442 0.334363 -0.175569
C32   C     C_R   0.216183 0.450981 0.664500 -0.154805
C33   C     C_R   0.613790 0.986972 0.684377 -0.125110
C34   C     C_R   0.388157 0.006117 0.313730 -0.157454
C35   C     C_R   0.886206 0.486984 0.315620 -0.125201
C36   C     C_R   0.111842 0.506149 0.686275 -0.158089
C37   C     C_R   0.583373 0.017318 0.587468 0.062176
C38   C     C_R   0.417907 0.002414 0.412144 0.075582
C39   C     C_R   0.916618 0.517277 0.412535 0.062192
C40   C     C_R   0.082087 0.502391 0.587863 0.075689
C41   C     C_R   0.622841 0.062906 0.527818 -0.190971
C42   C     C_R   0.378029 0.973443 0.473202 -0.193243
C43   C     C_R   0.877144 0.562814 0.472186 -0.190999
C44   C     C_R   0.121965 0.473427 0.526803 -0.193222
C45   C     C_R   0.514836 0.005164 0.549208 0.043243
C46   C     C_R   0.486216 0.023265 0.450774 0.053986
C47   C     C_R   0.985156 0.505122 0.450797 0.043312
C48   C     C_R   0.013773 0.523193 0.549234 0.053900
C49   C     C_R   0.526574 0.066988 0.394049 -0.246238
C50   C     C_R   0.473865 0.984628 0.607351 -0.254962
C51   C     C_R   0.973405 0.566800 0.605964 -0.246764
C52   C     C_R   0.026129 0.484591 0.392656 -0.255006
C53   C     C_R   0.592746 0.089701 0.430644 0.394625
C54   C     C_R   0.407349 0.971707 0.571588 0.382846
C55   C     C_R   0.907233 0.589514 0.569367 0.394686
C56   C     C_R   0.092645 0.471683 0.428417 0.382815
H1    H     H_    0.414811 0.019905 0.262920 0.157032
H2    H     H_    0.588079 0.941107 0.732608 0.178566
H3    H     H_    0.085195 0.520008 0.737090 0.156793
H4    H     H_    0.911920 0.441179 0.267383 0.178603
H5    H     H_    0.232696 0.927560 0.305409 0.195486
H6    H     H_    0.768377 0.088138 0.696523 0.186211
H7    H     H_    0.267302 0.427542 0.694590 0.195487
H8    H     H_    0.731611 0.588106 0.303471 0.186184
H9    H     H_    0.508081 0.094821 0.319978 0.178584
H10   H     H_    0.491569 0.988021 0.682917 0.211497
H11   H     H_    0.991886 0.594498 0.680048 0.178771
H12   H     H_    0.008427 0.487956 0.317090 0.211483
Cl1   Cl    Cl    0.083467 0.658742 0.109924 -0.426152
Cl2   Cl    Cl    0.981834 0.293701 0.109424 -0.503974
Cl3   Cl    Cl    0.416508 0.158883 0.889918 -0.426165
Cl4   Cl    Cl    0.518104 0.793773 0.890717 -0.503751
N1    N     N_R   0.940411 0.678296 0.048929 0.291738
O21   O     O_R   0.910494 0.573400 0.978826 -0.314515
O22   O     O_R   0.928391 0.661962 0.129765 -0.376810
N2    N     N_R   0.043415 0.283400 0.918031 0.241152
O23   O     O_R   0.005640 0.295122 0.832618 -0.391988
O24   O     O_R   0.084116 0.415891 0.950143 -0.326563
N3    N     N_R   0.559589 0.178360 0.950961 0.291729
O25   O     O_R   0.589552 0.073481 0.021047 -0.314766
O26   O     O_R   0.571561 0.162038 0.870091 -0.376900
N4    N     N_R   0.456508 0.782944 0.082139 0.241352
O27   O     O_R   0.493640 0.792554 0.168035 -0.392757
O28   O     O_R   0.416258 0.916486 0.050008 -0.326640
N5    N     N_R   0.627273 0.149657 0.366776 0.264003
O29   O     O_R   0.639826 0.324563 0.362059 -0.331958
O30   O     O_R   0.631448 0.040698 0.298908 -0.311483
N6    N     N_R   0.370945 0.966166 0.638405 0.280783
O31   O     O_R   0.342137 0.115186 0.654262 -0.290714
O32   O     O_R   0.379116 0.829781 0.697842 -0.290399
N7    N     N_R   0.872695 0.649325 0.633250 0.264033
O33   O     O_R   0.860170 0.824227 0.638084 -0.332136
O34   O     O_R   0.868472 0.540179 0.701022 -0.311023
N8    N     N_R   0.129049 0.466157 0.361600 0.280775
O35   O     O_R   0.157832 0.615199 0.345722 -0.290730
O36   O     O_R   0.120897 0.329752 0.302179 -0.290411
Cl5   Cl    Cl    0.747168 0.119135 0.504804 -0.488391
Cl6   Cl    Cl    0.255856 0.887540 0.496929 -0.495344
Cl7   Cl    Cl    0.752814 0.619135 0.495184 -0.488308
Cl8   Cl    Cl    0.244142 0.387553 0.503069 -0.495335

loop_
_geom_bond_atom_site_label_1
_geom_bond_atom_site_label_2
_geom_bond_distance
_ccdc_geom_bond_type
C34   C38   1.417512 A    
O1    C5    1.334722 A    
C55   N7    1.430303 S    
O19   V1    1.764484 S    
O13   V1    2.012318 S    
O3    C7    1.334639 A    
C26   Cl6   1.765843 S    
O15   V3    2.012335 S    
C13   N1    1.420725 S    
N1    O21   1.301506 A    
O7    C3    1.341163 A    
C21   C33   1.390032 A    
C26   C30   1.394065 A    
C7    C18   1.500010 S    
C25   C41   1.430172 A    
C56   N8    1.430918 S    
C9    C18   1.417376 A    
C40   C44   1.432938 A    
O9    V1    2.016007 S    
C14   C18   1.419142 A    
N5    O30   1.301080 A    
C47   C52   1.409645 A    
O4    C8    1.330371 A    
C36   H3    1.075756 S    
N4    O27   1.300570 A    
N7    O33   1.300992 A    
O1    V3    2.004415 S    
C27   Cl7   1.765987 S    
C38   C46   1.436359 A    
O2    V4    2.004412 S    
C31   H8    1.084328 S    
O3    V1    2.004460 S    
N8    O35   1.300736 A    
C1    O15   1.341635 A    
C33   C37   1.416895 A    
C2    O16   1.342121 A    
N7    O34   1.301075 A    
O2    C6    1.330401 A    
C29   H6    1.084329 S    
O14   V2    2.012319 S    
C28   C44   1.430052 A    
C51   H11   1.075194 S    
O11   C7    1.340792 A    
C23   C31   1.388163 A    
C21   C29   1.388171 A    
O12   C8    1.347468 A    
C22   C34   1.390568 A    
C8    C17   1.506349 S    
C10   C17   1.394028 A    
O10   V2    2.016003 S    
C48   C51   1.410351 A    
N6    O32   1.301105 A    
N6    O31   1.300732 A    
N1    O22   1.301212 A    
C24   C36   1.390571 A    
O5    V1    2.018866 S    
C42   C54   1.415452 A    
C39   C43   1.432124 A    
C41   C53   1.415371 A    
C38   C42   1.432925 A    
O8    V4    2.018900 S    
C52   C56   1.391366 A    
C12   C16   1.402182 A    
O7    V3    2.018900 S    
C35   H4    1.075817 S    
C14   N2    1.432198 S    
C34   H1    1.075761 S    
O18   V4    1.764518 S    
C32   H7    1.084301 S    
C15   C19   1.417676 A    
O11   V3    2.015916 S    
C9    C13   1.411018 A    
C11   C15   1.411054 A    
O5    C1    1.341158 A    
C5    C20   1.499919 S    
C12   Cl4   1.750636 S    
C6    C19   1.506485 S    
O8    C4    1.341190 A    
C25   Cl5   1.765990 S    
C22   C30   1.387420 A    
C46   C49   1.410338 A    
N2    O24   1.298754 A    
O9    C5    1.340650 A    
C45   C50   1.409639 A    
N3    O26   1.301206 A    
C27   C43   1.430183 A    
C53   N5    1.430302 S    
C11   C20   1.417270 A    
C26   C42   1.430053 A    
C52   H12   1.075911 S    
O6    V2    2.018866 S    
C39   C47   1.435087 A    
C44   C56   1.415439 A    
C2    C23   1.463642 S    
C16   N4    1.432018 S    
O16   V4    2.012334 S    
C37   C45   1.435077 A    
C24   C32   1.387413 A    
C3    O13   1.341644 A    
C10   C14   1.402145 A    
O17   V3    1.764518 S    
C10   Cl2   1.750649 S    
C4    C21   1.463660 S    
C12   C19   1.394172 A    
C9    Cl1   1.766468 S    
O6    C2    1.341178 A    
C30   H5    1.084301 S    
C15   N3    1.420715 S    
C11   Cl3   1.766451 S    
O12   V4    2.015920 S    
C35   C39   1.416892 A    
C36   C40   1.417522 A    
C50   H10   1.075922 S    
O20   V2    1.764484 S    
C49   H9    1.075218 S    
C47   C48   1.419795 A    
N5    O29   1.300992 A    
C28   Cl8   1.765845 S    
O10   C6    1.347501 A    
N4    O28   1.298764 A    
C25   C29   1.394121 A    
N2    O23   1.300609 A    
C27   C31   1.394120 A    
C40   C48   1.436384 A    
C13   C17   1.417578 A    
C45   C46   1.419782 A    
N8    O36   1.301104 A    
C23   C35   1.390013 A    
C37   C41   1.432123 A    
C16   C20   1.418811 A    
C1    C24   1.462964 S    
C50   C54   1.391383 A    
C4    O14   1.342125 A    
N3    O25   1.301512 A    
C49   C53   1.392189 A    
C33   H2    1.075835 S    
C3    C22   1.462975 S    
C54   N6    1.430916 S    
C51   C55   1.392185 A    
C43   C55   1.415363 A    
O4    V2    2.004462 S    
C28   C32   1.394055 A    
