data_mof_unit_7365.cif
_audit_creation_date              2013-03-05T16:21:22-0500
_audit_creation_method            fapswitch 2.2
_symmetry_space_group_name_H-M    P1
_symmetry_Int_Tables_number       1
_space_group_crystal_system       triclinic
_cell_length_a                    8.711388
_cell_length_b                    15.239038
_cell_length_c                    13.985572
_cell_angle_alpha                 89.576633
_cell_angle_beta                  97.946835
_cell_angle_gamma                 92.67518
_cell_volume                      1836.7946724

loop_
_atom_site_label
_atom_site_type_symbol
_atom_site_description
_atom_site_fract_x
_atom_site_fract_y
_atom_site_fract_z
_atom_type_partial_charge
O1    O     O_R   0.500010 0.371450 0.581430 -0.605852
O2    O     O_R   0.499990 0.628550 0.418570 -0.606322
O3    O     O_R   0.500010 0.371460 0.418560 -0.508097
O4    O     O_R   0.499990 0.628540 0.581440 -0.513861
C1    C     C_R   0.505606 0.329879 0.500700 0.806076
C2    C     C_R   0.494817 0.669816 0.499139 0.847747
O5    O     O_R   0.274840 0.499990 0.562640 -0.582893
O6    O     O_R   0.725160 0.500010 0.437360 -0.600646
O7    O     O_R   0.274840 0.500000 0.399770 -0.540843
O8    O     O_R   0.725160 0.500000 0.600230 -0.547773
C3    C     C_R   0.203971 0.497105 0.475412 0.920932
C4    C     C_R   0.796050 0.499387 0.524848 0.879161
Cu1   Cu    Cu3+1 0.500000 0.499990 0.596430 1.058889
Cu2   Cu    Cu3+1 0.500000 0.500010 0.403570 1.059652
C5    C     C_2   0.037899 0.490081 0.462892 -0.294349
C6    C     C_2   0.962332 0.500344 0.538569 -0.295465
H1    H     H_    0.977622 0.475701 0.391203 0.213961
H2    H     H_    0.022881 0.511852 0.611037 0.214105
C7    C     C_R   0.532332 0.094326 0.591818 -0.174133
C8    C     C_R   0.556084 0.908833 0.433775 -0.174578
H3    H     H_    0.559900 0.059273 0.659360 0.163683
H4    H     H_    0.611053 0.947210 0.381164 0.158528
C9    C     C_R   0.543191 0.185964 0.590833 -0.063433
C10   C     C_R   0.549303 0.818020 0.427135 -0.075995
C11   C     C_R   0.511965 0.232546 0.502019 -0.194120
C12   C     C_R   0.484715 0.766395 0.497715 -0.179398
C13   C     C_R   0.480604 0.183473 0.414719 0.342133
C14   C     C_R   0.414432 0.809327 0.569433 0.361969
C15   C     C_R   0.464085 0.092393 0.418646 -0.202941
C16   C     C_R   0.421382 0.901249 0.573546 -0.193765
H5    H     H_    0.434979 0.056161 0.351725 0.178626
H6    H     H_    0.365543 0.934081 0.626970 0.178630
C17   C     C_R   0.492059 0.047387 0.506138 0.049705
C18   C     C_R   0.491653 0.951003 0.505861 0.051081
C19   C     C_R   0.630777 0.522980 0.117164 -0.241640
C20   C     C_R   0.423472 0.433550 0.885837 -0.254638
H7    H     H_    0.738164 0.539863 0.089033 0.174027
H8    H     H_    0.366109 0.378541 0.918033 0.168926
C21   C     C_R   0.627568 0.529572 0.217120 0.108379
C22   C     C_R   0.416424 0.436796 0.784847 0.108735
N1    N     N_R   0.500000 0.500020 0.258690 -0.251841
N2    N     N_R   0.500000 0.499980 0.741310 -0.257408
C23   C     C_R   0.368673 0.471290 0.197186 0.505342
C24   C     C_R   0.583165 0.564677 0.797108 0.505401
C25   C     C_R   0.362249 0.476504 0.095087 -0.191586
C26   C     C_R   0.576867 0.569372 0.897786 -0.192815
C27   C     C_R   0.496927 0.499660 0.053333 0.033981
C28   C     C_R   0.499741 0.501225 0.944634 0.041180
C29   C     C_1   0.597166 0.228915 0.681910 0.317907
N3    N     N_1   0.641120 0.262869 0.754982 -0.246690
C30   C     C_1   0.603210 0.782336 0.343258 0.327604
N4    N     N_1   0.644625 0.756222 0.274221 -0.252100
N5    N     N_R   0.474871 0.223186 0.320976 0.156191
O9    O     O_R   0.598866 0.264279 0.297805 -0.318034
O10   O     O_R   0.367349 0.196522 0.251957 -0.299301
N6    N     N_R   0.325696 0.761345 0.633665 0.149123
O11   O     O_R   0.224363 0.699873 0.599902 -0.350888
O12   O     O_R   0.324782 0.789436 0.721228 -0.297910
C31   C     C_1   0.758530 0.576177 0.270715 0.377104
N7    N     N_1   0.864441 0.615370 0.311427 -0.248853
C32   C     C_1   0.315242 0.373497 0.728400 0.342278
N8    N     N_1   0.232931 0.322565 0.683601 -0.278971
N9    N     N_R   0.234459 0.435075 0.234457 0.130450
O13   O     O_R   0.102674 0.472943 0.216059 -0.387703
O14   O     O_R   0.238227 0.358546 0.276010 -0.288320
N10   N     N_R   0.680609 0.627482 0.754422 0.133127
O15   O     O_R   0.643769 0.709293 0.748759 -0.319172
O16   O     O_R   0.823805 0.609192 0.750137 -0.332204
C33   C     C_1   0.214734 0.460138 0.034649 0.354777
N11   N     N_1   0.096710 0.447257 0.986533 -0.217109
C34   C     C_1   0.645380 0.646263 0.950392 0.358599
N12   N     N_1   0.700002 0.707862 0.992263 -0.196358

loop_
_geom_bond_atom_site_label_1
_geom_bond_atom_site_label_2
_geom_bond_distance
_ccdc_geom_bond_type
C7    C9    1.395352 A    
O7    Cu2   1.954811 S    
C13   N5    1.435477 S    
C30   N4    1.155923 T    
N6    O12   1.301444 A    
C11   C13   1.423643 A    
C23   C25   1.423035 A    
N5    O10   1.301711 A    
C12   C14   1.423323 A    
C27   C28   1.523791 S    
O5    Cu1   1.953032 S    
C21   C31   1.436520 S    
O6    C4    1.292293 A    
C8    C18   1.394319 A    
N9    O14   1.298908 A    
C32   N8    1.157650 T    
C10   C30   1.441494 S    
C20   H8    1.082924 S    
C17   C18   1.468679 S    
C14   N6    1.438305 S    
C23   N9    1.430848 S    
C31   N7    1.157802 T    
C15   H5    1.083542 S    
C6    H2    1.087369 S    
O2    C2    1.301661 A    
N5    O9    1.301757 A    
O5    C3    1.288922 A    
N1    C23   1.388203 A    
C26   C34   1.447947 S    
C2    C12   1.478317 S    
O3    Cu2   1.968626 S    
N2    C24   1.376316 A    
Cu2   N1    2.026230 S    
O1    C1    1.306576 A    
C19   C21   1.406499 A    
O8    C4    1.293692 A    
C3    C5    1.432088 S    
C14   C16   1.400545 A    
Cu1   N2    2.026229 S    
C7    H3    1.084946 S    
C8    H4    1.085198 S    
C20   C28   1.406670 A    
C26   C28   1.416223 A    
O7    C3    1.295993 A    
C33   N11   1.157698 T    
O2    Cu2   1.971573 S    
C1    C11   1.486768 S    
C9    C29   1.445678 S    
O1    Cu1   1.971572 S    
N10   O16   1.300285 A    
C16   C18   1.397132 A    
C25   C33   1.449444 S    
C5    C6    1.335180 D    
C16   H6    1.083480 S    
C15   C17   1.395625 A    
C20   C22   1.405823 A    
C9    C11   1.425589 A    
N10   O15   1.300935 A    
N6    O11   1.301480 A    
C21   N1    1.379796 A    
O4    C2    1.303902 A    
C29   N3    1.157520 T    
C7    C17   1.394144 A    
C25   C27   1.410586 A    
C19   H7    1.083486 S    
C13   C15   1.390181 A    
C5    H1    1.084383 S    
C8    C10   1.385659 A    
O6    Cu2   1.953030 S    
C4    C6    1.434056 S    
C34   N12   1.157523 T    
C19   C27   1.400362 A    
Cu1   Cu2   2.697255 S    
C24   N10   1.431380 S    
C24   C26   1.419132 A    
C22   C32   1.438783 S    
N9    O13   1.301989 A    
O4    Cu1   1.968628 S    
C10   C12   1.417967 A    
C22   N2    1.369822 A    
O3    C1    1.303917 A    
O8    Cu1   1.954809 S    
