data_mof_unit_19450.cif
_audit_creation_date              2012-12-10T17:17:28-0500
_audit_creation_method            fapswitch 2.2
_symmetry_space_group_name_H-M    P1
_symmetry_Int_Tables_number       1
_space_group_crystal_system       triclinic
_cell_length_a                    10.315858
_cell_length_b                    10.889006
_cell_length_c                    13.25908
_cell_angle_alpha                 93.265054
_cell_angle_beta                  112.165741
_cell_angle_gamma                 94.915481
_cell_volume                      1367.79230584

loop_
_atom_site_label
_atom_site_type_symbol
_atom_type_description
_atom_site_fract_x
_atom_site_fract_y
_atom_site_fract_z
_atom_type_partial_charge
C1    C     C_R   0.051073 0.730963 0.494205 0.914218
C2    C     C_R   0.437122 0.575886 0.989150 0.078686
C3    C     C_R   0.366089 0.579427 0.876016 -0.025541
C4    C     C_R   0.573292 0.536926 0.027490 -0.007130
C5    C     C_R   0.636252 0.514461 0.951183 0.002983
C6    C     C_R   0.571393 0.544753 0.842894 0.144643
C7    C     C_R   0.447197 0.599564 0.813409 0.181002
C8    C     C_R   0.638348 0.498593 0.132940 0.143752
C9    C     C_R   0.842279 0.452933 0.092755 0.139839
C10   C     C_R   0.218638 0.551986 0.830297 -0.154673
C11   C     C_2   0.072669 0.859672 0.481105 -0.348525
C12   C     C_R   0.138798 0.520628 0.711180 0.866607
C13   C     C_2   0.992736 0.935803 0.506019 -0.187696
C14   C     C_2   0.926054 0.138600 0.515817 -0.463255
C15   C     C_2   0.981089 0.057555 0.468380 0.281722
C16   C     C_2   0.434736 0.510315 0.508669 -0.131753
C17   C     C_2   0.567860 0.481415 0.495265 0.251583
C18   C     C_R   0.948517 0.268707 0.505214 0.940111
C19   C     C_R   0.861902 0.484365 0.288764 0.869703
C20   C     C_R   0.760199 0.458849 0.983329 -0.278507
C21   C     C_R   0.781557 0.478023 0.170344 -0.125428
C22   C     C_R   0.146739 0.550398 0.902293 0.240822
C23   C     C_R   0.219001 0.593895 0.012589 -0.251177
C24   C     C_R   0.365146 0.606769 0.056506 -0.173848
H1    H     H_    0.928887 0.905953 0.551402 0.160537
H2    H     H_    0.884101 0.111885 0.576356 0.126413
H3    H     H_    0.143714 0.887997 0.441883 0.175256
H4    H     H_    0.440667 0.584691 0.567553 0.148139
H5    H     H_    0.683391 0.630035 0.593271 0.135188
H6    H     H_    0.306858 0.384737 0.391069 0.193478
H7    H     H_    0.793849 0.419898 0.923138 0.179688
H8    H     H_    0.419431 0.635487 0.142575 0.142435
H9    H     H_    0.163147 0.607676 0.066120 0.133062
N1    N     N_2   0.313640 0.446500 0.454900 -0.217193
N2    N     N_2   0.686360 0.553430 0.545150 -0.233771
O1    O     O_R   0.936910 0.692950 0.509080 -0.608671
O2    O     O_R   0.138320 0.658600 0.480130 -0.629566
O3    O     O_R   0.002900 0.525670 0.675280 -0.574154
O4    O     O_R   0.204310 0.491320 0.646330 -0.623442
O5    O     O_R   0.861680 0.341400 0.519870 -0.627256
O6    O     O_R   0.063090 0.307050 0.490920 -0.585280
O7    O     O_R   0.795690 0.508680 0.353670 -0.637814
O8    O     O_R   0.997100 0.474330 0.324720 -0.614750
Zn1   Zn    Zn3+2 0.865520 0.522940 0.519330 0.922696
Zn2   Zn    Zn3+2 0.134480 0.477060 0.480670 0.914744
C25   C     C_3   0.988299 0.412910 0.119542 -0.395868
C26   C     C_3   0.991408 0.278335 0.143813 -0.849846
H10   H     H_    0.955483 0.264863 0.211176 0.265122
H11   H     H_    0.920552 0.217054 0.070305 0.251400
H12   H     H_    0.100335 0.253160 0.167401 0.241439
H13   H     H_    0.021139 0.420840 0.050381 0.204754
H14   H     H_    0.071709 0.475484 0.184760 0.226628
N3    N     N_2   0.561415 0.374880 0.424535 -0.298153
H15   H     H_    0.636334 0.377093 0.391605 0.296665
C27   C     C_3   0.536055 0.254140 0.458769 -0.850690
H16   H     H_    0.634241 0.228670 0.521193 0.257886
H17   H     H_    0.501367 0.183699 0.387140 0.236563
H18   H     H_    0.452808 0.250950 0.492605 0.245762
N4    N     N_2   0.616126 0.503068 0.759505 -0.329312
H19   H     H_    0.720760 0.528795 0.775540 0.231641
C28   C     C_3   0.569974 0.372973 0.722415 -0.791885
H20   H     H_    0.623439 0.341454 0.669457 0.245100
H21   H     H_    0.454091 0.358650 0.676329 0.272949
H22   H     H_    0.596518 0.314252 0.791565 0.232888
N5    N     N_2   0.555529 0.452558 0.190779 -0.302729
H23   H     H_    0.541743 0.510151 0.249380 0.233281
C29   C     C_3   0.456525 0.342313 0.142990 -0.764982
H24   H     H_    0.347407 0.364639 0.124638 0.243251
H25   H     H_    0.479570 0.271148 0.201974 0.237409
H26   H     H_    0.463793 0.302784 0.066353 0.246610
N6    N     N_2   0.003083 0.502769 0.864886 -0.298250
H27   H     H_    0.947689 0.543450 0.904902 0.198370
C30   C     C_3   0.969368 0.370589 0.828666 -0.756436
H28   H     H_    0.956653 0.315815 0.892646 0.214422
H29   H     H_    0.052809 0.332567 0.806619 0.228692
H30   H     H_    0.870014 0.355214 0.755251 0.257515
C31   C     C_3   0.427998 0.707759 0.743618 -0.412781
C32   C     C_3   0.430658 0.828950 0.808870 -0.907910
H31   H     H_    0.338876 0.825400 0.833549 0.265275
H32   H     H_    0.529637 0.846512 0.883101 0.265520
H33   H     H_    0.425155 0.906930 0.757477 0.253503
H34   H     H_    0.515433 0.721332 0.714337 0.196763
H35   H     H_    0.328049 0.692962 0.671469 0.235951
N7    N     N_2   0.006853 0.081326 0.372296 -0.277632
H36   H     H_    0.934595 0.129739 0.318067 0.207986
C33   C     C_3   0.151898 0.110402 0.383945 -0.747123
H37   H     H_    0.167326 0.204491 0.360283 0.240623
H38   H     H_    0.175749 0.044170 0.328342 0.222740
H39   H     H_    0.227121 0.106250 0.469439 0.239013

loop_
_geom_bond_atom_site_label_1
_geom_bond_atom_site_label_2
_ccdc_geom_bond_type
C16   H4    S    
N4    H19   S    
C27   H16   S    
C30   H28   S    
C14   C18   S    
C1    C11   S    
C4    C8    A    
C26   H11   S    
C5    C20   A    
C31   C32   S    
C10   C22   A    
C19   C21   S    
N7    C33   S    
C3    C7    A    
C5    C6    A    
C33   H38   S    
C31   H35   S    
C25   H14   S    
C28   H21   S    
C18   O5    A    
C16   N1    D    
C16   C17   S    
C23   H9    S    
C23   C24   A    
C19   O7    A    
C1    O2    A    
O4    Zn2   S    
C9    C25   S    
C30   H29   S    
C13   H1    S    
O7    Zn1   S    
C19   O8    A    
C26   H12   S    
N3    C27   S    
N4    C28   S    
H6    N1    S    
C29   H24   S    
N7    H36   S    
C18   O6    A    
N6    C30   S    
C32   H31   S    
N5    C29   S    
N3    H15   S    
C25   H13   S    
C29   H25   S    
C28   H22   S    
C2    C4    A    
C24   H8    S    
O3    Zn1   S    
C9    C20   A    
C8    N5    S    
C26   H10   S    
C14   C15   D    
C11   H3    S    
C8    C21   A    
N1    Zn2   S    
C14   H2    S    
N2    Zn1   S    
O8    Zn2   S    
C6    C7    A    
C10   C12   S    
C27   H17   S    
C2    C24   A    
C30   H30   S    
O1    Zn1   S    
O2    Zn2   S    
C17   N3    S    
C22   N6    S    
C25   C26   S    
C33   H37   S    
C6    N4    S    
C4    C5    A    
C33   H39   S    
C15   N7    S    
H5    N2    S    
C7    C31   S    
C29   H26   S    
C12   O4    A    
C13   C15   S    
C2    C3    A    
N6    H27   S    
C3    C10   A    
C11   C13   D    
C32   H33   S    
C9    C21   A    
C31   H34   S    
C32   H32   S    
C12   O3    A    
C28   H20   S    
O5    Zn1   S    
N5    H23   S    
C27   H18   S    
O6    Zn2   S    
C22   C23   A    
C17   N2    D    
C1    O1    A    
C20   H7    S    
