data_mof_unit_63299.cif
_audit_creation_date              2012-10-26T17:56:08-0400
_audit_creation_method            fapswitch 2.2
_symmetry_space_group_name_H-M    P1
_symmetry_Int_Tables_number       1
_space_group_crystal_system       triclinic
_cell_length_a                    21.668238
_cell_length_b                    21.672818
_cell_length_c                    30.514571
_cell_angle_alpha                 89.922301
_cell_angle_beta                  89.900964
_cell_angle_gamma                 89.998895
_cell_volume                      14329.9673735

loop_
_atom_site_label
_atom_site_type_symbol
_atom_type_description
_atom_site_fract_x
_atom_site_fract_y
_atom_site_fract_z
_atom_type_partial_charge
C1    C     C_R   0.118887 0.499997 0.500052 0.526184
C2    C     C_R   0.381003 0.499998 0.500031 0.547649
C3    C     C_R   0.949455 0.520473 0.842458 0.095980
C4    C     C_R   0.520657 0.949335 0.157563 0.095867
C5    C     C_R   0.053356 0.521747 0.156935 0.101564
C6    C     C_R   0.469672 0.049972 0.156263 0.101267
C7    C     C_R   0.946228 0.486255 0.157874 0.097852
C8    C     C_R   0.001008 0.500040 0.366909 0.065409
C9    C     C_R   0.500508 0.003907 0.366548 0.059812
C10   C     C_R   0.003861 0.500309 0.633438 0.059735
C11   C     C_R   0.499666 0.001313 0.633476 0.059863
C12   C     C_R   0.498692 0.000310 0.866527 0.059874
C13   C     C_R   0.500009 0.618958 0.499976 0.548427
C14   C     C_R   0.999725 0.496155 0.866551 0.059816
C15   C     C_R   0.496131 0.999523 0.133449 0.059865
C16   C     C_R   0.999622 0.503460 0.133771 0.056786
C17   C     C_R   0.002330 0.500132 0.274709 -0.014218
C18   C     C_R   0.498015 0.003420 0.274182 -0.014610
C19   C     C_R   0.003588 0.497813 0.725807 -0.014608
C20   C     C_R   0.502293 0.997582 0.725806 -0.014539
C21   C     C_R   0.502394 0.997680 0.774196 -0.014539
C22   C     C_R   0.002240 0.496462 0.774178 -0.014619
C23   C     C_R   0.496647 0.002047 0.225814 -0.014577
C24   C     C_R   0.618978 0.499984 0.499962 0.548026
C25   C     C_R   0.001718 0.500973 0.226304 -0.014088
C26   C     C_3   0.130528 0.568337 0.380586 -0.283017
C27   C     C_3   0.655557 0.993265 0.366357 -0.284371
C28   C     C_3   0.871354 0.431486 0.379103 -0.284555
C29   C     C_3   0.414476 0.122044 0.380510 -0.282316
C30   C     C_3   0.122137 0.414429 0.619317 -0.282687
C31   C     C_3   0.585885 0.119694 0.621416 -0.283549
C32   C     C_3   0.992768 0.655393 0.633470 -0.284268
C33   C     C_3   0.344741 0.989927 0.633705 -0.285807
C34   C     C_3   0.510228 0.155206 0.866313 -0.285901
C35   C     C_R   0.999997 0.881027 0.000030 0.547606
C36   C     C_3   0.086058 0.378188 0.880575 -0.283208
C37   C     C_3   0.380227 0.914194 0.878615 -0.283631
C38   C     C_3   0.844582 0.506689 0.866558 -0.284703
C39   C     C_3   0.507036 0.844510 0.133638 -0.285253
C40   C     C_3   0.102357 0.608863 0.122296 -0.283149
C41   C     C_3   0.377863 0.085382 0.119534 -0.282371
C42   C     C_3   0.846076 0.518471 0.132908 -0.285590
C43   C     C_R   0.881043 0.999987 0.000031 0.548184
C44   C     C_R   0.000007 0.118978 0.999968 0.547652
C45   C     C_R   0.119001 0.999988 0.999969 0.547063
C46   C     C_R   0.314031 0.499957 0.500089 0.025556
C47   C     C_R   0.500045 0.685854 0.499933 0.026360
C48   C     C_R   0.685914 0.499893 0.499866 0.026035
C49   C     C_R   0.500001 0.881070 0.499990 0.551485
C50   C     C_R   0.500043 0.314017 0.500065 0.025659
C51   C     C_R   0.814146 0.999940 0.000086 0.026205
C52   C     C_R   0.000083 0.185913 0.999881 0.026021
C53   C     C_R   0.185982 0.999944 0.999917 0.025730
C54   C     C_R   0.000052 0.814104 0.000107 0.026276
C55   C     C_R   0.281821 0.536882 0.530021 -0.135951
C56   C     C_R   0.539500 0.717889 0.528177 -0.134160
C57   C     C_R   0.717962 0.461674 0.529028 -0.135289
C58   C     C_R   0.463388 0.281814 0.530246 -0.136266
C59   C     C_R   0.281959 0.463026 0.470166 -0.136238
C60   C     C_R   0.881095 0.499989 0.499964 0.540067
C61   C     C_R   0.536688 0.281923 0.469879 -0.136032
C62   C     C_R   0.718098 0.538014 0.470623 -0.135245
C63   C     C_R   0.460582 0.718000 0.471696 -0.134923
C64   C     C_R   0.781986 0.039387 0.028340 -0.134602
C65   C     C_R   0.038343 0.217978 0.028934 -0.135304
C66   C     C_R   0.218059 0.963303 0.030093 -0.136047
C67   C     C_R   0.961400 0.781949 0.029012 -0.135111
C68   C     C_R   0.782127 0.960502 0.971822 -0.134473
C69   C     C_R   0.038777 0.782042 0.971273 -0.135572
C70   C     C_R   0.218200 0.036597 0.969747 -0.136446
C71   C     C_R   0.500000 0.118886 0.500024 0.525917
C72   C     C_R   0.961932 0.218080 0.970736 -0.135155
C73   C     C_R   0.000256 0.500027 0.415080 0.572352
C74   C     C_R   0.500143 0.001038 0.414939 0.576258
C75   C     C_R   0.001011 0.500066 0.585055 0.576286
C76   C     C_R   0.499878 0.000386 0.585064 0.576188
C77   C     C_R   0.499618 0.000113 0.914939 0.576279
C78   C     C_R   0.999944 0.498988 0.914939 0.576612
C79   C     C_R   0.498973 0.999867 0.085058 0.576371
C80   C     C_R   0.999874 0.501164 0.085167 0.571464
C81   C     C_R   0.185707 0.499979 0.500078 0.021730
C82   C     C_R   0.618924 0.999999 0.000013 0.551597
C83   C     C_R   0.500010 0.814173 0.499968 0.029961
C84   C     C_R   0.814238 0.499914 0.499868 0.025819
C85   C     C_R   0.500007 0.185697 0.500040 0.023306
C86   C     C_R   0.685822 0.999986 0.000040 0.029902
C87   C     C_R   0.000090 0.314232 0.999854 0.025888
C88   C     C_R   0.314308 0.999990 0.999951 0.023379
C89   C     C_R   0.000061 0.685784 0.000139 0.026824
C90   C     C_R   0.217674 0.537655 0.529523 -0.141873
C91   C     C_R   0.540231 0.782023 0.527658 -0.132311
C92   C     C_R   0.782101 0.460918 0.528508 -0.132320
C93   C     C_R   0.000012 0.381090 0.999945 0.537949
C94   C     C_R   0.462608 0.217675 0.529748 -0.141689
C95   C     C_R   0.217820 0.462267 0.470660 -0.142931
C96   C     C_R   0.537431 0.217787 0.470351 -0.141910
C97   C     C_R   0.782246 0.538777 0.471134 -0.142432
C98   C     C_R   0.459815 0.782136 0.472252 -0.132801
C99   C     C_R   0.717842 0.040158 0.027780 -0.132645
C100  C     C_R   0.039112 0.282109 0.028397 -0.132471
C101  C     C_R   0.282202 0.962567 0.029626 -0.142061
C102  C     C_R   0.960656 0.717806 0.028511 -0.140268
C103  C     C_R   0.717985 0.959777 0.972336 -0.132618
C104  C     C_R   0.381119 0.999999 0.999973 0.526050
C105  C     C_R   0.039541 0.717910 0.971816 -0.132852
C106  C     C_R   0.282347 0.037380 0.970249 -0.141796
C107  C     C_R   0.961187 0.282222 0.971231 -0.141964
C108  C     C_R   0.033908 0.545929 0.298041 -0.122034
C109  C     C_R   0.548953 0.979618 0.296697 -0.124165
C110  C     C_R   0.970397 0.454090 0.297726 -0.122235
C111  C     C_R   0.448729 0.028500 0.297954 -0.121220
C112  C     C_R   0.028712 0.448578 0.702065 -0.121220
C113  C     C_R   0.551710 0.023117 0.702357 -0.121436
C114  C     C_R   0.979639 0.548693 0.703259 -0.124195
C115  C     C_R   0.000008 0.618915 0.000072 0.539135
C116  C     C_R   0.451542 0.974092 0.702970 -0.123885
C117  C     C_R   0.525935 0.048402 0.797036 -0.123884
C118  C     C_R   0.051568 0.471511 0.797902 -0.121246
C119  C     C_R   0.476820 0.948294 0.797642 -0.121457
C120  C     C_R   0.951265 0.520226 0.796744 -0.124212
C121  C     C_R   0.520523 0.951148 0.203283 -0.124164
C122  C     C_R   0.054212 0.518796 0.202705 -0.121066
C123  C     C_R   0.471490 0.051283 0.202058 -0.121135
C124  C     C_R   0.947964 0.485280 0.203611 -0.123640
C125  C     C_R   0.034873 0.545461 0.343825 0.100479
C126  C     C_R   0.500009 0.380997 0.500024 0.547520
C127  C     C_R   0.550751 0.979471 0.342417 0.095669
C128  C     C_R   0.968071 0.454480 0.343476 0.100670
C129  C     C_R   0.450023 0.030305 0.343749 0.101236
C130  C     C_R   0.030387 0.449868 0.656254 0.101102
C131  C     C_R   0.550332 0.026599 0.656630 0.101493
C132  C     C_R   0.979374 0.550490 0.657544 0.095760
C133  C     C_R   0.449673 0.975584 0.657248 0.095896
C134  C     C_R   0.524459 0.050271 0.842758 0.095902
C135  C     C_R   0.050275 0.469818 0.843713 0.101120
C136  C     C_R   0.473356 0.949673 0.843372 0.101477
Cu1   Cu    Cu3+1 0.000000 0.438210 0.500000 0.946909
Cu2   Cu    Cu3+1 0.500000 0.500000 0.455940 0.915343
Cu3   Cu    Cu3+1 0.000000 1.000000 0.044060 0.919056
Cu4   Cu    Cu3+1 0.000000 0.000000 0.955940 0.917645
Cu5   Cu    Cu3+1 0.438210 1.000000 0.500000 0.937113
Cu6   Cu    Cu3+1 0.000000 0.561790 0.500000 0.936627
Cu7   Cu    Cu3+1 0.561790 1.000000 0.500000 0.938425
Cu8   Cu    Cu3+1 0.500000 0.938210 0.000000 0.936963
Cu9   Cu    Cu3+1 0.938210 0.500000 0.000000 0.928645
Cu10  Cu    Cu3+1 0.500000 0.061790 0.000000 0.936865
Cu11  Cu    Cu3+1 0.061790 0.500000 0.000000 0.945434
Cu12  Cu    Cu3+1 0.500000 0.500000 0.544060 0.917609
H1    H     H_    0.058278 0.582203 0.280761 0.104207
H2    H     H_    0.091373 0.453014 0.780895 0.103640
H3    H     H_    0.462606 0.857224 0.117884 0.166078
H4    H     H_    0.147591 0.534551 0.150203 0.240300
H5    H     H_    0.100141 0.638359 0.152031 0.121901
H6    H     H_    0.060833 0.617281 0.101824 0.158581
H7    H     H_    0.143738 0.621930 0.102886 0.143093
H8    H     H_    0.442883 0.141179 0.149296 0.240914
H9    H     H_    0.347467 0.078497 0.148511 0.122949
H10   H     H_    0.376935 0.043228 0.098880 0.155706
H11   H     H_    0.359696 0.124411 0.099793 0.146711
H12   H     H_    0.870947 0.429503 0.149548 0.241361
H13   H     H_    0.458588 0.908634 0.780415 0.104482
H14   H     H_    0.829313 0.532305 0.165914 0.119999
H15   H     H_    0.806108 0.502697 0.113154 0.137261
H16   H     H_    0.867012 0.559099 0.116320 0.163772
H17   H     H_    0.912058 0.538338 0.778891 0.108563
H18   H     H_    0.538798 0.912009 0.221165 0.108173
H19   H     H_    0.096186 0.531112 0.219817 0.104243
H20   H     H_    0.452918 0.091038 0.219028 0.104008
H21   H     H_    0.906374 0.473141 0.221390 0.107740
H22   H     H_    0.192982 0.566717 0.552493 0.111572
H23   H     H_    0.571279 0.806548 0.549307 0.122275
H24   H     H_    0.806648 0.430854 0.550893 0.121260
H25   H     H_    0.588132 0.961409 0.278803 0.108383
H26   H     H_    0.433759 0.192996 0.552917 0.110679
H27   H     H_    0.193249 0.433208 0.447685 0.114290
H28   H     H_    0.566263 0.193199 0.447169 0.110934
H29   H     H_    0.806914 0.568789 0.448721 0.115059
H30   H     H_    0.428753 0.806752 0.450618 0.121416
H31   H     H_    0.693206 0.071207 0.049426 0.121895
H32   H     H_    0.069209 0.306660 0.050698 0.121901
H33   H     H_    0.306783 0.933742 0.052801 0.110725
H34   H     H_    0.930224 0.693169 0.050659 0.111669
H35   H     H_    0.693466 0.928747 0.950671 0.122061
H36   H     H_    0.946285 0.418023 0.280168 0.104999
H37   H     H_    0.070007 0.693362 0.949692 0.121474
H38   H     H_    0.307046 0.066225 0.947090 0.110629
H39   H     H_    0.931149 0.306870 0.948894 0.112065
H40   H     H_    0.306297 0.565772 0.553149 0.121680
H41   H     H_    0.570318 0.693272 0.549986 0.121942
H42   H     H_    0.693358 0.431830 0.551587 0.120822
H43   H     H_    0.434710 0.306287 0.553578 0.120509
H44   H     H_    0.306538 0.434142 0.447029 0.121453
H45   H     H_    0.565365 0.306480 0.446544 0.120900
H46   H     H_    0.693594 0.567838 0.448057 0.121835
H47   H     H_    0.408945 0.047019 0.280995 0.104070
H48   H     H_    0.429762 0.693468 0.449888 0.120249
H49   H     H_    0.806512 0.070193 0.050160 0.121694
H50   H     H_    0.068213 0.193394 0.051415 0.121088
H51   H     H_    0.193483 0.934629 0.053418 0.120945
H52   H     H_    0.931169 0.806474 0.051309 0.120819
H53   H     H_    0.806762 0.929697 0.950001 0.121777
H54   H     H_    0.069011 0.806632 0.948967 0.120453
H55   H     H_    0.193732 0.065271 0.946425 0.120364
H56   H     H_    0.932075 0.193568 0.948255 0.121324
H57   H     H_    0.073844 0.632153 0.350287 0.241591
H58   H     H_    0.047355 0.408848 0.719057 0.103673
H59   H     H_    0.159902 0.557412 0.351723 0.123735
H60   H     H_    0.125662 0.526459 0.401308 0.154405
H61   H     H_    0.153646 0.604576 0.400321 0.149004
H62   H     H_    0.614305 0.910080 0.351347 0.241406
H63   H     H_    0.674281 0.002583 0.333062 0.120415
H64   H     H_    0.692081 0.970990 0.386354 0.138963
H65   H     H_    0.642745 0.037644 0.382146 0.166141
H66   H     H_    0.928919 0.367771 0.349518 0.242020
H67   H     H_    0.842880 0.442694 0.349892 0.123595
H68   H     H_    0.875607 0.473165 0.400009 0.153408
H69   H     H_    0.591394 0.041308 0.719580 0.104526
H70   H     H_    0.847600 0.395090 0.398434 0.147843
H71   H     H_    0.358760 0.056968 0.350736 0.241077
H72   H     H_    0.421329 0.152446 0.351542 0.122742
H73   H     H_    0.456633 0.123025 0.401158 0.155733
H74   H     H_    0.375411 0.140154 0.400263 0.146799
H75   H     H_    0.057099 0.358655 0.649342 0.240631
H76   H     H_    0.152564 0.421224 0.648201 0.122202
H77   H     H_    0.123089 0.456628 0.598626 0.155707
H78   H     H_    0.140250 0.375425 0.599557 0.146532
H79   H     H_    0.641601 0.053454 0.650006 0.241583
H80   H     H_    0.961389 0.587831 0.721125 0.108601
H81   H     H_    0.578940 0.148961 0.650902 0.121880
H82   H     H_    0.543799 0.121479 0.600716 0.155500
H83   H     H_    0.625010 0.138567 0.602054 0.146670
H84   H     H_    0.909722 0.613765 0.648654 0.241840
H85   H     H_    0.001954 0.674093 0.666728 0.120093
H86   H     H_    0.970367 0.691852 0.613457 0.139104
H87   H     H_    0.037237 0.642801 0.617637 0.166176
H88   H     H_    0.386348 0.906345 0.647180 0.241521
H89   H     H_    0.326057 0.997849 0.667177 0.118550
H90   H     H_    0.308255 0.968317 0.613352 0.138255
H91   H     H_    0.412284 0.955474 0.720588 0.107813
H92   H     H_    0.357344 0.034967 0.618713 0.165906
H93   H     H_    0.593783 0.113504 0.852825 0.241540
H94   H     H_    0.502340 0.173887 0.832844 0.118480
H95   H     H_    0.531880 0.191664 0.886669 0.138102
H96   H     H_    0.465159 0.142664 0.881307 0.165876
H97   H     H_    0.141605 0.443457 0.850598 0.240513
H98   H     H_    0.079383 0.347774 0.851667 0.122449
H99   H     H_    0.043851 0.377054 0.901273 0.155036
H100  H     H_    0.125136 0.360204 0.900312 0.145840
H101  H     H_    0.446436 0.858442 0.849987 0.241421
H102  H     H_    0.544584 0.087637 0.779422 0.107820
H103  H     H_    0.350950 0.921149 0.849143 0.121901
H104  H     H_    0.378474 0.956277 0.899322 0.155545
H105  H     H_    0.361330 0.875094 0.897980 0.146426
H106  H     H_    0.885899 0.589872 0.851369 0.241719
H107  H     H_    0.825913 0.497420 0.833304 0.120129
H108  H     H_    0.808029 0.528952 0.886582 0.138173
H109  H     H_    0.857348 0.462285 0.882385 0.166108
H110  H     H_    0.590173 0.885922 0.148582 0.241126
H111  H     H_    0.497787 0.825790 0.166941 0.119740
H112  H     H_    0.529365 0.808024 0.113624 0.137826
N1    N     N_2   0.070753 0.590364 0.366384 -0.496972
N2    N     N_2   0.099609 0.440524 0.866459 -0.495009
N3    N     N_2   0.443036 0.900453 0.865680 -0.494349
N4    N     N_2   0.897563 0.547172 0.863842 -0.491667
N5    N     N_2   0.547445 0.897537 0.136188 -0.492232
N6    N     N_2   0.106514 0.544502 0.134662 -0.492843
N7    N     N_2   0.440143 0.099196 0.133510 -0.494910
N8    N     N_2   0.890533 0.468911 0.136580 -0.488960
N9    N     N_2   0.602597 0.952764 0.363774 -0.492356
N10   N     N_2   0.931535 0.409519 0.365624 -0.496659
N11   N     N_2   0.400743 0.059760 0.366518 -0.494810
N12   N     N_2   0.059854 0.400647 0.633482 -0.495004
N13   N     N_2   0.599585 0.056886 0.634324 -0.494232
N14   N     N_2   0.952480 0.602267 0.636174 -0.491876
N15   N     N_2   0.397862 0.949539 0.635495 -0.492061
N16   N     N_2   0.550563 0.102048 0.864514 -0.492005
O1    O     O_R   0.090160 0.447820 0.500030 -0.516139
O2    O     O_R   0.947820 0.409840 0.000030 -0.512146
O3    O     O_R   0.409840 0.052180 0.000030 -0.518833
O4    O     O_R   0.052180 0.590160 0.000030 -0.518584
O5    O     O_R   0.590160 0.052180 0.999970 -0.508926
O6    O     O_R   0.947820 0.590160 0.999970 -0.511644
O7    O     O_R   0.409840 0.947820 0.999970 -0.518712
O8    O     O_R   0.052180 0.409840 0.999970 -0.515784
O9    O     O_R   0.999980 0.447820 0.435750 -0.486400
O10   O     O_R   0.447820 0.000020 0.435750 -0.481469
O11   O     O_R   0.000020 0.552180 0.435750 -0.486880
O12   O     O_R   0.447820 0.909840 0.500030 -0.509078
O13   O     O_R   0.552180 0.999980 0.435750 -0.491347
O14   O     O_R   0.999980 0.552180 0.564250 -0.491163
O15   O     O_R   0.447820 0.999980 0.564250 -0.491779
O16   O     O_R   0.000020 0.447820 0.564250 -0.481118
O17   O     O_R   0.552180 0.000020 0.564250 -0.481060
O18   O     O_R   0.499980 0.947820 0.935750 -0.481128
O19   O     O_R   0.947820 0.500020 0.935750 -0.491370
O20   O     O_R   0.500020 0.052180 0.935750 -0.491740
O21   O     O_R   0.052180 0.499980 0.935750 -0.481040
O22   O     O_R   0.499980 0.052180 0.064250 -0.481405
O23   O     O_R   0.909840 0.552180 0.500030 -0.508303
O24   O     O_R   0.947820 0.499980 0.064250 -0.486832
O25   O     O_R   0.500020 0.947820 0.064250 -0.491449
O26   O     O_R   0.052180 0.500020 0.064250 -0.480186
O27   O     O_R   0.499980 0.409740 0.537200 -0.512711
O28   O     O_R   0.409740 0.500020 0.537200 -0.512419
O29   O     O_R   0.500020 0.590260 0.537200 -0.510736
O30   O     O_R   0.590260 0.499980 0.537200 -0.510816
O31   O     O_R   0.499980 0.590260 0.462800 -0.511130
O32   O     O_R   0.409740 0.499980 0.462800 -0.512535
O33   O     O_R   0.500020 0.409740 0.462800 -0.512682
O34   O     O_R   0.552180 0.090160 0.500030 -0.518589
O35   O     O_R   0.590260 0.500020 0.462800 -0.512643
O36   O     O_R   0.999980 0.909740 0.037200 -0.512363
O37   O     O_R   0.909740 0.000020 0.037200 -0.510857
O38   O     O_R   0.000020 0.090260 0.037200 -0.510660
O39   O     O_R   0.090260 0.999980 0.037200 -0.512621
O40   O     O_R   0.999980 0.090260 0.962800 -0.512776
O41   O     O_R   0.909740 0.999980 0.962800 -0.510860
O42   O     O_R   0.000020 0.909740 0.962800 -0.510933
O43   O     O_R   0.090260 0.000020 0.962800 -0.512937
O44   O     O_R   0.090160 0.552180 0.499970 -0.516056
O45   O     O_R   0.447820 0.090160 0.499970 -0.518852
O46   O     O_R   0.909840 0.447820 0.499970 -0.513508
O47   O     O_R   0.552180 0.909840 0.499970 -0.508936
O48   O     O_R   0.590160 0.947820 0.000030 -0.509201

loop_
_geom_bond_atom_site_label_1
_geom_bond_atom_site_label_2
_ccdc_geom_bond_type
C28   H68   S    
C38   H108  S    
C86   C103  A    
C82   O48   A    
C119  H13   S    
C32   H86   S    
C22   C120  A    
C121  H18   S    
C103  H35   S    
C131  N13   S    
C63   C98   A    
C11   C76   S    
C81   C95   A    
C85   C96   A    
C109  H25   S    
Cu12  O27   S    
Cu9   O6    S    
C95   H27   S    
C76   O15   A    
C21   C117  A    
C77   O18   A    
Cu7   O13   S    
C78   O21   A    
C126  O27   A    
Cu8   O18   S    
C31   H83   S    
C46   C55   A    
Cu5   O12   S    
C44   O40   A    
C79   O22   A    
Cu5   O15   S    
C115  O6    A    
C29   H74   S    
C28   N10   S    
C102  H34   S    
C18   C111  A    
C106  H38   S    
C67   H52   S    
Cu9   O19   S    
Cu10  O20   S    
C116  C133  A    
H4    N6    S    
C4    N5    S    
C37   H103  S    
C16   C80   S    
C29   N11   S    
C1    O1    A    
C129  N11   S    
Cu3   O38   S    
Cu3   Cu4   S    
H101  N3    S    
C24   O35   A    
C86   C99   A    
Cu10  O5    S    
C81   C90   A    
C41   N7    S    
C62   H46   S    
Cu7   O34   S    
C22   C118  A    
C122  H19   S    
C34   H95   S    
C42   H15   S    
C128  N10   S    
C51   C64   A    
C117  H102  S    
C39   N5    S    
Cu12  O29   S    
C83   C91   A    
C119  C136  A    
C91   H23   S    
C17   C25   S    
Cu8   O25   S    
H79   N13   S    
Cu6   O44   S    
C76   O17   A    
C21   C119  A    
C77   O20   A    
Cu11  O8    S    
C78   O19   A    
C92   H24   S    
C31   H81   S    
H71   N11   S    
C39   H112  S    
C41   H10   S    
C87   C107  A    
C20   C21   S    
C74   O10   A    
C63   H48   S    
C45   O43   A    
C52   C65   A    
C110  C128  A    
C115  O4    A    
Cu1   Cu6   S    
C89   C115  S    
Cu2   O35   S    
C57   C92   A    
Cu1   O16   S    
C30   H78   S    
C68   C103  A    
C61   C96   A    
C48   C57   A    
Cu1   O1    S    
H93   N16   S    
C55   C90   A    
C104  O7    A    
C20   C113  A    
C42   H16   S    
C14   C135  A    
C39   H3    S    
C88   C106  A    
H66   N10   S    
C33   H90   S    
C8    C128  A    
C64   C99   A    
C15   C79   S    
Cu2   Cu12  S    
Cu6   O23   S    
C126  O33   A    
C83   C98   A    
C98   H30   S    
Cu6   O11   S    
Cu2   O32   S    
C44   C52   S    
C45   C53   S    
C69   H54   S    
C12   C134  A    
C136  N3    S    
C66   C101  A    
C6    C123  A    
C88   C104  S    
C109  C127  A    
C35   O42   A    
Cu10  O22   S    
C71   O45   A    
Cu3   O36   S    
C24   C48   S    
H84   N14   S    
C30   N12   S    
C13   C47   S    
Cu2   O33   S    
Cu7   O17   S    
C23   C123  A    
C5    C122  A    
C74   O13   A    
C62   C97   A    
C10   C75   S    
C48   C62   A    
C12   C77   S    
Cu8   O7    S    
C55   H40   S    
Cu3   O39   S    
C123  H20   S    
C27   N9    S    
H12   N8    S    
C40   H5    S    
C9    C74   S    
C100  H32   S    
C61   H45   S    
C6    N7    S    
C101  H33   S    
C87   C100  A    
C75   O16   A    
C42   H14   S    
Cu7   O47   S    
C33   H92   S    
Cu12  O28   S    
H57   N1    S    
C87   C93   S    
C27   H64   S    
C10   C132  A    
C114  H80   S    
C65   H50   S    
C135  N2    S    
C3    N4    S    
C12   C136  A    
C89   C105  A    
C36   H99   S    
H110  N5    S    
C84   C92   A    
C112  C130  A    
C93   O8    A    
C111  H47   S    
C47   C56   A    
C29   H72   S    
C40   N6    S    
Cu6   O14   S    
C49   O12   A    
C133  N15   S    
C26   H59   S    
Cu11  O4    S    
C80   O26   A    
C23   C121  A    
C26   N1    S    
C29   H73   S    
Cu4   O41   S    
C116  H91   S    
C9    C127  A    
C2    O32   A    
C13   O29   A    
C84   C97   A    
Cu5   Cu7   S    
C47   C63   A    
C89   C102  A    
C53   C70   A    
C1    C81   S    
C134  N16   S    
C43   O41   A    
C118  H2    S    
C45   O39   A    
C49   O47   A    
Cu3   O37   S    
C111  C129  A    
C56   C91   A    
C124  H21   S    
Cu11  O21   S    
C18   C109  A    
C40   H7    S    
C72   H56   S    
C28   H67   S    
C38   H107  S    
C110  H36   S    
C5    N6    S    
Cu5   O45   S    
C64   H49   S    
C35   C54   S    
C59   H44   S    
C75   O14   A    
C117  C134  A    
C104  O3    A    
Cu9   Cu11  S    
C120  H17   S    
C32   H85   S    
C34   H96   S    
C50   C58   A    
Cu8   Cu10  S    
C70   C106  A    
C17   C108  A    
Cu12  O30   S    
C33   N15   S    
C19   C114  A    
C82   C86   S    
C60   O23   A    
C34   N16   S    
C36   N2    S    
C10   C130  A    
C99   H31   S    
C97   H29   S    
C71   O34   A    
C93   O2    A    
C3    C14   A    
C39   H111  S    
C41   H9    S    
C7    C16   A    
C37   H105  S    
C31   N13   S    
C70   H55   S    
Cu4   O43   S    
C69   C105  A    
C96   H28   S    
C68   H53   S    
C13   O31   A    
C65   C100  A    
C37   H104  S    
H88   N15   S    
C49   C83   S    
C112  H58   S    
H75   N12   S    
C43   C51   S    
C54   C69   A    
C8    C73   S    
C4    C121  A    
C24   O30   A    
C33   H89   S    
C73   O9    A    
C8    C125  A    
C58   H43   S    
C27   H65   S    
C118  C135  A    
C32   H87   S    
C31   H82   S    
C46   C59   A    
C34   H94   S    
C36   H98   S    
Cu9   O2    S    
C7    C124  A    
C17   C110  A    
C88   C101  A    
Cu9   O24   S    
C19   C112  A    
C2    C46   S    
C52   C72   A    
C11   C133  A    
Cu4   O40   S    
C1    O44   A    
C107  H39   S    
C105  H37   S    
C5    C16   A    
C35   O36   A    
C41   H11   S    
C50   C126  S    
C108  C125  A    
C25   C122  A    
C79   O25   A    
C66   H51   S    
C6    C15   A    
Cu11  O26   S    
C71   C85   S    
C30   H77   S    
C40   H6    S    
C59   C95   A    
H97   N2    S    
C113  H69   S    
C125  N1    S    
C43   O37   A    
C18   C23   S    
C19   C22   S    
C20   C116  A    
Cu1   O46   S    
C30   H76   S    
C54   C67   A    
C37   N3    S    
Cu8   O48   S    
C38   N4    S    
C130  N12   S    
C85   C94   A    
C73   O11   A    
C72   C107  A    
Cu1   O9    S    
C132  N14   S    
C90   H22   S    
C27   H63   S    
C53   C66   A    
C94   H26   S    
Cu2   O31   S    
C127  N9    S    
C36   H100  S    
C42   N8    S    
Cu10  O3    S    
C38   H109  S    
Cu5   O10   S    
C50   C61   A    
C56   H41   S    
C28   H70   S    
C113  C131  A    
C114  C132  A    
C26   H60   S    
C44   O38   A    
C11   C131  A    
C9    C129  A    
Cu4   O42   S    
C4    C15   A    
C58   C94   A    
C60   O46   A    
C57   H42   S    
C60   C84   S    
H8    N7    S    
H62   N9    S    
C26   H61   S    
C51   C68   A    
C14   C78   S    
C7    N8    S    
C25   C124  A    
C32   N14   S    
C3    C120  A    
C80   O24   A    
H106  N4    S    
C108  H1    S    
C2    O28   A    
C82   O5    A    
C67   C102  A    
