data_mof_unit_11686.cif
_audit_creation_date              2013-03-05T16:18:54-0500
_audit_creation_method            fapswitch 2.2
_symmetry_space_group_name_H-M    P1
_symmetry_Int_Tables_number       1
_space_group_crystal_system       triclinic
_cell_length_a                    9.710152
_cell_length_b                    10.751297
_cell_length_c                    16.606075
_cell_angle_alpha                 90.225207
_cell_angle_beta                  83.490064
_cell_angle_gamma                 90.086484
_cell_volume                      1722.42758529

loop_
_atom_site_label
_atom_site_type_symbol
_atom_site_description
_atom_site_fract_x
_atom_site_fract_y
_atom_site_fract_z
_atom_type_partial_charge
O1    O     O_R   0.383960 0.685090 0.500020 -0.578999
O2    O     O_R   0.616040 0.685320 0.499960 -0.571054
C1    C     C_R   0.500898 0.742747 0.496872 0.923836
O3    O     O_R   0.370240 0.499890 0.615830 -0.624951
O4    O     O_R   0.602330 0.500120 0.615770 -0.598015
C2    C     C_R   0.478527 0.496364 0.653650 0.932870
Zn1   Zn    Zn3+2 0.345040 0.499850 0.500040 0.953595
Zn2   Zn    Zn3+2 0.654960 0.500150 0.499960 0.955462
O5    O     O_R   0.383960 0.314680 0.500040 -0.647495
O6    O     O_R   0.616040 0.314910 0.499980 -0.638753
O7    O     O_R   0.397670 0.499880 0.384230 -0.621480
O8    O     O_R   0.629760 0.500110 0.384170 -0.641728
C3    C     C_R   0.501016 0.258484 0.495876 0.872395
C4    C     C_R   0.521183 0.497505 0.346316 0.860238
C5    C     C_R   0.459357 0.464244 0.738909 -0.032759
C6    C     C_R   0.557428 0.499309 0.789759 -0.164821
C7    C     C_R   0.546194 0.455085 0.868609 -0.143776
C8    C     C_R   0.440131 0.370286 0.896575 0.096192
C9    C     C_R   0.341483 0.336571 0.845004 -0.175345
C10   C     C_R   0.349451 0.385224 0.767339 -0.213100
C11   C     C_R   0.438240 0.463037 0.134354 -0.087536
C12   C     C_R   0.436525 0.508177 0.212653 -0.202813
C13   C     C_R   0.643048 0.387984 0.228522 -0.157375
C14   C     C_R   0.642255 0.339734 0.150743 -0.126721
C15   C     C_R   0.536779 0.373314 0.104410 0.205279
C16   C     C_2   0.426968 0.325491 0.981313 -0.055434
C17   C     C_2   0.540512 0.326405 0.021071 -0.211697
C18   C     C_R   0.537354 0.469085 0.260434 -0.045391
H1    H     H_    0.642373 0.560697 0.768497 0.163969
H2    H     H_    0.355579 0.572143 0.236327 0.158478
H3    H     H_    0.722035 0.357248 0.265014 0.151164
H4    H     H_    0.642875 0.321982 0.987065 0.133361
H5    H     H_    0.259106 0.271513 0.864011 0.128867
H6    H     H_    0.361977 0.498329 0.097570 0.127477
H7    H     H_    0.273922 0.355354 0.727960 0.136849
H8    H     H_    0.620620 0.488438 0.907490 0.132186
H9    H     H_    0.722335 0.274893 0.127222 0.152591
C19   C     C_3   0.397273 0.931460 0.438783 0.095300
H10   H     H_    0.438149 0.904279 0.375697 0.133810
C20   C     C_3   0.393522 0.074513 0.441669 -0.434527
H11   H     H_    0.410850 0.112855 0.379295 0.211642
H12   H     H_    0.288950 0.108281 0.466467 0.222495
H13   H     H_    0.349089 0.904886 0.601465 0.194425
H14   H     H_    0.354185 0.107562 0.602106 0.123994
C21   C     C_3   0.458977 0.931271 0.585643 -0.184593
C22   C     C_3   0.649449 0.931277 0.459524 0.127432
C23   C     C_3   0.502726 0.879910 0.497520 -0.177912
H15   H     H_    0.662659 0.896520 0.395739 0.132198
C24   C     C_3   0.503080 0.123214 0.494932 -0.025337
C25   C     C_3   0.462799 0.076146 0.583925 -0.255210
C26   C     C_3   0.649086 0.074420 0.458918 -0.203896
H16   H     H_    0.726464 0.108602 0.497998 0.213330
C27   C     C_3   0.905769 0.593145 0.559572 -0.237082
H17   H     H_    0.862279 0.567622 0.622311 0.143950
H18   H     H_    0.859545 0.683998 0.549115 0.258088
C28   C     C_3   0.068330 0.604913 0.552573 -0.080657
H19   H     H_    0.095880 0.695163 0.522988 0.246976
H20   H     H_    0.861176 0.351607 0.587071 0.188080
H21   H     H_    0.100307 0.362889 0.592618 0.135776
C29   C     C_3   0.914590 0.378466 0.526810 -0.219104
C30   C     C_3   0.933899 0.527409 0.419938 -0.237388
N1    N     N_3   0.861190 0.500250 0.501720 -0.071278
H22   H     H_    0.900034 0.459947 0.375184 0.144252
H23   H     H_    0.903355 0.620790 0.399944 0.212703
N2    N     N_3   0.138550 0.503270 0.501080 -0.089363
C31   C     C_3   0.076294 0.382107 0.530063 -0.268917
C32   C     C_3   0.096228 0.520390 0.418413 -0.248489
H24   H     H_    0.144267 0.605652 0.390506 0.216371
H25   H     H_    0.136359 0.442247 0.378289 0.164433
H26   H     H_    0.889593 0.304625 0.483695 0.154653
H27   H     H_    0.124437 0.304912 0.492061 0.181383
N3    N     N_R   0.254936 0.883047 0.453134 0.232005
O9    O     O_R   0.172151 0.916959 0.516590 -0.367874
O10   O     O_R   0.201698 0.829527 0.393465 -0.401543
N4    N     N_R   0.771842 0.887540 0.495610 0.222279
O11   O     O_R   0.792909 0.920260 0.568672 -0.301114
O12   O     O_R   0.877397 0.848105 0.446971 -0.394318
C33   C     C_2   0.699420 0.125900 0.375494 0.358582
H28   H     H_    0.778211 0.198006 0.369910 0.073978
O13   O     O_2   0.652037 0.089515 0.314526 -0.577270
C34   C     C_2   0.523611 0.873971 0.656369 0.550708
H29   H     H_    0.497726 0.912770 0.716611 0.046341
O14   O     O_2   0.597612 0.782211 0.649169 -0.554022
C35   C     C_2   0.544685 0.136219 0.646765 0.371607
H30   H     H_    0.489293 0.182901 0.698516 0.061234
O15   O     O_2   0.670724 0.130099 0.642114 -0.524412
C36   C     C_2   0.115003 0.611289 0.635955 0.498109
H31   H     H_    0.095147 0.534412 0.677791 0.026523
O16   O     O_2   0.173045 0.704140 0.658039 -0.556911
C37   C     C_2   0.287134 0.295460 0.023688 0.407399
H32   H     H_    0.194336 0.326421 0.998994 0.046958
O17   O     O_2   0.274589 0.234378 0.085982 -0.531365

loop_
_geom_bond_atom_site_label_1
_geom_bond_atom_site_label_2
_geom_bond_distance
_ccdc_geom_bond_type
C36   H31   1.084726 S    
C9    C10   1.387628 A    
C8    C16   1.480795 S    
C34   H29   1.085348 S    
C25   C35   1.523018 S    
C27   H17   1.114103 S    
Zn1   O7    1.933086 S    
C16   C17   1.347791 D    
C35   O15   1.219384 D    
O1    C1    1.288793 A    
H21   C31   1.110364 S    
O4    C2    1.292695 A    
O7    C4    1.290032 A    
C33   O13   1.221354 D    
H20   C29   1.112620 S    
C20   C24   1.547976 S    
C28   H19   1.107963 S    
C29   N1    1.487326 S    
C8    C9    1.401739 A    
C21   C23   1.574887 S    
C30   H22   1.112194 S    
O5    C3    1.282834 A    
C2    C5    1.449942 S    
C10   H7    1.083976 S    
C6    C7    1.387366 A    
C24   C26   1.565371 S    
C13   C14   1.390814 A    
C7    H8    1.082113 S    
C20   H12   1.112454 S    
C29   C31   1.577632 S    
C12   C18   1.394569 A    
C11   C12   1.384403 A    
O3    Zn1   1.965650 S    
C22   N4    1.469023 S    
C34   O14   1.218856 D    
C14   H9    1.083427 S    
C22   H15   1.115477 S    
C27   H18   1.098202 S    
C5    C10   1.403474 A    
C19   N3    1.470399 S    
C5    C6    1.393116 A    
C32   H24   1.107104 S    
C14   C15   1.397602 A    
N3    O10   1.300362 A    
C9    H5    1.082357 S    
C33   H28   1.085180 S    
C28   C36   1.506254 S    
C11   H6    1.081994 S    
N2    C32   1.489089 S    
C6    H1    1.083866 S    
C22   C26   1.539055 S    
C26   H16   1.108420 S    
C32   H25   1.113267 S    
C13   H3    1.082776 S    
C30   H23   1.109951 S    
N4    O11   1.300122 A    
Zn1   N2    2.003556 S    
H13   C21   1.106414 S    
C27   N1    1.480961 S    
C30   C32   1.575494 S    
C37   O17   1.221788 D    
C31   H27   1.111631 S    
C29   H26   1.111827 S    
Zn2   O8    1.965651 S    
C7    C8    1.414062 A    
C13   C18   1.403625 A    
C35   H30   1.082743 S    
N4    O12   1.301374 A    
C19   C23   1.593578 S    
C3    C24   1.454494 S    
O3    C2    1.285126 A    
C20   H11   1.111175 S    
O8    C4    1.287446 A    
C24   C25   1.570751 S    
C36   O16   1.221047 D    
C15   C17   1.467688 S    
C27   C28   1.574502 S    
H14   C25   1.116064 S    
Zn1   O5    2.026930 S    
C11   C15   1.408705 A    
C22   C23   1.590413 S    
C12   H2    1.083856 S    
C17   H4    1.087098 S    
O1    Zn1   2.026545 S    
O2    Zn2   2.026932 S    
N3    O9    1.302041 A    
O6    C3    1.278682 A    
O4    Zn2   1.933086 S    
C16   C37   1.492269 S    
O2    C1    1.284206 A    
C26   C33   1.521871 S    
C19   C20   1.538922 S    
C37   H32   1.084746 S    
C19   H10   1.115392 S    
C21   C25   1.558277 S    
C1    C23   1.474775 S    
C21   C34   1.525386 S    
C30   N1    1.487677 S    
Zn2   O6    2.026544 S    
N2    C31   1.493513 S    
C4    C18   1.448418 S    
C28   N2    1.501005 S    
Zn2   N1    2.006046 S    
