data_mof_unit_45984.cif
_audit_creation_date              2012-12-10T21:13:09-0500
_audit_creation_method            fapswitch 2.2
_symmetry_space_group_name_H-M    P1
_symmetry_Int_Tables_number       1
_space_group_crystal_system       triclinic
_cell_length_a                    17.392265
_cell_length_b                    16.874479
_cell_length_c                    14.861655
_cell_angle_alpha                 90.1797
_cell_angle_beta                  89.955851
_cell_angle_gamma                 90.283076
_cell_volume                      4361.60298975

loop_
_atom_site_label
_atom_site_type_symbol
_atom_type_description
_atom_site_fract_x
_atom_site_fract_y
_atom_site_fract_z
_atom_type_partial_charge
C1    C     C_R   0.353309 0.499965 0.511240 0.993995
C2    C     C_R   0.647462 0.500163 0.494085 0.976076
C3    C     C_R   0.361865 0.441714 0.046663 -0.166757
C4    C     C_R   0.642166 0.448149 0.953840 -0.169399
C5    C     C_R   0.841851 0.569361 0.559746 0.312314
C6    C     C_R   0.148868 0.426249 0.532841 0.324412
C7    C     C_R   0.147998 0.571185 0.534248 0.305210
C8    C     C_R   0.840465 0.425000 0.552614 0.317910
C9    C     C_R   0.772421 0.571927 0.511811 0.305145
C10   C     C_R   0.229223 0.426692 0.541971 0.304137
C11   C     C_R   0.228735 0.572607 0.542382 0.323407
C12   C     C_R   0.770905 0.426835 0.505037 0.296185
C13   C     C_R   0.732289 0.500072 0.495620 -0.405886
C14   C     C_R   0.269851 0.499878 0.533171 -0.442759
C15   C     C_R   0.878266 0.496393 0.572370 -0.268219
C16   C     C_R   0.109072 0.498162 0.537400 -0.290137
C17   C     C_1   0.960287 0.496190 0.568656 0.259326
C18   C     C_1   0.028243 0.496857 0.555965 0.263908
C19   C     C_R   0.471357 0.832478 0.426173 0.274870
C20   C     C_R   0.531084 0.169815 0.576213 0.299291
C21   C     C_R   0.547916 0.832230 0.562392 0.267594
C22   C     C_R   0.447850 0.167204 0.445358 0.298585
C23   C     C_R   0.464991 0.748460 0.432318 -0.047374
C24   C     C_R   0.538313 0.253263 0.566264 -0.018244
C25   C     C_R   0.542188 0.747914 0.563218 -0.047954
C26   C     C_R   0.455435 0.251200 0.440098 -0.016848
C27   C     C_R   0.507490 0.875956 0.496368 -0.169519
C28   C     C_R   0.491015 0.124791 0.510205 -0.168336
C29   C     C_1   0.501662 0.963957 0.501859 0.253752
C30   C     C_1   0.496576 0.036748 0.506574 0.249656
C31   C     C_R   0.502097 0.499567 0.326520 0.876683
C32   C     C_R   0.498088 0.499651 0.673740 0.876363
C33   C     C_R   0.571025 0.486518 0.813914 -0.047410
C34   C     C_R   0.430990 0.484933 0.185988 -0.047586
C35   C     C_R   0.499537 0.495360 0.770992 -0.129934
C36   C     C_R   0.501823 0.495417 0.229602 -0.130210
C37   C     C_R   0.430292 0.479503 0.816228 -0.070453
C38   C     C_R   0.571891 0.482509 0.185272 -0.084684
C39   C     C_R   0.431870 0.455618 0.906455 -0.034506
C40   C     C_R   0.571782 0.459413 0.094427 -0.032241
C41   C     C_R   0.502299 0.459060 0.953126 0.019411
C42   C     C_R   0.501327 0.459369 0.047460 0.018901
C43   C     C_R   0.573292 0.465969 0.906239 0.012835
C44   C     C_R   0.429924 0.463404 0.094044 0.009161
C45   C     C_R   0.365339 0.429964 0.953273 0.351101
C46   C     C_R   0.639298 0.437089 0.047514 0.353754
N1    N     N_R   0.500000 0.707230 0.500000 -0.158715
N2    N     N_R   0.500000 0.292770 0.500000 -0.167264
O1    O     O_R   0.389110 0.566570 0.500000 -0.567235
O2    O     O_R   0.610890 0.433430 0.500000 -0.593328
O3    O     O_R   0.610890 0.566570 0.500000 -0.581978
O4    O     O_R   0.389110 0.433430 0.500000 -0.578833
O5    O     O_R   0.499980 0.566550 0.367850 -0.628391
O6    O     O_R   0.500020 0.433450 0.632150 -0.611752
O7    O     O_R   0.500020 0.566550 0.632150 -0.625224
O8    O     O_R   0.499980 0.433450 0.367850 -0.619767
Zn1   Zn    Zn3+2 0.500000 0.588860 0.500000 1.041454
Zn2   Zn    Zn3+2 0.500000 0.411140 0.500000 1.051179
C47   C     C_1   0.640213 0.502279 0.761918 0.175983
N3    N     N_1   0.694992 0.514825 0.719891 -0.163124
C48   C     C_1   0.361179 0.500302 0.236976 0.175583
N4    N     N_1   0.306050 0.512521 0.278393 -0.149863
C49   C     C_1   0.357737 0.497903 0.773489 0.365277
N5    N     N_1   0.299216 0.512431 0.740706 -0.075984
C50   C     C_1   0.643080 0.502597 0.230914 0.349929
N6    N     N_1   0.700057 0.518487 0.266960 -0.035520
S1    S     S_3+6 0.295886 0.366726 0.900689 0.070576
O9    O     O_2   0.225835 0.413792 0.876290 -0.258000
O10   O     O_2   0.329445 0.329178 0.817942 -0.224733
O11   O     O_3   0.269827 0.293828 0.971596 -0.514211
H1    H     H_    0.229858 0.263259 0.938872 0.409401
S2    S     S_3+6 0.712178 0.379233 0.100456 0.061876
O12   O     O_2   0.779832 0.431317 0.123117 -0.257467
O13   O     O_2   0.681545 0.341025 0.184391 -0.238452
O14   O     O_3   0.741362 0.306909 0.030312 -0.518080
H2    H     H_    0.783892 0.280315 0.062405 0.407782
C51   C     C_1   0.289365 0.426075 0.091675 0.373626
N7    N     N_1   0.231201 0.413238 0.126821 -0.081675
C52   C     C_1   0.715294 0.436268 0.908917 0.378820
N8    N     N_1   0.773981 0.426444 0.873859 -0.066778
S3    S     S_3+6 0.875635 0.654350 0.619042 0.150524
O15   O     O_2   0.938285 0.632198 0.683756 -0.247133
O16   O     O_2   0.905293 0.715819 0.554744 -0.145156
O17   O     O_3   0.802194 0.692572 0.678239 -0.477108
H3    H     H_    0.824434 0.738765 0.710428 0.401187
S4    S     S_3+6 0.097996 0.337737 0.503498 0.140848
O18   O     O_2   0.068823 0.298372 0.587406 -0.165922
O19   O     O_2   0.031020 0.357765 0.444015 -0.249380
O20   O     O_3   0.154621 0.274475 0.446823 -0.452760
H4    H     H_    0.123360 0.225638 0.439704 0.403668
S5    S     S_3+6 0.095246 0.659010 0.509246 0.145315
O21   O     O_2   0.026209 0.638806 0.452684 -0.252063
O22   O     O_2   0.069017 0.696842 0.595492 -0.169925
O23   O     O_3   0.149401 0.723930 0.451370 -0.448854
H5    H     H_    0.117867 0.772524 0.447615 0.406086
S6    S     S_3+6 0.873203 0.335523 0.602304 0.146373
O24   O     O_2   0.905732 0.281195 0.531872 -0.150196
O25   O     O_2   0.933531 0.352890 0.672102 -0.236736
O26   O     O_3   0.798782 0.290113 0.653123 -0.500451
H6    H     H_    0.819736 0.239328 0.675314 0.410195
S7    S     S_3+6 0.750366 0.659980 0.450538 0.116946
O27   O     O_2   0.821223 0.685430 0.400165 -0.192429
O28   O     O_2   0.686951 0.647544 0.383377 -0.298934
O29   O     O_3   0.725143 0.732998 0.521231 -0.467953
H7    H     H_    0.716481 0.779657 0.482317 0.397017
S8    S     S_3+6 0.273904 0.340345 0.587842 0.125784
O30   O     O_2   0.296322 0.285114 0.513252 -0.239139
O31   O     O_2   0.344355 0.361579 0.641093 -0.273540
O32   O     O_3   0.212857 0.293118 0.657343 -0.432541
H8    H     H_    0.239256 0.243282 0.673531 0.407629
S9    S     S_3+6 0.273488 0.661180 0.585608 0.105299
O33   O     O_2   0.218815 0.703960 0.646904 -0.195501
O34   O     O_2   0.344649 0.643490 0.638960 -0.309974
O35   O     O_3   0.297182 0.721467 0.500339 -0.509324
H9    H     H_    0.313250 0.771813 0.529365 0.383111
S10   S     S_3+6 0.745431 0.343584 0.436573 0.123869
O36   O     O_2   0.718156 0.275911 0.493824 -0.255134
O37   O     O_2   0.683851 0.364098 0.369977 -0.265134
O38   O     O_3   0.823613 0.314877 0.378643 -0.443964
H10   H     H_    0.806292 0.268725 0.342492 0.408234
S11   S     S_3+6 0.440148 0.880519 0.326215 0.087416
O39   O     O_2   0.355048 0.894506 0.332139 -0.212233
O40   O     O_2   0.481812 0.957790 0.313423 -0.219506
O41   O     O_3   0.458284 0.822900 0.236144 -0.544953
H11   H     H_    0.434282 0.850663 0.184777 0.408532
S12   S     S_3+6 0.563881 0.125449 0.677412 0.096392
O42   O     O_2   0.520077 0.050458 0.695974 -0.210369
O43   O     O_2   0.648310 0.108455 0.669147 -0.212550
O44   O     O_3   0.550018 0.187529 0.764706 -0.536188
H12   H     H_    0.575074 0.161542 0.816586 0.409261
S13   S     S_3+6 0.608410 0.882013 0.641742 0.078779
O45   O     O_2   0.638374 0.957931 0.602446 -0.223085
O46   O     O_2   0.562148 0.899005 0.724911 -0.218709
O47   O     O_3   0.684777 0.827163 0.670944 -0.512217
H13   H     H_    0.711902 0.858816 0.717443 0.403641
S14   S     S_3+6 0.379023 0.117625 0.375915 0.098653
O48   O     O_2   0.414174 0.102918 0.285058 -0.218559
O49   O     O_2   0.354398 0.040505 0.417261 -0.228112
O50   O     O_3   0.300079 0.173592 0.362790 -0.496095
H14   H     H_    0.267258 0.143704 0.319960 0.404720
C53   C     C_1   0.418416 0.706179 0.367912 0.501511
N9    N     N_1   0.380161 0.673520 0.315912 -0.130011
C54   C     C_1   0.588463 0.297249 0.625432 0.502354
N10   N     N_1   0.629277 0.331705 0.673148 -0.134382
C55   C     C_1   0.581679 0.704491 0.632043 0.503204
N11   N     N_1   0.614151 0.671098 0.688123 -0.121566
C56   C     C_1   0.415085 0.293694 0.370880 0.483808
N12   N     N_1   0.381940 0.326675 0.314969 -0.153207

loop_
_geom_bond_atom_site_label_1
_geom_bond_atom_site_label_2
_ccdc_geom_bond_type
S12   O42   D    
C27   C29   S    
C41   C42   A    
C56   N12   T    
C8    S6    S    
S13   O47   S    
O35   H9    S    
C39   C41   A    
C4    C46   A    
C51   N7    T    
C40   C46   A    
S7    O27   D    
C35   C37   A    
S2    O14   S    
C11   C14   A    
S4    O19   D    
N1    Zn1   S    
S8    O30   D    
C24   C54   S    
C54   N10   T    
S6    O26   S    
O1    Zn1   S    
S10   O36   D    
C26   C56   S    
C2    C13   S    
C9    C13   A    
C21   S13   S    
S11   O41   S    
C2    O2    A    
C37   C49   S    
C20   C24   A    
S10   O37   D    
S6    O25   D    
C45   S1    S    
O11   H1    S    
O3    Zn1   S    
C31   O8    A    
C19   C27   A    
C25   N1    A    
C32   O7    A    
C46   S2    S    
C26   N2    A    
C39   C45   A    
C40   C42   A    
C21   C27   A    
C47   N3    T    
S7    O28   D    
C22   C28   A    
C41   C43   A    
C48   N4    T    
C42   C44   A    
S14   O50   S    
C32   O6    A    
O29   H7    S    
S3    O16   D    
C55   N11   T    
O50   H14   S    
C3    C44   A    
C23   N1    A    
C11   S9    S    
S1    O9    D    
C24   N2    A    
C32   C35   S    
C34   C44   A    
O17   H3    S    
C4    C52   S    
S2    O13   D    
C10   C14   A    
S5    O21   D    
O5    Zn1   S    
S4    O18   D    
S2    O12   D    
C20   C28   A    
S12   O44   S    
C3    C45   A    
C34   C48   S    
S3    O15   D    
C52   N8    T    
C22   S14   S    
S1    O10   D    
C33   C43   A    
C19   C23   A    
O14   H2    S    
C5    C9    A    
C29   C30   T    
S5    O22   D    
C5    S3    S    
C7    C11   A    
O26   H6    S    
C38   C50   S    
C8    C12   A    
C5    C15   A    
C7    S5    S    
S6    O24   D    
C17   C18   T    
O2    Zn2   S    
S9    O34   D    
C16   C18   S    
C31   O5    A    
S11   O39   D    
O4    Zn2   S    
C9    S7    S    
C7    C16   A    
S7    O29   S    
O7    Zn1   S    
C10   S8    S    
S13   O45   D    
C3    C51   S    
S3    O17   S    
S14   O49   D    
O44   H12   S    
O6    Zn2   S    
C15   C17   S    
C21   C25   A    
C19   S11   S    
S12   O43   D    
S9    O33   D    
S14   O48   D    
S13   O46   D    
S4    O20   S    
C6    C10   A    
O38   H10   S    
N2    Zn2   S    
O47   H13   S    
C4    C43   A    
C8    C15   A    
C6    S4    S    
S10   O38   S    
S1    O11   S    
C28   C30   S    
C37   C39   A    
C53   N9    T    
S5    O23   S    
C38   C40   A    
S8    O31   D    
C36   C38   A    
C33   C35   A    
O8    Zn2   S    
C20   S12   S    
S9    O35   S    
C34   C36   A    
O23   H5    S    
C1    O4    A    
S11   O40   D    
C2    O3    A    
C6    C16   A    
C49   N5    T    
C12   C13   A    
C33   C47   S    
C50   N6    T    
C22   C26   A    
C31   C36   S    
C23   C53   S    
C25   C55   S    
C1    C14   S    
O20   H4    S    
O32   H8    S    
C1    O1    A    
O41   H11   S    
C12   S10   S    
S8    O32   S    
