data_mof_unit_12448.cif
_audit_creation_date              2012-12-10T19:04:11-0500
_audit_creation_method            fapswitch 2.2
_symmetry_space_group_name_H-M    P1
_symmetry_Int_Tables_number       1
_space_group_crystal_system       triclinic
_cell_length_a                    10.627913
_cell_length_b                    10.873189
_cell_length_c                    9.549969
_cell_angle_alpha                 90.240794
_cell_angle_beta                  89.381654
_cell_angle_gamma                 90.536811
_cell_volume                      1103.46581245

loop_
_atom_site_label
_atom_site_type_symbol
_atom_type_description
_atom_site_fract_x
_atom_site_fract_y
_atom_site_fract_z
_atom_type_partial_charge
C1    C     C_R   0.499854 0.262792 0.499652 0.797359
C2    C     C_3   0.961742 0.488808 0.367441 -0.106900
C3    C     C_3   0.042220 0.393230 0.444245 -0.207599
C4    C     C_3   0.122446 0.498906 0.502557 0.017748
C5    C     C_R   0.486556 0.062979 0.620118 0.000632
C6    C     C_R   0.501128 0.130344 0.497963 -0.076359
C7    C     C_R   0.517499 0.064332 0.371577 -0.201511
C8    C     C_R   0.517645 0.935255 0.371981 -0.225567
C9    C     C_R   0.501592 0.870148 0.498768 -0.101284
C10   C     C_R   0.486539 0.938858 0.620561 0.088150
C11   C     C_3   0.462863 0.930815 0.774605 0.269771
C12   C     C_R   0.259309 0.499511 0.500795 0.791360
C13   C     C_3   0.461095 0.072897 0.773956 -0.272504
C14   C     C_R   0.606778 0.529539 0.072453 0.229084
C15   C     C_R   0.397758 0.460779 0.075240 -0.059330
C16   C     C_R   0.397477 0.461490 0.926641 -0.017576
C17   C     C_R   0.607723 0.526173 0.924959 0.201674
C18   C     C_3   0.683073 0.641467 0.914535 -0.561031
C19   C     C_3   0.675192 0.650284 0.073375 0.285304
C20   C     C_R   0.500231 0.737368 0.500083 0.812199
C21   C     C_R   0.740763 0.499406 0.499375 0.794177
C22   C     C_3   0.038717 0.508399 0.633896 -0.130435
C23   C     C_3   0.956035 0.402770 0.575287 -0.165572
C24   C     C_3   0.877768 0.498515 0.498532 0.019442
C25   C     C_3   0.958149 0.604098 0.557186 -0.164907
C26   C     C_3   0.044207 0.594545 0.426069 -0.146765
Cu1   Cu    Cu3+1 0.499990 0.499980 0.640670 0.971095
Cu2   Cu    Cu3+1 0.500010 0.500020 0.359330 0.955190
H1    H     H_    0.916770 0.324267 0.636138 0.157314
H2    H     H_    0.543474 0.889921 0.830152 0.070811
H3    H     H_    0.367334 0.112754 0.798474 0.168143
H4    H     H_    0.314437 0.429698 0.130946 0.146889
H5    H     H_    0.313895 0.431389 0.872394 0.132050
H6    H     H_    0.779456 0.624020 0.872916 0.218192
H7    H     H_    0.632500 0.714771 0.859918 0.174558
H8    H     H_    0.614523 0.725867 0.114300 0.077557
H9    H     H_    0.072909 0.516451 0.743034 0.139576
H10   H     H_    0.920495 0.690369 0.603180 0.133151
H11   H     H_    0.084693 0.672953 0.366158 0.123843
H12   H     H_    0.929018 0.478412 0.258166 0.189088
H13   H     H_    0.079880 0.306968 0.398257 0.137289
H14   H     H_    0.529988 0.111668 0.272760 0.184615
H15   H     H_    0.530049 0.887268 0.273332 0.151287
N1    N     N_R   0.500800 0.500930 0.147930 -0.224917
N2    N     N_R   0.500800 0.500890 0.852020 -0.179656
O1    O     O_R   0.500000 0.319640 0.618810 -0.570378
O2    O     O_R   0.500010 0.319680 0.381230 -0.582024
O3    O     O_R   0.316850 0.499950 0.618770 -0.590203
O4    O     O_R   0.316860 0.499990 0.381190 -0.596657
O5    O     O_R   0.499990 0.680320 0.618770 -0.566442
O6    O     O_R   0.500000 0.680360 0.381190 -0.596837
O7    O     O_R   0.683140 0.500010 0.618810 -0.583734
O8    O     O_R   0.683150 0.500050 0.381230 -0.555659
C27   C     C_2   0.567596 0.130580 0.854891 0.840513
O9    O     O_2   0.677127 0.108966 0.823357 -0.614851
O10   O     O_R   0.539888 0.207845 0.968003 -0.776416
H16   H     H_    0.618287 0.240766 0.015337 0.325021
O11   O     O_3   0.794100 0.640240 0.136107 -0.563780
C28   C     C_3   0.844948 0.759093 0.156474 -0.323087
H17   H     H_    0.792035 0.808691 0.240129 0.166424
H18   H     H_    0.846198 0.813395 0.057825 0.172635
H19   H     H_    0.943711 0.750543 0.190682 0.176223
O12   O     O_3   0.343370 0.878205 0.803045 -0.548891
C29   C     C_3   0.335251 0.847698 0.946168 -0.302284
H20   H     H_    0.354269 0.929125 0.014120 0.157733
H21   H     H_    0.400718 0.771799 0.971203 0.150483
H22   H     H_    0.238263 0.814749 0.969799 0.186575

loop_
_geom_bond_atom_site_label_1
_geom_bond_atom_site_label_2
_ccdc_geom_bond_type
Cu1   O3    S    
C16   N2    A    
C4    C26   S    
C23   C24   S    
C8    H15   S    
Cu2   O2    S    
C6    C7    A    
C16   H5    S    
C4    C12   S    
C4    C22   S    
Cu2   O4    S    
C9    C20   S    
C5    C13   S    
C2    C3    S    
Cu1   O5    S    
C12   O3    A    
C29   H20   S    
Cu1   N2    S    
C12   O4    A    
O11   C28   S    
C1    O2    A    
C28   H17   S    
C2    C26   S    
O10   H16   S    
Cu2   O8    S    
C21   O8    A    
C11   C13   S    
C14   C17   A    
C26   H11   S    
C23   H1    S    
Cu1   O1    S    
C5    C10   A    
Cu2   N1    S    
C15   N1    A    
C17   C18   S    
C20   O6    A    
C11   O12   S    
C19   H8    S    
C18   H6    S    
C19   O11   S    
C2    C24   S    
C5    C6    A    
C25   H10   S    
Cu2   O6    S    
C27   O10   S    
C1    O1    A    
C28   H18   S    
C7    C8    A    
C10   C11   S    
C21   C24   S    
C17   N2    A    
C15   C16   A    
C29   H22   S    
C2    H12   S    
C15   H4    S    
C24   C25   S    
Cu1   O7    S    
C8    C9    A    
C14   N1    A    
C13   C27   S    
C18   H7    S    
C7    H14   S    
Cu1   Cu2   S    
C22   C23   S    
C18   C19   S    
C28   H19   S    
C20   O5    A    
C1    C6    S    
C25   C26   S    
C27   O9    D    
C22   H9    S    
C3    C23   S    
C14   C19   S    
C13   H3    S    
C21   O7    A    
C3    H13   S    
C3    C4    S    
C11   H2    S    
C9    C10   A    
O12   C29   S    
C22   C25   S    
C29   H21   S    
