data_mof_unit_18548.cif
_audit_creation_date              2012-12-11T14:19:16-0500
_audit_creation_method            fapswitch 2.2
_symmetry_space_group_name_H-M    P1
_symmetry_Int_Tables_number       1
_space_group_crystal_system       triclinic
_cell_length_a                    19.408199
_cell_length_b                    7.248592
_cell_length_c                    17.780076
_cell_angle_alpha                 90.018128
_cell_angle_beta                  107.641767
_cell_angle_gamma                 89.95515
_cell_volume                      2383.70000482

loop_
_atom_site_label
_atom_site_type_symbol
_atom_type_description
_atom_site_fract_x
_atom_site_fract_y
_atom_site_fract_z
_atom_type_partial_charge
O1    O     O_R   0.414820 0.494320 0.416790 -0.550663
O2    O     O_R   0.585180 0.994320 0.583210 -0.551098
O3    O     O_R   0.560270 0.819500 0.430140 -0.557786
O4    O     O_R   0.439730 0.319500 0.569860 -0.557612
C1    C     C_R   0.580639 0.655352 0.414584 0.757108
C2    C     C_R   0.419357 0.155493 0.585461 0.759506
O5    O     O_R   0.413840 0.823740 0.407440 -0.504031
O6    O     O_R   0.586160 0.323740 0.592560 -0.504375
O7    O     O_R   0.437710 0.998590 0.560350 -0.509832
O8    O     O_R   0.562290 0.498590 0.439650 -0.511049
C3    C     C_R   0.386967 0.655628 0.386424 0.790594
C4    C     C_R   0.613041 0.155586 0.613579 0.788094
O9    O     O_3   0.508000 0.662290 0.550200 -0.379548
O10   O     O_3   0.492000 0.162290 0.449800 -0.380126
V1    V     V_3+5 0.498520 0.935380 0.490690 1.576656
V2    V     V_3+5 0.501480 0.435380 0.509310 1.576090
C5    C     C_2   0.782026 0.263752 0.791742 -0.161559
C6    C     C_2   0.217914 0.763600 0.208265 -0.164282
C7    C     C_2   0.815249 0.109306 0.826400 -0.327145
C8    C     C_2   0.184717 0.609136 0.173673 -0.332300
H1    H     H_    0.807270 0.396781 0.810025 0.157465
H2    H     H_    0.192645 0.896646 0.189913 0.161674
H3    H     H_    0.787489 0.978196 0.813625 0.138612
H4    H     H_    0.212484 0.477956 0.186527 0.140609
C9    C     C_2   0.707438 0.263999 0.734722 0.179819
C10   C     C_2   0.292506 0.763875 0.265277 0.178197
C11   C     C_2   0.685731 0.144897 0.672463 0.116317
C12   C     C_2   0.314276 0.644940 0.327578 0.117488
C13   C     C_R   0.300033 0.068935 0.603331 0.339611
C14   C     C_R   0.700662 0.573446 0.397384 0.338993
C15   C     C_R   0.369590 0.147331 0.634202 -0.263885
C16   C     C_R   0.630308 0.646910 0.365809 -0.264410
C17   C     C_R   0.392919 0.217896 0.712258 0.134874
C18   C     C_R   0.605959 0.712313 0.286991 0.138815
C19   C     C_R   0.348035 0.204371 0.762455 -0.021448
C20   C     C_R   0.651031 0.700450 0.236888 -0.019995
C21   C     C_R   0.277912 0.125058 0.730959 -0.074127
C22   C     C_R   0.721998 0.625640 0.269093 -0.075320
C23   C     C_R   0.255744 0.049804 0.653359 0.017189
C24   C     C_R   0.745148 0.555133 0.347513 0.020748
C25   C     C_R   0.369320 0.267327 0.842832 0.477356
C26   C     C_R   0.629183 0.760337 0.155956 0.449195
C27   C     C_R   0.318444 0.271869 0.884239 -0.255275
C28   C     C_R   0.679675 0.762015 0.114029 -0.208634
C29   C     C_R   0.248673 0.200158 0.852917 -0.024398
C30   C     C_R   0.749946 0.694314 0.146008 0.021533
C31   C     C_R   0.229092 0.120401 0.777018 0.011675
C32   C     C_R   0.770720 0.620801 0.222928 -0.012148
C33   C     C_R   0.160321 0.036554 0.746742 0.127655
C34   C     C_R   0.840525 0.542837 0.253996 0.125543
C35   C     C_R   0.142302 0.950917 0.672839 -0.154173
C36   C     C_R   0.859792 0.462566 0.328997 -0.154693
C37   C     C_R   0.189277 0.955353 0.627693 -0.091268
C38   C     C_R   0.812850 0.466325 0.374196 -0.088457
C39   C     C_R   0.198845 0.201245 0.897308 0.148526
C40   C     C_R   0.798939 0.695047 0.101029 0.151007
C41   C     C_R   0.130367 0.118825 0.866447 -0.111421
C42   C     C_R   0.868959 0.619400 0.132776 -0.155542
C43   C     C_R   0.111087 0.035879 0.791084 0.086048
C44   C     C_R   0.889581 0.542715 0.209392 0.115756
H5    H     H_    0.334794 0.328553 0.943139 0.201751
H6    H     H_    0.663166 0.814369 0.054309 0.236821
H7    H     H_    0.091456 0.878875 0.649069 0.183659
H8    H     H_    0.911571 0.395109 0.353561 0.182710
H9    H     H_    0.172502 0.880563 0.572692 0.212838
H10   H     H_    0.830756 0.395649 0.430129 0.213142
O11   O     O_R   0.937810 0.773680 0.060480 -0.538423
O12   O     O_R   0.062190 0.273680 0.939520 -0.519120
O13   O     O_R   0.086190 0.439740 0.092580 -0.536742
O14   O     O_R   0.913810 0.939740 0.907420 -0.546402
C45   C     C_R   0.113390 0.607677 0.112861 0.765550
C46   C     C_R   0.886597 0.107737 0.887163 0.739480
O15   O     O_R   0.939760 0.444210 0.069890 -0.544241
O16   O     O_R   0.060240 0.944210 0.930110 -0.550122
O17   O     O_R   0.914790 0.269640 0.916760 -0.538270
O18   O     O_R   0.085210 0.769640 0.083240 -0.535411
C47   C     C_R   0.919172 0.612422 0.084516 0.693175
C48   C     C_R   0.080394 0.112285 0.914985 0.752823
O19   O     O_3   0.992050 0.601530 0.949880 -0.380370
O20   O     O_3   0.007950 0.101530 0.050120 -0.380356
V3    V     V_3+5 0.001480 0.328340 0.009300 1.442692
V4    V     V_3+5 0.998520 0.828340 0.990700 1.418907
N1    N     N_3   0.040746 0.955156 0.757839 -0.656638
H11   H     H_    0.001356 0.052235 0.759530 0.231410
H12   H     H_    0.036034 0.840378 0.791427 0.252904
N2    N     N_3   0.960991 0.468488 0.243479 -0.656937
H13   H     H_    0.999003 0.568181 0.240523 0.232984
H14   H     H_    0.967234 0.352638 0.211197 0.252128
N3    N     N_3   0.658198 0.402173 0.745399 -0.650201
H15   H     H_    0.653221 0.385953 0.801947 0.259650
H16   H     H_    0.681218 0.531565 0.743005 0.246248
N4    N     N_3   0.341688 0.901911 0.254540 -0.651938
H17   H     H_    0.346684 0.885469 0.198006 0.256531
H18   H     H_    0.318615 0.031361 0.256870 0.245901
N5    N     N_3   0.734475 0.013112 0.655554 -0.653958
H19   H     H_    0.739437 0.898463 0.692262 0.229422
H20   H     H_    0.784883 0.073377 0.662093 0.285893
N6    N     N_3   0.265641 0.513109 0.344523 -0.653678
H21   H     H_    0.260813 0.398353 0.307877 0.228150
H22   H     H_    0.215170 0.573271 0.337926 0.285321
S1    S     S_3+6 0.265579 0.009479 0.500453 0.000757
O21   O     O_2   0.268576 0.803400 0.492851 -0.327388
O22   O     O_2   0.188251 0.071281 0.467591 -0.331040
O23   O     O_3   0.311902 0.105726 0.444572 -0.486650
H23   H     H_    0.304398 0.240026 0.448351 0.346355
S2    S     S_3+6 0.735498 0.517469 0.500620 0.001120
O24   O     O_2   0.735898 0.311225 0.509202 -0.326115
O25   O     O_2   0.811714 0.587198 0.533502 -0.330853
O26   O     O_3   0.687356 0.608309 0.555825 -0.486359
H24   H     H_    0.693115 0.743266 0.552013 0.346883
N7    N     N_3   0.461076 0.311564 0.738540 -0.519615
H25   H     H_    0.458596 0.431837 0.705457 0.252609
H26   H     H_    0.501942 0.225376 0.731525 0.233670
N8    N     N_3   0.535996 0.796889 0.259531 -0.518670
H27   H     H_    0.535813 0.917903 0.291402 0.253278
H28   H     H_    0.496898 0.705855 0.267256 0.228896
S3    S     S_3+6 0.459039 0.329332 0.899389 0.057946
O27   O     O_2   0.511867 0.187638 0.888565 -0.304823
O28   O     O_2   0.477412 0.515425 0.873447 -0.296430
O29   O     O_3   0.466497 0.340188 0.996087 -0.462417
H29   H     H_    0.518197 0.367105 0.022747 0.407130
S4    S     S_3+6 0.539660 0.825675 0.099794 0.056781
O30   O     O_2   0.486507 0.682624 0.108435 -0.306157
O31   O     O_2   0.521416 0.009499 0.128079 -0.301141
O32   O     O_3   0.532450 0.844023 0.003352 -0.458055
H30   H     H_    0.480950 0.874036 0.977034 0.406334
N9    N     N_3   0.217405 0.280518 0.974992 -0.667959
H31   H     H_    0.230359 0.419613 0.971593 0.240924
H32   H     H_    0.262096 0.210527 0.011756 0.243886
N10   N     N_3   0.776131 0.767874 0.022101 -0.655794
H33   H     H_    0.808245 0.881726 0.019328 0.243136
H34   H     H_    0.782962 0.666452 0.983127 0.226327

loop_
_geom_bond_atom_site_label_1
_geom_bond_atom_site_label_2
_ccdc_geom_bond_type
C22   C24   A    
S1    O21   D    
C20   C26   A    
N5    H19   S    
O11   C47   A    
O2    C4    A    
C2    O7    A    
N8    H27   S    
C31   C33   A    
C10   C12   D    
O5    C3    A    
C27   H5    S    
O12   V3    S    
C19   C21   A    
C43   N1    S    
S3    O28   D    
C45   O18   A    
N2    H14   S    
C41   C43   A    
S2    O24   D    
C42   C44   A    
O13   C45   A    
C42   C47   S    
C17   C19   A    
C11   N5    S    
C8    H4    S    
C36   C38   A    
C33   C35   A    
C6    C10   S    
C34   C36   A    
C15   C17   A    
C8    C45   S    
C17   N7    S    
C21   C31   A    
C37   H9    S    
C22   C32   A    
C1    C16   S    
C32   C34   A    
C2    C15   S    
O6    V2    S    
C6    H2    S    
C14   S2    S    
C25   C27   A    
C7    C46   S    
C26   C28   A    
O16   V4    S    
C46   O17   A    
O14   V4    S    
O15   V3    S    
O23   H23   S    
C28   C30   A    
C29   C31   A    
O12   C48   A    
C21   C23   A    
C30   C32   A    
C4    C11   S    
C14   C24   A    
C35   H7    S    
O4    C2    A    
C36   H8    S    
S3    O29   S    
O18   V4    S    
C44   N2    S    
C7    H3    S    
O17   V3    S    
C28   H6    S    
C5    H1    S    
C35   C37   A    
C16   C18   A    
O4    V2    S    
N10   H34   S    
N9    H32   S    
N1    H11   S    
O6    C4    A    
C13   C23   A    
N4    H18   S    
C13   S1    S    
N7    H26   S    
O1    V2    S    
O2    V1    S    
C27   C29   A    
N1    H12   S    
C39   N9    S    
N6    H21   S    
S1    O23   S    
C24   C38   A    
C39   C41   A    
O32   H30   S    
C9    C11   D    
S4    O31   D    
N9    H31   S    
N3    H15   S    
O3    V1    S    
O29   H29   S    
C26   S4    S    
C12   N6    S    
N7    H25   S    
N2    H13   S    
C9    N3    S    
C41   C48   S    
O20   V3    S    
O3    C1    A    
O19   V4    S    
N8    H28   S    
N5    H20   S    
C38   H10   S    
C18   N8    S    
N6    H22   S    
C33   C43   A    
C5    C9    S    
S4    O32   S    
C20   C22   A    
N10   H33   S    
O7    V1    S    
C34   C44   A    
C1    O8    A    
C13   C15   A    
O8    V2    S    
S3    O27   D    
C14   C16   A    
C23   C37   A    
S2    O25   D    
C3    C12   S    
O5    V1    S    
N4    H17   S    
C5    C7    D    
C18   C20   A    
C40   C42   A    
C6    C8    D    
C19   C25   A    
O13   V3    S    
C29   C39   A    
O11   V4    S    
S1    O22   D    
N3    H16   S    
O16   C48   A    
O9    V2    S    
C30   C40   A    
O15   C47   A    
O10   V1    S    
O14   C46   A    
O1    C3    A    
C25   S3    S    
S4    O30   D    
O26   H24   S    
C10   N4    S    
C40   N10   S    
S2    O26   S    
