data_mof_unit_62976.cif
_audit_creation_date              2012-12-10T19:10:27-0500
_audit_creation_method            fapswitch 2.2
_symmetry_space_group_name_H-M    P1
_symmetry_Int_Tables_number       1
_space_group_crystal_system       triclinic
_cell_length_a                    30.269184
_cell_length_b                    30.269181
_cell_length_c                    35.491837
_cell_angle_alpha                 90.0
_cell_angle_beta                  90.000016
_cell_angle_gamma                 90.398545
_cell_volume                      32517.6651984

loop_
_atom_site_label
_atom_site_type_symbol
_atom_type_description
_atom_site_fract_x
_atom_site_fract_y
_atom_site_fract_z
_atom_type_partial_charge
C1    C     C_R   0.086081 0.500152 0.500173 0.921071
C2    C     C_R   0.499848 0.913918 0.499827 0.921072
C3    C     C_R   0.913918 0.499848 0.500173 0.921072
C4    C     C_R   0.500152 0.086081 0.499827 0.921071
C5    C     C_R   0.586081 0.000152 0.000173 0.921071
C6    C     C_R   0.999848 0.413919 0.999827 0.921072
C7    C     C_R   0.413918 0.999848 0.000173 0.921072
C8    C     C_R   0.000152 0.586081 0.999827 0.921071
C9    C     C_R   0.133784 0.500624 0.500802 -0.145811
C10   C     C_R   0.499376 0.866216 0.499198 -0.145812
C11   C     C_R   0.866216 0.499376 0.500802 -0.145811
C12   C     C_R   0.500624 0.133784 0.499198 -0.145812
C13   C     C_R   0.633784 0.000624 0.000802 -0.145811
C14   C     C_R   0.999376 0.366216 0.999198 -0.145811
C15   C     C_R   0.366215 0.999376 0.000802 -0.145811
C16   C     C_R   0.000624 0.633784 0.999198 -0.145811
C17   C     C_R   0.225362 0.502141 0.502254 0.122287
C18   C     C_R   0.497859 0.774638 0.497746 0.122288
C19   C     C_R   0.774638 0.497859 0.502254 0.122288
C20   C     C_R   0.502141 0.225362 0.497746 0.122288
C21   C     C_R   0.725362 0.002141 0.002253 0.122288
C22   C     C_R   0.997859 0.274638 0.997746 0.122288
C23   C     C_R   0.274638 0.997859 0.002254 0.122288
C24   C     C_R   0.002141 0.725362 0.997746 0.122288
C25   C     C_R   0.295188 0.481171 0.471998 0.092605
C26   C     C_R   0.476818 0.703188 0.469206 0.101569
C27   C     C_R   0.704812 0.518829 0.471998 0.092604
C28   C     C_R   0.523181 0.296812 0.469205 0.101569
C29   C     C_R   0.296812 0.523181 0.530794 0.101569
C30   C     C_R   0.481171 0.295188 0.528002 0.092605
C31   C     C_R   0.703188 0.476819 0.530794 0.101570
C32   C     C_R   0.518830 0.704812 0.528002 0.092605
C33   C     C_R   0.795188 0.981170 0.971998 0.092605
C34   C     C_R   0.976819 0.203188 0.969206 0.101569
C35   C     C_R   0.204812 0.018829 0.971998 0.092604
C36   C     C_R   0.023181 0.796812 0.969206 0.101569
C37   C     C_R   0.796812 0.023181 0.030794 0.101569
C38   C     C_R   0.981170 0.795188 0.028002 0.092605
C39   C     C_R   0.203188 0.976819 0.030794 0.101569
C40   C     C_R   0.018829 0.204812 0.028002 0.092605
C41   C     C_R   0.341163 0.483783 0.469775 0.409598
C42   C     C_R   0.476428 0.657104 0.470066 0.423974
C43   C     C_R   0.658836 0.516217 0.469775 0.409602
C44   C     C_R   0.523572 0.342896 0.470065 0.423975
C45   C     C_R   0.342896 0.523572 0.529934 0.423973
C46   C     C_R   0.483783 0.341163 0.530225 0.409599
C47   C     C_R   0.657104 0.476428 0.529934 0.423973
C48   C     C_R   0.516217 0.658837 0.530224 0.409600
C49   C     C_R   0.841163 0.983783 0.969775 0.409599
C50   C     C_R   0.976428 0.157104 0.970066 0.423974
C51   C     C_R   0.158836 0.016217 0.969775 0.409601
C52   C     C_R   0.023572 0.842896 0.970066 0.423975
C53   C     C_R   0.842896 0.023572 0.029934 0.423974
C54   C     C_R   0.983782 0.841163 0.030224 0.409600
C55   C     C_R   0.157104 0.976428 0.029934 0.423974
C56   C     C_R   0.016217 0.158836 0.030225 0.409599
C57   C     C_R   0.365225 0.502813 0.499841 -0.357001
C58   C     C_R   0.497187 0.634775 0.500159 -0.357000
C59   C     C_R   0.634775 0.497187 0.499841 -0.357000
C60   C     C_R   0.502813 0.365225 0.500159 -0.357002
C61   C     C_R   0.865225 0.002813 0.999841 -0.357000
C62   C     C_R   0.997187 0.134775 0.000159 -0.357000
C63   C     C_R   0.134775 0.997187 0.999841 -0.357002
C64   C     C_R   0.002813 0.865225 0.000159 -0.357001
C65   C     C_R   0.273217 0.501918 0.501899 -0.174235
C66   C     C_R   0.498082 0.726783 0.498101 -0.174235
C67   C     C_R   0.726783 0.498082 0.501899 -0.174235
C68   C     C_R   0.501918 0.273217 0.498101 -0.174235
C69   C     C_R   0.773217 0.001918 0.001899 -0.174235
C70   C     C_R   0.998082 0.226783 0.998101 -0.174235
C71   C     C_R   0.226783 0.998082 0.001899 -0.174235
C72   C     C_R   0.001918 0.773217 0.998101 -0.174235
C73   C     C_R   0.499360 0.586579 0.500034 0.963186
C74   C     C_R   0.586579 0.499360 0.499966 0.963187
C75   C     C_R   0.500640 0.413421 0.500034 0.963185
C76   C     C_R   0.413421 0.500640 0.499966 0.963186
C77   C     C_R   0.999360 0.086579 0.000034 0.963187
C78   C     C_R   0.086579 0.999360 0.999965 0.963186
C79   C     C_R   0.000640 0.913421 0.000034 0.963186
C80   C     C_R   0.913421 0.000640 0.999965 0.963187
C81   C     C_R   1.000000 0.500000 0.426699 0.916332
C82   C     C_R   0.500000 1.000000 0.426698 0.913140
C83   C     C_R   1.000000 0.500000 0.573302 0.913138
C84   C     C_R   0.500000 1.000000 0.573301 0.916333
C85   C     C_R   0.500000 0.000000 0.926699 0.916332
C86   C     C_R   1.000000 0.500000 0.926698 0.913139
C87   C     C_R   0.500000 1.000000 0.073302 0.913139
C88   C     C_R   1.000000 0.500000 0.073301 0.916331
C89   C     C_R   0.039404 0.508542 0.173503 0.177004
C90   C     C_R   0.508190 0.960638 0.173506 0.177353
C91   C     C_R   0.960596 0.491458 0.173503 0.177004
C92   C     C_R   0.491810 0.039362 0.173506 0.177353
C93   C     C_R   0.960638 0.508189 0.826494 0.177353
C94   C     C_R   0.508542 0.039404 0.826497 0.177004
C95   C     C_R   0.039362 0.491811 0.826494 0.177353
C96   C     C_R   0.491458 0.960596 0.826497 0.177004
C97   C     C_R   0.460594 0.991466 0.673503 0.177002
C98   C     C_R   0.008191 0.460639 0.673506 0.177354
C99   C     C_R   0.539406 0.008534 0.673503 0.177003
C100  C     C_R   0.991809 0.539361 0.673506 0.177354
C101  C     C_R   0.460637 0.008182 0.326494 0.177352
C102  C     C_R   0.991460 0.460596 0.326497 0.177004
C103  C     C_R   0.539363 0.991818 0.326494 0.177352
C104  C     C_R   0.008540 0.539404 0.326497 0.177004
C105  C     C_R   0.039261 0.508360 0.134302 -0.185329
C106  C     C_R   0.508007 0.960780 0.134307 -0.185797
C107  C     C_R   0.960739 0.491640 0.134302 -0.185328
C108  C     C_R   0.491993 0.039220 0.134307 -0.185797
C109  C     C_R   0.960779 0.508005 0.865693 -0.185797
C110  C     C_R   0.508360 0.039261 0.865698 -0.185329
C111  C     C_R   0.039221 0.491995 0.865693 -0.185797
C112  C     C_R   0.491640 0.960739 0.865698 -0.185329
C113  C     C_R   0.460737 0.991648 0.634302 -0.185326
C114  C     C_R   0.008007 0.460780 0.634307 -0.185798
C115  C     C_R   0.539263 0.008352 0.634302 -0.185327
C116  C     C_R   0.991992 0.539220 0.634307 -0.185798
C117  C     C_R   0.460778 0.007999 0.365693 -0.185797
C118  C     C_R   0.991642 0.460739 0.365698 -0.185328
C119  C     C_R   0.539222 0.992001 0.365693 -0.185796
C120  C     C_R   0.008358 0.539261 0.365698 -0.185328
C121  C     C_R   0.000000 0.500000 0.114501 -0.114223
C122  C     C_R   0.500000 0.000000 0.114504 -0.113953
C123  C     C_R   1.000000 0.500000 0.885495 -0.113952
C124  C     C_R   0.500000 0.000000 0.885498 -0.114223
C125  C     C_R   0.500000 0.000000 0.614501 -0.114222
C126  C     C_R   1.000000 0.500000 0.614504 -0.113953
C127  C     C_R   0.500000 0.000000 0.385495 -0.113955
C128  C     C_R   0.000000 0.500000 0.385498 -0.114223
C129  C     C_R   0.000000 0.500000 0.193101 0.003113
C130  C     C_R   0.500000 1.000000 0.193103 0.002161
C131  C     C_R   1.000000 0.500000 0.806897 0.002159
C132  C     C_R   0.500000 0.000000 0.806899 0.003114
C133  C     C_R   0.500000 1.000000 0.693101 0.003115
C134  C     C_R   1.000000 0.500000 0.693103 0.002159
C135  C     C_R   0.500000 1.000000 0.306897 0.002164
C136  C     C_R   0.000000 0.500000 0.306899 0.003113
C137  C     C_1   0.000000 0.500000 0.233173 0.082063
C138  C     C_1   0.500000 0.000000 0.233174 0.081380
C139  C     C_1   1.000000 0.500000 0.766826 0.081378
C140  C     C_1   0.500000 1.000000 0.766827 0.082064
C141  C     C_1   0.500000 1.000000 0.733173 0.082064
C142  C     C_1   1.000000 0.500000 0.733174 0.081378
C143  C     C_1   0.500000 0.000000 0.266826 0.081381
C144  C     C_1   0.000000 0.500000 0.266827 0.082064
C145  C     C_R   0.202944 0.527306 0.475541 -0.142942
C146  C     C_R   0.523683 0.797630 0.471656 -0.106901
C147  C     C_R   0.797056 0.472694 0.475541 -0.142942
C148  C     C_R   0.476318 0.202370 0.471656 -0.106901
C149  C     C_R   0.202370 0.476317 0.528344 -0.106899
C150  C     C_R   0.527306 0.202944 0.524459 -0.142942
C151  C     C_R   0.797630 0.523683 0.528344 -0.106900
C152  C     C_R   0.472694 0.797056 0.524459 -0.142942
C153  C     C_R   0.702944 0.027306 0.975541 -0.142942
C154  C     C_R   0.023683 0.297630 0.971656 -0.106900
C155  C     C_R   0.297056 0.972694 0.975541 -0.142942
C156  C     C_R   0.976317 0.702370 0.971656 -0.106900
C157  C     C_R   0.702369 0.976317 0.028344 -0.106900
C158  C     C_R   0.027306 0.702944 0.024459 -0.142941
C159  C     C_R   0.297630 0.023683 0.028344 -0.106900
C160  C     C_R   0.972694 0.297056 0.024459 -0.142942
C161  C     C_R   0.157189 0.526285 0.474268 0.132081
C162  C     C_R   0.524155 0.843464 0.471828 0.120154
C163  C     C_R   0.842810 0.473715 0.474268 0.132081
C164  C     C_R   0.475845 0.156536 0.471828 0.120154
C165  C     C_R   0.156536 0.475845 0.528172 0.120155
C166  C     C_R   0.526285 0.157189 0.525731 0.132080
C167  C     C_R   0.843464 0.524155 0.528172 0.120155
C168  C     C_R   0.473715 0.842811 0.525732 0.132080
C169  C     C_R   0.657189 0.026285 0.974268 0.132081
C170  C     C_R   0.024155 0.343464 0.971828 0.120155
C171  C     C_R   0.342810 0.973715 0.974268 0.132081
C172  C     C_R   0.975845 0.656536 0.971828 0.120155
C173  C     C_R   0.656536 0.975845 0.028172 0.120155
C174  C     C_R   0.026285 0.657189 0.025732 0.132081
C175  C     C_R   0.343464 0.024155 0.028172 0.120155
C176  C     C_R   0.973715 0.342811 0.025731 0.132081
H1    H     H_    0.069796 0.515095 0.119402 0.198164
H2    H     H_    0.514459 0.930273 0.119411 0.198243
H3    H     H_    0.930204 0.484905 0.119402 0.198164
H4    H     H_    0.485541 0.069727 0.119411 0.198243
H5    H     H_    0.930272 0.514457 0.880589 0.198243
H6    H     H_    0.515096 0.069796 0.880597 0.198164
H7    H     H_    0.069728 0.485543 0.880589 0.198242
H8    H     H_    0.484904 0.930204 0.880597 0.198164
H9    H     H_    0.430201 0.984918 0.619403 0.198162
H10   H     H_    0.014460 0.430273 0.619411 0.198243
H11   H     H_    0.569799 0.015082 0.619403 0.198162
H12   H     H_    0.985540 0.569727 0.619411 0.198243
H13   H     H_    0.430270 0.014445 0.380589 0.198242
H14   H     H_    0.984907 0.430203 0.380597 0.198164
H15   H     H_    0.569729 0.985555 0.380589 0.198242
H16   H     H_    0.015093 0.569797 0.380597 0.198164
H17   H     H_    0.221205 0.546829 0.455140 0.168596
H18   H     H_    0.543001 0.779841 0.450995 0.185290
H19   H     H_    0.778795 0.453171 0.455140 0.168596
H20   H     H_    0.456999 0.220159 0.450995 0.185290
H21   H     H_    0.220159 0.456998 0.549005 0.185290
H22   H     H_    0.546829 0.221205 0.544860 0.168595
H23   H     H_    0.779841 0.543002 0.549005 0.185290
H24   H     H_    0.453171 0.778795 0.544860 0.168595
H25   H     H_    0.721205 0.046829 0.955140 0.168596
H26   H     H_    0.043002 0.279841 0.950995 0.185291
H27   H     H_    0.278795 0.953171 0.955140 0.168596
H28   H     H_    0.956998 0.720159 0.950995 0.185290
H29   H     H_    0.720159 0.956998 0.049005 0.185290
H30   H     H_    0.046829 0.721205 0.044860 0.168596
H31   H     H_    0.279841 0.043002 0.049005 0.185290
H32   H     H_    0.953171 0.278795 0.044860 0.168596
O1    O     O_R   0.065400 0.463120 0.500070 -0.594768
O2    O     O_R   0.463120 0.934600 0.500070 -0.597107
O3    O     O_R   0.934600 0.536880 0.500070 -0.594768
O4    O     O_R   0.536880 0.065400 0.500070 -0.597108
O5    O     O_R   0.065400 0.536880 0.499930 -0.597107
O6    O     O_R   0.463120 0.065400 0.499930 -0.594768
O7    O     O_R   0.934600 0.463120 0.499930 -0.597107
O8    O     O_R   0.536880 0.934600 0.499930 -0.594767
O9    O     O_R   0.565400 0.963120 0.000070 -0.594768
O10   O     O_R   0.963120 0.434600 0.000070 -0.597107
O11   O     O_R   0.434600 0.036880 0.000070 -0.594767
O12   O     O_R   0.036880 0.565400 0.000070 -0.597108
O13   O     O_R   0.565400 0.036880 0.999930 -0.597108
O14   O     O_R   0.963120 0.565400 0.999930 -0.594768
O15   O     O_R   0.434600 0.963120 0.999930 -0.597107
O16   O     O_R   0.036880 0.434600 0.999930 -0.594767
O17   O     O_R   0.999940 0.463120 0.444630 -0.611908
O18   O     O_R   0.463120 0.000060 0.444630 -0.612857
O19   O     O_R   0.000060 0.536880 0.444630 -0.611909
O20   O     O_R   0.536880 0.999940 0.444630 -0.612857
O21   O     O_R   0.999940 0.536880 0.555370 -0.612857
O22   O     O_R   0.463120 0.999940 0.555370 -0.611910
O23   O     O_R   0.000060 0.463120 0.555370 -0.612856
O24   O     O_R   0.536880 0.000060 0.555370 -0.611910
O25   O     O_R   0.499940 0.963120 0.944630 -0.611908
O26   O     O_R   0.963120 0.500060 0.944630 -0.612856
O27   O     O_R   0.500060 0.036880 0.944630 -0.611909
O28   O     O_R   0.036880 0.499940 0.944630 -0.612857
O29   O     O_R   0.499940 0.036880 0.055370 -0.612857
O30   O     O_R   0.963120 0.499940 0.055370 -0.611908
O31   O     O_R   0.500060 0.963120 0.055370 -0.612856
O32   O     O_R   0.036880 0.500060 0.055370 -0.611909
O33   O     O_R   0.499910 0.565560 0.468780 -0.572013
O34   O     O_R   0.565560 0.500090 0.468780 -0.610502
O35   O     O_R   0.500090 0.434440 0.468780 -0.572013
O36   O     O_R   0.434440 0.499910 0.468780 -0.610501
O37   O     O_R   0.499910 0.434440 0.531220 -0.610501
O38   O     O_R   0.565560 0.499910 0.531220 -0.572013
O39   O     O_R   0.500090 0.565560 0.531220 -0.610502
O40   O     O_R   0.434440 0.500090 0.531220 -0.572013
O41   O     O_R   0.999910 0.065560 0.968780 -0.572013
O42   O     O_R   0.065560 0.000090 0.968780 -0.610502
O43   O     O_R   0.000090 0.934440 0.968780 -0.572013
O44   O     O_R   0.934440 0.999910 0.968780 -0.610502
O45   O     O_R   0.999910 0.934440 0.031220 -0.610502
O46   O     O_R   0.065560 0.999910 0.031220 -0.572013
O47   O     O_R   0.000090 0.065560 0.031220 -0.610502
O48   O     O_R   0.934440 0.000090 0.031220 -0.572013
Zn1   Zn    Zn3+2 0.000000 0.450720 0.500000 1.060695
Zn2   Zn    Zn3+2 0.450720 1.000000 0.500000 1.060694
Zn3   Zn    Zn3+2 0.000000 0.549280 0.500000 1.060695
Zn4   Zn    Zn3+2 0.549280 1.000000 0.500000 1.060694
Zn5   Zn    Zn3+2 0.500000 0.950720 0.000000 1.060695
Zn6   Zn    Zn3+2 0.950720 0.500000 0.000000 1.060695
Zn7   Zn    Zn3+2 0.500000 0.049280 0.000000 1.060695
Zn8   Zn    Zn3+2 0.049280 0.500000 0.000000 1.060695
Zn9   Zn    Zn3+2 0.500000 0.500000 0.458280 1.053956
Zn10  Zn    Zn3+2 0.500000 0.500000 0.541720 1.053957
Zn11  Zn    Zn3+2 1.000000 1.000000 0.958280 1.053956
Zn12  Zn    Zn3+2 1.000000 1.000000 0.041720 1.053956
I1    I     I_    0.099988 0.522066 0.201512 -0.222690
I2    I     I_    0.521178 0.900121 0.201515 -0.213441
I3    I     I_    0.900012 0.477934 0.201512 -0.222690
I4    I     I_    0.478822 0.099879 0.201515 -0.213441
I5    I     I_    0.900120 0.521175 0.798485 -0.213439
I6    I     I_    0.522067 0.099988 0.798488 -0.222692
I7    I     I_    0.099880 0.478825 0.798485 -0.213439
I8    I     I_    0.477933 0.900012 0.798488 -0.222692
I9    I     I_    0.400007 0.977953 0.701512 -0.222693
I10   I     I_    0.021180 0.400122 0.701515 -0.213439
I11   I     I_    0.599992 0.022047 0.701512 -0.222693
I12   I     I_    0.978820 0.599878 0.701515 -0.213439
I13   I     I_    0.400118 0.021157 0.298485 -0.213447
I14   I     I_    0.977937 0.400011 0.298488 -0.222691
I15   I     I_    0.599882 0.978843 0.298485 -0.213447
I16   I     I_    0.022063 0.599989 0.298488 -0.222690
I17   I     I_    0.126316 0.561719 0.429820 -0.276939
I18   I     I_    0.560752 0.875570 0.428480 -0.255648
I19   I     I_    0.873684 0.438281 0.429821 -0.276938
I20   I     I_    0.439247 0.124430 0.428481 -0.255648
I21   I     I_    0.124430 0.439247 0.571519 -0.255656
I22   I     I_    0.561719 0.126316 0.570179 -0.276934
I23   I     I_    0.875570 0.560753 0.571519 -0.255656
I24   I     I_    0.438282 0.873684 0.570180 -0.276934
I25   I     I_    0.626316 0.061719 0.929821 -0.276940
I26   I     I_    0.060753 0.375570 0.928481 -0.255654
I27   I     I_    0.373684 0.938281 0.929821 -0.276940
I28   I     I_    0.939247 0.624429 0.928480 -0.255655
I29   I     I_    0.624430 0.939247 0.071519 -0.255655
I30   I     I_    0.061719 0.626316 0.070179 -0.276940
I31   I     I_    0.375570 0.060753 0.071519 -0.255655
I32   I     I_    0.938281 0.373684 0.070179 -0.276940
I33   I     I_    0.259889 0.442098 0.431575 -0.228380
I34   I     I_    0.444475 0.736098 0.423754 -0.238577
I35   I     I_    0.740111 0.557902 0.431575 -0.228380
I36   I     I_    0.555524 0.263902 0.423753 -0.238577
I37   I     I_    0.263902 0.555524 0.576246 -0.238576
I38   I     I_    0.442098 0.259889 0.568425 -0.228380
I39   I     I_    0.736098 0.444476 0.576246 -0.238577
I40   I     I_    0.557903 0.740111 0.568425 -0.228380
I41   I     I_    0.759889 0.942098 0.931575 -0.228380
I42   I     I_    0.944476 0.236098 0.923753 -0.238576
I43   I     I_    0.240111 0.057902 0.931575 -0.228379
I44   I     I_    0.055524 0.763902 0.923753 -0.238577
I45   I     I_    0.763902 0.055524 0.076246 -0.238575
I46   I     I_    0.942097 0.759889 0.068425 -0.228380
I47   I     I_    0.236098 0.944476 0.076246 -0.238576
I48   I     I_    0.057902 0.240111 0.068425 -0.228380
O49   O     O_3   0.362755 0.463939 0.439943 -0.549894
C177  C     C_3   0.364194 0.494059 0.409533 -0.161381
H33   H     H_    0.380240 0.525891 0.417578 0.133174
H34   H     H_    0.330665 0.500584 0.398174 0.163660
H35   H     H_    0.384056 0.479363 0.386519 0.199288
O50   O     O_3   0.457836 0.634261 0.440144 -0.538918
C178  C     C_3   0.413807 0.622825 0.449171 -0.244681
H36   H     H_    0.396352 0.613760 0.422775 0.198224
H37   H     H_    0.395283 0.650590 0.462250 0.152312
H38   H     H_    0.412918 0.593453 0.467778 0.117209
O51   O     O_3   0.637244 0.536062 0.439943 -0.549895
C179  C     C_3   0.635805 0.505942 0.409533 -0.161381
H39   H     H_    0.669335 0.499416 0.398174 0.163660
H40   H     H_    0.615944 0.520638 0.386519 0.199287
H41   H     H_    0.619760 0.474110 0.417578 0.133174
O52   O     O_3   0.542164 0.365739 0.440144 -0.538917
C180  C     C_3   0.586192 0.377175 0.449170 -0.244682
H42   H     H_    0.603647 0.386241 0.422775 0.198225
H43   H     H_    0.604716 0.349410 0.462249 0.152312
H44   H     H_    0.587082 0.406547 0.467778 0.117209
O53   O     O_3   0.365739 0.542164 0.559856 -0.538916
C181  C     C_3   0.377175 0.586193 0.550830 -0.244681
H45   H     H_    0.386240 0.603647 0.577225 0.198225
H46   H     H_    0.349410 0.604716 0.537750 0.152312
H47   H     H_    0.406547 0.587082 0.532222 0.117209
O54   O     O_3   0.463939 0.362755 0.560057 -0.549894
C182  C     C_3   0.494060 0.364194 0.590467 -0.161384
H48   H     H_    0.500588 0.330663 0.601824 0.163655
H49   H     H_    0.479362 0.384053 0.613482 0.199290
H50   H     H_    0.525891 0.380242 0.582423 0.133181
O55   O     O_3   0.634261 0.457836 0.559856 -0.538917
C183  C     C_3   0.622825 0.413807 0.550829 -0.244682
H51   H     H_    0.613759 0.396352 0.577224 0.198224
H52   H     H_    0.650590 0.395283 0.537750 0.152312
H53   H     H_    0.593453 0.412918 0.532221 0.117208
O56   O     O_3   0.536062 0.637244 0.560056 -0.549895
C184  C     C_3   0.505942 0.635806 0.590467 -0.161380
H54   H     H_    0.474109 0.619760 0.582422 0.133174
H55   H     H_    0.499416 0.669335 0.601826 0.163660
H56   H     H_    0.520638 0.615944 0.613481 0.199287
O57   O     O_3   0.862756 0.963938 0.939943 -0.549895
C185  C     C_3   0.864194 0.994058 0.909533 -0.161378
H57   H     H_    0.880240 0.025891 0.917578 0.133173
H58   H     H_    0.830665 0.000584 0.898174 0.163660
H59   H     H_    0.884056 0.979363 0.886519 0.199287
O58   O     O_3   0.957836 0.134261 0.940144 -0.538917
C186  C     C_3   0.913807 0.122825 0.949170 -0.244682
H60   H     H_    0.896352 0.113759 0.922775 0.198225
H61   H     H_    0.895283 0.150590 0.962250 0.152312
H62   H     H_    0.912918 0.093453 0.967778 0.117209
O59   O     O_3   0.137244 0.036061 0.939943 -0.549895
C187  C     C_3   0.135805 0.005941 0.909533 -0.161379
H63   H     H_    0.169335 0.999416 0.898174 0.163660
H64   H     H_    0.115944 0.020637 0.886519 0.199287
H65   H     H_    0.119760 0.974109 0.917578 0.133174
O60   O     O_3   0.042164 0.865739 0.940144 -0.538917
C188  C     C_3   0.086193 0.877175 0.949170 -0.244684
H66   H     H_    0.103647 0.886240 0.922775 0.198225
H67   H     H_    0.104716 0.849410 0.962250 0.152313
H68   H     H_    0.087082 0.906547 0.967778 0.117210
O61   O     O_3   0.865739 0.042164 0.059856 -0.538917
C189  C     C_3   0.877174 0.086193 0.050829 -0.244684
H69   H     H_    0.886240 0.103647 0.077225 0.198225
H70   H     H_    0.849410 0.104717 0.037750 0.152312
H71   H     H_    0.906547 0.087082 0.032222 0.117210
O62   O     O_3   0.963938 0.862756 0.060056 -0.549895
C190  C     C_3   0.994058 0.864194 0.090467 -0.161381
H72   H     H_    0.000584 0.830665 0.101825 0.163660
H73   H     H_    0.979363 0.884056 0.113481 0.199288
H74   H     H_    0.025891 0.880240 0.082422 0.133174
O63   O     O_3   0.134261 0.957836 0.059856 -0.538917
C191  C     C_3   0.122825 0.913807 0.050830 -0.244680
H75   H     H_    0.113759 0.896353 0.077225 0.198225
H76   H     H_    0.150590 0.895283 0.037750 0.152312
H77   H     H_    0.093453 0.912918 0.032222 0.117209
O64   O     O_3   0.036061 0.137244 0.060056 -0.549895
C192  C     C_3   0.005941 0.135805 0.090467 -0.161379
H78   H     H_    0.974109 0.119760 0.082422 0.133174
H79   H     H_    0.999416 0.169335 0.101825 0.163660
H80   H     H_    0.020637 0.115944 0.113481 0.199287

loop_
_geom_bond_atom_site_label_1
_geom_bond_atom_site_label_2
_ccdc_geom_bond_type
O3    Zn3   S    
O57   C185  S    
C36   I44   S    
C23   C155  A    
C186  H61   S    
C62   C77   S    
C14   C170  A    
C42   C58   A    
O53   C181  S    
C112  H8    S    
C180  H42   S    
C13   C173  A    
O46   Zn12  S    
C118  C128  A    
C85   O25   A    
C57   C76   S    
C32   C66   A    
O42   Zn11  S    
C112  C124  A    
C37   C69   A    
C138  C143  T    
C139  C142  T    
C98   C114  A    
O47   Zn12  S    
C61   C80   S    
C3    O7    A    
C89   C129  A    
O60   C188  S    
C154  C170  A    
C185  H59   S    
O34   Zn9   S    
O39   Zn10  S    
C158  C174  A    
C5    O9    A    
C31   I39   S    
C173  I29   S    
C175  I31   S    
C4    C12   S    
C84   O22   A    
C5    C13   S    
C33   C69   A    
C107  H3    S    
C7    C15   S    
O48   Zn12  S    
C35   C71   A    
C8    C16   S    
C53   O61   S    
C11   C167  A    
C76   O40   A    
C18   C152  A    
C187  H63   S    
C184  H55   S    
C153  H25   S    
C4    O6    A    
C26   I34   S    
C178  H36   S    
C91   C107  A    
C87   O31   A    
C140  C141  T    
C188  H68   S    
C25   C41   A    
C50   O58   S    
O54   C182  S    
O64   C192  S    
C82   O20   A    
C28   C44   A    
C94   C132  A    
C29   C45   A    
C148  C164  A    
C92   C130  A    
C7    O15   A    
O44   Zn11  S    
O1    Zn1   S    
C45   C57   A    
O56   C184  S    
C79   O45   A    
C54   O62   S    
C170  I26   S    
C73   O39   A    
C162  I18   S    
C168  I24   S    
C81   C128  S    
C49   O57   S    
C78   O42   A    
C64   C79   S    
O33   Zn9   S    
O2    Zn2   S    
C83   C126  S    
O63   C191  S    
C130  C138  S    
O43   Zn11  S    
O25   Zn5   S    
C180  H44   S    
C80   O48   A    
C177  H35   S    
C46   C60   A    
C38   I46   S    
C20   C68   S    
O35   Zn9   S    
C105  H1    S    
C87   C122  S    
C159  H31   S    
C91   C129  A    
C192  H78   S    
C30   I38   S    
C145  C161  A    
C74   O38   A    
C183  H51   S    
C33   I41   S    
C84   O24   A    
C3    C11   S    
C35   I43   S    
C74   O34   A    
C2    O8    A    
C129  C137  S    
C10   C168  A    
C21   C153  A    
C189  H69   S    
C167  I23   S    
C187  H65   S    
C24   C156  A    
C97   C133  A    
C39   I47   S    
C82   O18   A    
C152  H24   S    
C40   C70   A    
C8    O12   A    
C28   C68   A    
C55   O63   S    
C114  C126  A    
C151  C167  A    
C6    C14   S    
O58   C186  S    
C150  C166  A    
O36   Zn9   S    
C97   I9    S    
C177  H34   S    
C47   O55   S    
C92   C108  A    
C191  H75   S    
C55   C63   A    
C19   C151  A    
C20   C148  A    
C85   O27   A    
C36   C52   A    
C43   C59   A    
C37   C53   A    
C135  C143  S    
C88   O30   A    
O32   Zn8   S    
C155  H27   S    
C111  H7    S    
C100  C134  A    
C101  C135  A    
C3    O3    A    
C192  H80   S    
C38   C72   A    
O9    Zn5   S    
C1    O1    A    
C26   C66   A    
C149  C165  A    
O52   C180  S    
C42   O50   S    
C109  C123  A    
C47   C59   A    
C156  C172  A    
C183  H53   S    
C86   O28   A    
C174  I30   S    
C21   C69   S    
C178  H37   S    
C185  H58   S    
C93   I5    S    
C160  H32   S    
C115  H11   S    
C113  H9    S    
C106  C122  A    
C11   C163  A    
C9    C161  A    
C117  H13   S    
C29   C65   A    
C137  C144  T    
C181  H46   S    
C182  H49   S    
C96   I8    S    
C186  H62   S    
C146  H18   S    
C8    O14   A    
C45   O53   S    
C16   C174  A    
C39   C71   A    
C104  C136  A    
C145  H17   S    
C30   C46   A    
C179  H39   S    
O20   Zn4   S    
C18   C66   S    
C181  H47   S    
C101  I13   S    
O7    Zn1   S    
C190  H74   S    
C147  C163  A    
C22   C160  A    
C191  H77   S    
O10   Zn6   S    
C20   C150  A    
C131  C139  S    
O26   Zn6   S    
C54   C64   A    
C10   C162  A    
C80   O44   A    
C89   C105  A    
O31   Zn5   S    
O38   Zn10  S    
C22   C70   S    
C36   C72   A    
C93   C109  A    
C63   C78   S    
C119  C127  A    
O62   C190  S    
C87   O29   A    
O29   Zn7   S    
C100  C116  A    
O18   Zn2   S    
C187  H64   S    
C184  H54   S    
O16   Zn8   S    
C90   I2    S    
C146  C162  A    
C24   C72   S    
C86   O26   A    
C34   I42   S    
C188  H67   S    
C99   C115  A    
C92   I4    S    
C33   C49   A    
C88   O32   A    
C95   I7    S    
C43   O51   S    
O14   Zn6   S    
C6    O10   A    
C39   C55   A    
O59   C187  S    
C40   C56   A    
O27   Zn7   S    
C186  H60   S    
C19   C67   S    
C34   C70   A    
C6    O16   A    
O50   C178  S    
C31   C47   A    
C95   C131  A    
C32   C48   A    
C179  H41   S    
C154  H26   S    
C2    O2    A    
C180  H43   S    
O45   Zn12  S    
C163  I19   S    
C49   C61   A    
C164  I20   S    
C111  C123  A    
C158  H30   S    
C23   C71   S    
C1    C9    S    
C90   C106  A    
C98   I10   S    
O55   C183  S    
C83   O21   A    
C94   C110  A    
C19   C147  A    
C46   O54   S    
C17   C145  A    
C134  C142  S    
O23   Zn1   S    
C38   C54   A    
C41   O49   S    
C183  H52   S    
C51   C63   A    
C27   C67   A    
C117  C127  A    
C59   C74   S    
O28   Zn8   S    
C1    O5    A    
O30   Zn6   S    
C77   O41   A    
C107  C121  A    
C189  H70   S    
O15   Zn5   S    
C184  H56   S    
C83   O23   A    
C165  I21   S    
C172  I28   S    
C84   C125  S    
C44   O52   S    
C32   I40   S    
C176  I32   S    
C79   O43   A    
C88   C121  S    
O13   Zn7   S    
C169  I25   S    
C94   I6    S    
C120  C128  A    
C48   C58   A    
C171  I27   S    
C132  C140  S    
C60   C75   S    
C133  C141  S    
C114  H10   S    
C101  C117  A    
C189  H71   S    
C9    C165  A    
C41   C57   A    
O51   C179  S    
C136  C144  S    
C104  I16   S    
C118  H14   S    
O41   Zn11  S    
C44   C60   A    
C113  C125  A    
C96   C112  A    
O4    Zn4   S    
C26   C42   A    
C102  C136  A    
C31   C67   A    
C90   C130  A    
O11   Zn7   S    
C27   C43   A    
C73   O33   A    
C110  H6    S    
C191  H76   S    
O24   Zn4   S    
C153  C169  A    
C93   C131  A    
C150  H22   S    
C30   C68   A    
C157  C173  A    
C104  C120  A    
C5    O13   A    
C182  H48   S    
C52   C64   A    
C102  I14   S    
O37   Zn10  S    
C116  H12   S    
C108  H4    S    
C81   O17   A    
O49   C177  S    
C89   I1    S    
C76   O36   A    
C119  H15   S    
C157  H29   S    
C91   I3    S    
C120  H16   S    
C12   C166  A    
C24   C158  A    
C12   C164  A    
C25   I33   S    
C99   C133  A    
C85   C124  S    
C27   I35   S    
C103  C135  A    
C28   I36   S    
C48   O56   S    
C14   C176  A    
C148  H20   S    
O22   Zn2   S    
C51   O59   S    
C147  H19   S    
C102  C118  A    
O19   Zn3   S    
C96   C132  A    
C7    O11   A    
C116  C126  A    
O5    Zn3   S    
C160  C176  A    
O12   Zn8   S    
C53   C61   A    
C103  I15   S    
C161  I17   S    
C34   C50   A    
C15   C171  A    
C78   O46   A    
C151  H23   S    
C25   C65   A    
C179  H40   S    
C37   I45   S    
C23   C159  A    
C192  H79   S    
C190  H73   S    
C177  H33   S    
C40   I48   S    
C152  C168  A    
C16   C172  A    
C105  C121  A    
C29   I37   S    
O61   C189  S    
C103  C119  A    
C109  H5    S    
O21   Zn3   S    
O40   Zn10  S    
C50   C62   A    
O8    Zn4   S    
C97   C113  A    
C2    C10   S    
C22   C154  A    
C81   O19   A    
C21   C157  A    
C17   C149  A    
C108  C122  A    
C18   C146  A    
C75   O37   A    
C98   C134  A    
C17   C65   S    
C115  C125  A    
C15   C175  A    
C178  H38   S    
O17   Zn1   S    
C95   C111  A    
C188  H66   S    
C35   C51   A    
C4    O4    A    
C13   C169  A    
C56   O64   S    
C106  H2    S    
C56   C62   A    
C52   O60   S    
C185  H57   S    
C82   C127  S    
C75   O35   A    
C99   I11   S    
C155  C171  A    
C166  I22   S    
C181  H45   S    
C182  H50   S    
C86   C123  S    
O6    Zn2   S    
C159  C175  A    
C110  C124  A    
C77   O47   A    
C156  H28   S    
C100  I12   S    
C190  H72   S    
C58   C73   S    
C149  H21   S    
