data_mof_unit_12711.cif
_audit_creation_date              2013-03-05T15:44:23-0500
_audit_creation_method            fapswitch 2.2
_symmetry_space_group_name_H-M    P1
_symmetry_Int_Tables_number       1
_space_group_crystal_system       triclinic
_cell_length_a                    18.933188
_cell_length_b                    10.943214
_cell_length_c                    18.78691
_cell_angle_alpha                 90.105866
_cell_angle_beta                  90.391822
_cell_angle_gamma                 89.86534
_cell_volume                      3892.35023279

loop_
_atom_site_label
_atom_site_type_symbol
_atom_site_description
_atom_site_fract_x
_atom_site_fract_y
_atom_site_fract_z
_atom_type_partial_charge
O1    O     O_R   0.784320 0.290430 0.830510 -0.517497
O2    O     O_R   0.215680 0.290430 0.169490 -0.476237
O3    O     O_R   0.284320 0.790430 0.830510 -0.483778
O4    O     O_R   0.715680 0.790430 0.169490 -0.508775
O5    O     O_R   0.762640 0.040960 0.825200 -0.482011
O6    O     O_R   0.237360 0.040960 0.174800 -0.493389
O7    O     O_R   0.262640 0.540960 0.825200 -0.497463
O8    O     O_R   0.737360 0.540960 0.174800 -0.475319
C1    C     C_R   0.729018 0.950588 0.851422 0.572703
C2    C     C_R   0.270898 0.949928 0.148305 0.575220
C3    C     C_R   0.229096 0.450102 0.851722 0.565909
C4    C     C_R   0.770960 0.450379 0.148626 0.592311
O9    O     O_R   0.667400 0.923970 0.829950 -0.431073
O10   O     O_R   0.332600 0.923970 0.170050 -0.420496
O11   O     O_R   0.167400 0.423970 0.829950 -0.424706
O12   O     O_R   0.832600 0.423970 0.170050 -0.422904
O13   O     O_R   0.553960 0.081340 0.821780 -0.436685
O14   O     O_R   0.446040 0.081340 0.178220 -0.436468
O15   O     O_R   0.053960 0.581340 0.821780 -0.441935
O16   O     O_R   0.946040 0.581340 0.178220 -0.431205
C5    C     C_R   0.529834 0.177678 0.850762 0.574819
C6    C     C_R   0.469683 0.177289 0.148916 0.582299
C7    C     C_R   0.030242 0.677585 0.851029 0.569820
C8    C     C_R   0.970088 0.677377 0.149183 0.586844
O17   O     O_R   0.543180 0.283240 0.826740 -0.444072
O18   O     O_R   0.456820 0.283240 0.173260 -0.432576
O19   O     O_R   0.043180 0.783240 0.826740 -0.440379
O20   O     O_R   0.956820 0.783240 0.173260 -0.434560
O21   O     O_R   0.678360 0.375140 0.822710 -0.420670
O22   O     O_R   0.321640 0.375140 0.177290 -0.394811
O23   O     O_R   0.178360 0.875140 0.822710 -0.402133
O24   O     O_R   0.821640 0.875140 0.177290 -0.410184
C9    C     C_R   0.735791 0.355201 0.856483 0.577433
C10   C     C_R   0.276029 0.312872 0.139700 0.560682
C11   C     C_R   0.223934 0.812722 0.860273 0.560129
C12   C     C_R   0.764263 0.854777 0.143483 0.587871
O25   O     O_R   0.785050 0.289380 0.670560 -0.467390
O26   O     O_R   0.214950 0.289380 0.329440 -0.465007
O27   O     O_R   0.285050 0.789380 0.670560 -0.467700
O28   O     O_R   0.714950 0.789380 0.329440 -0.481483
O29   O     O_R   0.763320 0.039990 0.676930 -0.433821
O30   O     O_R   0.236680 0.039990 0.323070 -0.446707
O31   O     O_R   0.263320 0.539990 0.676930 -0.435944
O32   O     O_R   0.736680 0.539990 0.323070 -0.419615
C13   C     C_R   0.728666 0.954692 0.647839 0.563617
C14   C     C_R   0.271787 0.954247 0.352288 0.571396
C15   C     C_R   0.229099 0.453784 0.648233 0.566516
C16   C     C_R   0.789229 0.499325 0.360411 0.537317
O33   O     O_R   0.668130 0.922920 0.670000 -0.481468
O34   O     O_R   0.331870 0.922920 0.330000 -0.496550
O35   O     O_R   0.168130 0.422920 0.670000 -0.470598
O36   O     O_R   0.831870 0.422920 0.330000 -0.451874
O37   O     O_R   0.554640 0.080370 0.673500 -0.457872
O38   O     O_R   0.445360 0.080370 0.326500 -0.468269
O39   O     O_R   0.054640 0.580370 0.673500 -0.456475
O40   O     O_R   0.945360 0.580370 0.326500 -0.492321
C17   C     C_R   0.526686 0.174960 0.646720 0.561597
C18   C     C_R   0.468417 0.176546 0.356963 0.571115
C19   C     C_R   0.027556 0.674385 0.646116 0.552991
C20   C     C_R   0.968671 0.676749 0.356607 0.565816
O41   O     O_R   0.543920 0.282180 0.666790 -0.474826
O42   O     O_R   0.456080 0.282180 0.333210 -0.494501
O43   O     O_R   0.043920 0.782180 0.666790 -0.476944
O44   O     O_R   0.956080 0.782180 0.333210 -0.488428
O45   O     O_R   0.679040 0.374160 0.674430 -0.438178
O46   O     O_R   0.320960 0.374160 0.325570 -0.452629
O47   O     O_R   0.179040 0.874160 0.674430 -0.434074
O48   O     O_R   0.820960 0.874160 0.325570 -0.456454
C21   C     C_R   0.739466 0.363631 0.646577 0.573210
C22   C     C_R   0.262285 0.356177 0.356111 0.598454
C23   C     C_R   0.238808 0.861052 0.645473 0.583082
C24   C     C_R   0.761554 0.858519 0.355291 0.580164
Cr1   Cr    Cr6+3 0.769270 0.163730 0.750710 1.165196
Cr2   Cr    Cr6+3 0.230730 0.163730 0.249290 1.172701
Cr3   Cr    Cr6+3 0.269270 0.663730 0.750710 1.166283
Cr4   Cr    Cr6+3 0.730730 0.663730 0.249290 1.168868
Cr5   Cr    Cr6+3 0.612620 0.009790 0.748780 1.199207
Cr6   Cr    Cr6+3 0.387380 0.009790 0.251220 1.186993
Cr7   Cr    Cr6+3 0.112620 0.509790 0.748780 1.193813
Cr8   Cr    Cr6+3 0.887380 0.509790 0.251220 1.195179
Cr9   Cr    Cr6+3 0.614160 0.322500 0.747710 1.202940
Cr10  Cr    Cr6+3 0.385840 0.322500 0.252290 1.205906
Cr11  Cr    Cr6+3 0.114160 0.822500 0.747710 1.207185
Cr12  Cr    Cr6+3 0.885840 0.822500 0.252290 1.202670
O49   O     O_3   0.665350 0.165340 0.749070 -0.338847
O50   O     O_3   0.334650 0.165340 0.250930 -0.371582
O51   O     O_3   0.165350 0.665340 0.749070 -0.359944
O52   O     O_3   0.834650 0.665340 0.250930 -0.373061
C25   C     C_2   0.497077 0.168533 0.920690 -0.113434
C26   C     C_2   0.500932 0.166737 0.078308 -0.109850
C27   C     C_2   0.998620 0.667667 0.921465 -0.112924
C28   C     C_2   0.002508 0.667546 0.079101 -0.111614
C29   C     C_2   0.488180 0.068457 0.036838 0.361143
C30   C     C_2   0.505368 0.068014 0.961084 0.368248
C31   C     C_2   0.992531 0.568033 0.038068 0.366844
C32   C     C_2   0.009771 0.568283 0.962337 0.362036
H1    H     H_    0.526408 0.247092 0.056403 0.119327
H2    H     H_    0.474379 0.251158 0.943285 0.118753
H3    H     H_    0.026357 0.749244 0.056985 0.116345
H4    H     H_    0.974200 0.748993 0.943810 0.121790
C33   C     C_R   0.683529 0.431987 0.970924 0.367952
C34   C     C_R   0.325644 0.400425 0.025639 0.361974
C35   C     C_R   0.174254 0.900532 0.974469 0.362654
C36   C     C_R   0.816496 0.931336 0.029180 0.366267
C37   C     C_R   0.686378 0.438989 0.045607 0.138268
C38   C     C_R   0.318115 0.424002 0.952122 0.135945
C39   C     C_R   0.181829 0.924160 0.048001 0.134227
C40   C     C_R   0.813634 0.938568 0.954491 0.141269
C41   C     C_R   0.747193 0.394713 0.081374 -0.056361
C42   C     C_R   0.255440 0.386419 0.916672 -0.054239
C43   C     C_R   0.244554 0.886198 0.083349 -0.053873
C44   C     C_R   0.752791 0.894898 0.918641 -0.055471
C45   C     C_R   0.795946 0.321332 0.044345 0.141325
C46   C     C_R   0.211005 0.300643 0.950605 0.159529
C47   C     C_R   0.289033 0.800149 0.049274 0.159824
C48   C     C_R   0.704077 0.821752 0.955528 0.142531
C49   C     C_R   0.795257 0.323098 0.970909 -0.174755
C50   C     C_R   0.218923 0.279588 0.023110 -0.172359
C51   C     C_R   0.281054 0.779006 0.976753 -0.171563
C52   C     C_R   0.704793 0.823323 0.028973 -0.176678
H5    H     H_    0.835856 0.271707 0.943637 0.230583
H6    H     H_    0.182709 0.217860 0.048999 0.213614
H7    H     H_    0.317320 0.717082 0.950727 0.214037
H8    H     H_    0.664243 0.772162 0.056138 0.230316
C53   C     C_R   0.740331 0.380468 0.933079 -0.054446
C54   C     C_R   0.273018 0.335339 0.062238 -0.062545
C55   C     C_R   0.226890 0.835077 0.937759 -0.061350
C56   C     C_R   0.759699 0.880174 0.066929 -0.056985
C57   C     C_R   0.470946 0.269111 0.545157 -0.146562
C58   C     C_R   0.470220 0.274085 0.472631 -0.136024
C59   C     C_R   0.967740 0.763175 0.545578 -0.155648
C60   C     C_R   0.965176 0.769982 0.473158 -0.144649
H9    H     H_    0.462302 0.353052 0.574637 0.216679
H10   H     H_    0.456000 0.360844 0.448760 0.228202
H11   H     H_    0.954911 0.844124 0.576316 0.208243
H12   H     H_    0.945284 0.854211 0.450301 0.223445
C61   C     C_R   0.486265 0.169943 0.431892 -0.016787
C62   C     C_R   0.490557 0.161288 0.578934 -0.026964
C63   C     C_R   0.986951 0.670656 0.431113 -0.017998
C64   C     C_R   0.993311 0.657810 0.577710 -0.029728
C65   C     C_R   0.500219 0.057074 0.465308 0.168258
C66   C     C_R   0.497026 0.050935 0.539833 0.169565
C67   C     C_R   0.008354 0.560108 0.462522 0.151914
C68   C     C_R   0.006154 0.550056 0.536972 0.153771
C69   C     C_R   0.819981 0.411775 0.549021 -0.152740
C70   C     C_R   0.217790 0.301982 0.473770 -0.159713
C71   C     C_R   0.305603 0.852921 0.535544 -0.148256
C72   C     C_R   0.711243 0.813322 0.471457 -0.170863
H13   H     H_    0.863360 0.375526 0.579759 0.246886
H14   H     H_    0.187484 0.228508 0.450322 0.244980
H15   H     H_    0.348983 0.808299 0.562882 0.273085
H16   H     H_    0.677847 0.744354 0.447645 0.249375
C73   C     C_R   0.831109 0.440031 0.478512 -0.181509
C74   C     C_R   0.216966 0.314653 0.546822 -0.165110
C75   C     C_R   0.307614 0.856413 0.462797 -0.151627
C76   C     C_R   0.710931 0.823861 0.544357 -0.183417
H17   H     H_    0.883355 0.429555 0.457021 0.205578
H18   H     H_    0.184602 0.253491 0.577959 0.235439
H19   H     H_    0.353171 0.816766 0.437148 0.259929
H20   H     H_    0.676561 0.764808 0.574661 0.227862
C77   C     C_R   0.774794 0.475971 0.435169 -0.043153
C78   C     C_R   0.252307 0.412169 0.578575 -0.040325
C79   C     C_R   0.254532 0.916603 0.424234 -0.037928
C80   C     C_R   0.749941 0.916051 0.577182 -0.046835
C81   C     C_R   0.706989 0.490551 0.464526 0.391056
C82   C     C_R   0.297793 0.485542 0.537579 0.381438
C83   C     C_R   0.195008 0.962576 0.459639 0.380417
C84   C     C_R   0.796513 0.988380 0.536676 0.388485
C85   C     C_R   0.696137 0.464950 0.535994 0.390595
C86   C     C_R   0.299732 0.471200 0.464148 0.383189
C87   C     C_R   0.191240 0.953946 0.533490 0.378720
C88   C     C_R   0.798875 0.974187 0.463222 0.390519
C89   C     C_R   0.752446 0.421015 0.578039 -0.040088
C90   C     C_R   0.257157 0.382554 0.431644 -0.023963
C91   C     C_R   0.247119 0.899051 0.571894 -0.051293
C92   C     C_R   0.754617 0.888658 0.430125 -0.028955
F1    F     F_    0.459080 0.964902 0.063653 -0.527806
F2    F     F_    0.529603 0.961409 0.933040 -0.521533
F3    F     F_    0.966355 0.462655 0.065392 -0.524458
F4    F     F_    0.037145 0.463388 0.934906 -0.525610
F5    F     F_    0.650344 0.522859 0.423938 -0.549874
F6    F     F_    0.337558 0.575005 0.567648 -0.578741
F7    F     F_    0.141086 0.016072 0.423158 -0.550329
F8    F     F_    0.836824 0.076989 0.567090 -0.550662
F9    F     F_    0.629623 0.474601 0.562090 -0.554506
F10   F     F_    0.341562 0.545590 0.424982 -0.569122
F11   F     F_    0.132777 0.997007 0.566775 -0.551151
F12   F     F_    0.842860 0.045646 0.424611 -0.542022
F13   F     F_    0.624131 0.468400 0.935990 -0.510987
F14   F     F_    0.384740 0.437737 0.060683 -0.523889
F15   F     F_    0.115141 0.938244 0.939504 -0.523101
F16   F     F_    0.875909 0.967140 0.064211 -0.511629
N1    N     N_R   0.626342 0.482580 0.085031 0.102212
O53   O     O_R   0.582933 0.562109 0.057508 -0.155202
O54   O     O_R   0.610263 0.432198 0.145497 -0.295376
N2    N     N_R   0.375551 0.477310 0.913053 0.092035
O55   O     O_R   0.389858 0.437653 0.849388 -0.309413
O56   O     O_R   0.420567 0.549580 0.944313 -0.148558
N3    N     N_R   0.124442 0.978152 0.087148 0.092099
O57   O     O_R   0.110024 0.938635 0.150707 -0.292720
O58   O     O_R   0.079616 0.051141 0.056044 -0.148531
N4    N     N_R   0.873724 0.981466 0.915126 0.101921
O59   O     O_R   0.917856 0.058960 0.943191 -0.152935
O60   O     O_R   0.889334 0.931646 0.854244 -0.316217
N5    N     N_R   0.846012 0.244342 0.080920 0.146391
O61   O     O_R   0.826907 0.183916 0.137199 -0.260669
O62   O     O_R   0.909120 0.227750 0.055675 -0.113923
N6    N     N_R   0.158409 0.232689 0.911944 0.141168
O63   O     O_R   0.174829 0.178529 0.852559 -0.275739
O64   O     O_R   0.096493 0.213953 0.939388 -0.122342
N7    N     N_R   0.341809 0.732195 0.087790 0.141117
O65   O     O_R   0.325591 0.678307 0.147159 -0.262740
O66   O     O_R   0.403789 0.713505 0.060330 -0.121571
N8    N     N_R   0.654084 0.745005 0.918806 0.146682
O67   O     O_R   0.673312 0.684119 0.862550 -0.280707
O68   O     O_R   0.590952 0.728947 0.943966 -0.114201
N9    N     N_R   0.519093 0.951393 0.423959 0.112108
O69   O     O_R   0.484859 0.849281 0.430828 -0.249213
O70   O     O_R   0.569282 0.958594 0.377185 -0.296334
N10   N     N_R   0.501827 0.935250 0.575803 0.111240
O71   O     O_R   0.550487 0.856409 0.559263 -0.249102
O72   O     O_R   0.459176 0.910850 0.627888 -0.316555
N11   N     N_R   0.032993 0.460795 0.418868 0.108706
O73   O     O_R   0.001815 0.355000 0.420121 -0.223408
O74   O     O_R   0.082736 0.479717 0.372755 -0.297478
N12   N     N_R   0.018625 0.433665 0.570826 0.111365
O75   O     O_R   0.066362 0.358999 0.547051 -0.245028
O76   O     O_R   0.981241 0.400557 0.625323 -0.313880

loop_
_geom_bond_atom_site_label_1
_geom_bond_atom_site_label_2
_geom_bond_distance
_ccdc_geom_bond_type
O1    Cr1   2.059008 S    
C18   O42   1.260624 A    
Cr11  O51   1.972259 S    
O4    C12   1.261397 A    
O47   Cr11  1.937293 S    
C29   C30   1.462088 S    
O39   C19   1.257768 A    
O20   Cr12  2.053590 S    
O37   Cr5   1.944376 S    
C31   C32   1.461893 S    
C82   F6    1.356467 S    
C44   C48   1.409207 A    
C51   H7    1.082096 S    
N10   O72   1.301415 A    
O1    C9    1.259564 A    
O27   Cr3   2.064707 S    
C5    C25   1.460307 S    
N5    O61   1.301892 A    
C60   C63   1.405178 A    
O7    C3    1.284260 A    
C88   C92   1.399725 A    
C39   N3    1.441111 S    
C72   C92   1.404009 A    
N4    O60   1.301689 A    
N11   O74   1.301202 A    
O24   C12   1.274499 A    
C13   C80   1.451734 S    
C74   H18   1.083471 S    
C33   F13   1.357577 S    
C73   H17   1.076768 S    
C30   F2    1.359266 S    
Cr3   O51   1.967605 S    
C71   C91   1.397746 A    
C9    C53   1.466801 S    
C67   C68   1.404109 A    
C36   F16   1.357573 S    
O21   C9    1.273767 A    
O8    Cr4   1.942636 S    
O23   Cr11  1.942035 S    
C50   H6    1.082102 S    
C25   C30   1.345794 D    
O32   Cr4   1.942078 S    
C1    O9    1.266215 A    
N10   O71   1.299578 A    
C69   H13   1.076195 S    
C40   N4    1.441163 S    
C59   C64   1.387169 A    
C65   N9    1.437762 S    
C27   C32   1.347884 D    
C70   H14   1.080354 S    
C15   C78   1.455263 S    
C3    O11   1.268136 A    
O11   Cr7   2.064510 S    
C57   C62   1.389339 A    
C4    O12   1.264886 A    
C46   N6    1.436588 S    
N6    O63   1.301565 A    
C84   F8    1.358208 S    
C70   C74   1.379339 A    
C33   C53   1.409277 A    
C43   C47   1.416716 A    
C7    O19   1.268803 A    
C27   H4    1.086912 S    
C71   C75   1.368083 A    
C85   F9    1.358318 S    
Cr4   O52   1.967687 S    
C26   H1    1.086887 S    
O47   C23   1.266652 A    
O2    Cr2   2.061836 S    
O8    C4    1.276152 A    
C69   C73   1.378514 A    
C10   C54   1.477037 S    
O2    C10   1.299852 A    
C1    C44   1.470556 S    
C64   C68   1.425905 A    
O42   Cr10  2.060684 S    
Cr5   O49   1.975386 S    
N3    O57   1.301630 A    
O18   Cr10  2.053590 S    
C78   C82   1.412150 A    
C3    C42   1.488801 S    
O31   Cr3   1.938873 S    
C68   N12   1.442949 S    
C12   C56   1.467240 S    
C21   C89   1.456282 S    
O34   Cr6   2.056681 S    
Cr7   O51   1.975386 S    
C4    C41   1.469885 S    
O6    Cr2   1.942636 S    
O35   Cr7   2.051864 S    
N5    O62   1.300767 A    
C81   C85   1.388841 A    
O24   Cr12  1.941886 S    
O9    Cr5   2.064510 S    
O30   Cr2   1.942078 S    
C33   C37   1.405682 A    
N4    O59   1.300371 A    
O22   C10   1.304391 A    
C75   H19   1.080545 S    
O48   Cr12  1.934122 S    
C8    O20   1.268082 A    
C80   C84   1.413436 A    
N11   O73   1.301091 A    
N2    O56   1.300540 A    
C62   C66   1.417824 A    
O16   Cr8   1.938118 S    
N8    O67   1.301908 A    
C83   C87   1.393152 A    
C16   C77   1.455818 S    
O26   Cr2   2.060060 S    
N1    O54   1.301879 A    
N9    O69   1.300202 A    
Cr10  O50   1.976146 S    
C87   C91   1.410286 A    
C28   C31   1.346012 D    
O13   C5    1.271052 A    
C40   C44   1.414128 A    
C73   C77   1.393515 A    
O48   C24   1.271206 A    
O12   Cr8   2.064165 S    
C45   N5    1.438758 S    
O22   Cr10  1.941886 S    
N1    O53   1.301065 A    
O15   C7    1.269605 A    
O5    C1    1.278677 A    
C15   O35   1.273810 A    
O46   Cr10  1.934122 S    
O39   Cr7   1.944376 S    
O25   C21   1.265240 A    
C59   H11   1.084534 S    
O45   Cr9   1.937293 S    
N7    O65   1.301556 A    
C36   C56   1.409791 A    
O3    C11   1.298542 A    
C79   C83   1.404259 A    
C60   H12   1.083264 S    
Cr1   O49   1.967605 S    
C86   F10   1.358143 S    
O13   Cr5   1.933956 S    
C13   O33   1.271528 A    
C6    C26   1.460413 S    
C2    C43   1.488125 S    
O29   C13   1.263557 A    
Cr2   O50   1.967687 S    
C11   C55   1.476402 S    
C22   C90   1.451423 S    
C66   N10   1.438518 S    
C46   C50   1.388958 A    
C45   C49   1.379777 A    
C18   C61   1.447321 S    
C48   N8    1.438717 S    
O26   C22   1.258635 A    
N7    O66   1.300684 A    
C69   C89   1.396821 A    
O21   Cr9   1.942035 S    
C57   H9    1.084418 S    
O31   C15   1.263565 A    
N12   O76   1.301132 A    
C14   C79   1.453310 S    
O30   C14   1.271816 A    
O38   C18   1.273713 A    
C8    C28   1.460155 S    
C7    C27   1.460460 S    
C19   O43   1.279348 A    
C35   F15   1.357643 S    
C49   H5    1.082553 S    
C59   C60   1.363244 A    
C86   C90   1.399438 A    
C42   C46   1.417218 A    
C36   C40   1.406230 A    
C35   C55   1.409269 A    
O3    Cr3   2.059008 S    
C26   C29   1.348150 D    
O14   Cr6   1.938118 S    
C57   C58   1.363699 A    
C38   C42   1.418200 A    
O25   Cr1   2.064707 S    
C31   F3    1.359143 S    
C5    O17   1.267607 A    
O37   C17   1.265080 A    
O28   C24   1.258092 A    
C38   N2    1.441197 S    
O14   C6    1.270303 A    
C39   C43   1.418406 A    
C74   C78   1.392086 A    
C72   H16   1.080121 S    
N2    O55   1.301634 A    
C34   C54   1.409720 A    
O17   Cr9   2.056060 S    
O6    C2    1.281741 A    
O7    Cr3   1.946615 S    
C52   C56   1.402649 A    
C17   O41   1.274293 A    
C63   C67   1.404614 A    
C76   H20   1.083332 S    
C41   C45   1.408561 A    
N9    O70   1.301297 A    
C72   C76   1.374255 A    
C14   O34   1.261365 A    
C47   C51   1.388817 A    
O40   Cr8   1.944349 S    
C47   N7    1.436525 S    
C25   H2    1.087042 S    
C20   O44   1.257110 A    
C84   C88   1.389394 A    
C75   C79   1.399104 A    
C32   F4    1.360343 S    
O19   Cr11  2.056060 S    
N8    O68   1.300779 A    
C81   F5    1.358178 S    
Cr8   O52   1.971355 S    
O32   C16   1.292125 A    
O41   Cr9   2.060821 S    
C65   C66   1.403550 A    
C67   N11   1.439070 S    
C37   N1    1.440768 S    
Cr6   O50   1.971355 S    
O46   C22   1.269725 A    
Cr12  O52   1.976146 S    
C37   C41   1.414227 A    
C19   C64   1.446774 S    
C88   F12   1.358180 S    
O45   C21   1.266207 A    
C71   H15   1.081704 S    
C70   C90   1.404651 A    
C83   F7    1.357877 S    
C34   F14   1.357620 S    
C82   C86   1.388881 A    
O33   Cr5   2.051864 S    
C17   C62   1.449108 S    
C34   C38   1.411725 A    
O23   C11   1.303759 A    
O10   Cr6   2.064165 S    
O5    Cr1   1.946615 S    
C58   H10   1.083396 S    
C24   C92   1.450246 S    
C77   C81   1.409295 A    
C23   C91   1.453941 S    
O4    Cr4   2.061836 S    
C52   H8    1.082488 S    
C61   C65   1.410167 A    
C20   C63   1.441219 S    
O29   Cr1   1.938873 S    
C48   C52   1.379862 A    
C16   O36   1.295628 A    
O40   C20   1.274238 A    
C76   C80   1.392316 A    
O44   Cr12  2.060684 S    
N6    O64   1.300708 A    
N12   O75   1.297980 A    
C6    O18   1.269262 A    
O28   Cr4   2.060060 S    
O43   Cr11  2.060821 S    
N3    O58   1.300571 A    
C85   C89   1.406828 A    
C35   C39   1.411365 A    
C50   C54   1.397331 A    
C29   F1    1.360281 S    
O36   Cr8   2.056681 S    
C58   C61   1.405416 A    
C49   C53   1.403271 A    
C87   F11   1.358001 S    
O16   C8    1.271678 A    
Cr9   O49   1.972259 S    
O15   Cr7   1.933956 S    
C28   H3    1.087037 S    
C2    O10   1.266748 A    
O38   Cr6   1.944349 S    
O27   C23   1.263441 A    
C51   C55   1.397581 A    
