data_mof_unit_7955.cif
_audit_creation_date              2013-03-05T15:52:33-0500
_audit_creation_method            fapswitch 2.2
_symmetry_space_group_name_H-M    P1
_symmetry_Int_Tables_number       1
_space_group_crystal_system       triclinic
_cell_length_a                    6.951497
_cell_length_b                    20.455258
_cell_length_c                    24.424729
_cell_angle_alpha                 89.721242
_cell_angle_beta                  90.517807
_cell_angle_gamma                 89.47242
_cell_volume                      3472.7345623

loop_
_atom_site_label
_atom_site_type_symbol
_atom_site_description
_atom_site_fract_x
_atom_site_fract_y
_atom_site_fract_z
_atom_type_partial_charge
O1    O     O_R   0.507310 0.423620 0.460450 -0.591888
O2    O     O_R   0.170760 0.556060 0.437190 -0.593455
O3    O     O_R   0.004040 0.576380 0.539550 -0.592304
C1    C     C_R   0.338744 0.576204 0.421232 0.972886
O4    O     O_R   0.177350 0.422870 0.454070 -0.593280
O5    O     O_R   0.010680 0.442240 0.556560 -0.589819
C2    C     C_R   0.346210 0.398917 0.443439 0.921390
O6    O     O_R   0.500670 0.557760 0.443440 -0.593271
O7    O     O_3   0.340380 0.506510 0.533610 -0.260676
V1    V     V_3+5 0.064130 0.498790 0.493770 1.170162
O8    O     O_R   0.681170 0.443940 0.562810 -0.586054
C3    C     C_R   0.850936 0.423880 0.578674 0.991669
O9    O     O_R   0.674570 0.577130 0.545930 -0.578839
C4    C     C_R   0.842709 0.601045 0.556682 0.948162
V2    V     V_3+5 0.564560 0.501210 0.506230 1.185992
O10   O     O_3   0.838170 0.493490 0.466390 -0.279033
C5    C     C_R   0.973382 0.838313 0.910922 -0.104022
C6    C     C_R   0.846307 0.661870 0.588871 -0.133317
C7    C     C_R   0.997399 0.720511 0.907888 -0.126558
C8    C     C_R   0.008684 0.778609 0.937094 -0.173641
C9    C     C_R   0.931632 0.839688 0.854435 -0.213975
C10   C     C_R   0.921745 0.780874 0.823340 0.113214
C11   C     C_R   0.952664 0.721046 0.851686 0.120860
C12   C     C_R   0.882148 0.779164 0.765519 0.025276
C13   C     C_R   0.873952 0.717569 0.737285 -0.107469
C14   C     C_R   0.878402 0.659165 0.769391 0.346847
C15   C     C_R   0.929170 0.661718 0.824765 -0.319143
C16   C     C_R   0.846868 0.837025 0.735161 -0.135445
C17   C     C_R   0.807897 0.835503 0.679391 -0.203304
C18   C     C_R   0.814103 0.776914 0.650645 0.164912
C19   C     C_R   0.856457 0.717316 0.678384 0.138194
C20   C     C_R   0.780179 0.777850 0.593894 -0.166870
C21   C     C_R   0.790943 0.720499 0.563621 -0.165057
C22   C     C_R   0.885872 0.660779 0.645475 -0.147420
H1    H     H_    0.937505 0.616535 0.848125 0.178066
H2    H     H_    0.940692 0.615544 0.662535 0.149255
H3    H     H_    0.758121 0.721964 0.520175 0.109434
H4    H     H_    0.777513 0.881203 0.658200 0.159949
H5    H     H_    0.021423 0.674752 0.929562 0.115677
H6    H     H_    0.042065 0.776937 0.980503 0.105456
H7    H     H_    0.908285 0.887264 0.836371 0.116230
H8    H     H_    0.844806 0.884777 0.753446 0.156102
H9    H     H_    0.743307 0.823126 0.572903 0.124849
C23   C     C_3   0.744548 0.249860 0.796757 -0.353208
C24   C     C_3   0.102251 0.250694 0.788026 -0.512343
C25   C     C_3   0.082640 0.301608 0.740733 -0.357054
H10   H     H_    0.712578 0.348935 0.762973 0.178280
H11   H     H_    0.758896 0.278445 0.835216 0.153264
H12   H     H_    0.235518 0.221067 0.782361 0.198247
H13   H     H_    0.118422 0.276817 0.827652 0.189944
H14   H     H_    0.084021 0.351851 0.758001 0.190392
H15   H     H_    0.208669 0.297128 0.713181 0.168554
C26   C     C_1   0.863582 0.378164 0.624221 -0.252692
C27   C     C_3   0.924420 0.205183 0.789823 0.179374
C28   C     C_3   0.722036 0.297933 0.747504 -0.359078
C29   C     C_3   0.893910 0.291141 0.707731 0.303486
C30   C     C_3   0.896557 0.220247 0.685483 -0.504659
C31   C     C_3   0.912333 0.169245 0.733296 0.503418
C32   C     C_1   0.876496 0.339306 0.661922 -0.025596
C33   C     C_1   0.945312 0.158753 0.836822 0.023272
C34   C     C_1   0.960128 0.121034 0.875273 -0.228684
H16   H     H_    0.048520 0.141027 0.728090 0.030728
H17   H     H_    0.765016 0.212399 0.660163 0.221306
H18   H     H_    0.612649 0.220197 0.801153 0.210314
H19   H     H_    0.585062 0.287829 0.725334 0.183010
H20   H     H_    0.021128 0.213664 0.657660 0.152228
C35   C     C_3   0.591802 0.700290 0.265629 -0.390545
C36   C     C_3   0.237256 0.696541 0.245240 -0.396133
C37   C     C_3   0.264479 0.745925 0.197208 -0.389679
H21   H     H_    0.652384 0.722597 0.179488 0.154865
H22   H     H_    0.612177 0.649598 0.250249 0.153763
H23   H     H_    0.089795 0.702236 0.262058 0.154441
H24   H     H_    0.250215 0.645733 0.229529 0.154326
H25   H     H_    0.290470 0.718584 0.158657 0.153651
H26   H     H_    0.129756 0.774992 0.191142 0.152585
C38   C     C_1   0.475645 0.878280 0.124732 -0.282353
C39   C     C_3   0.388929 0.707695 0.291169 0.417109
C40   C     C_3   0.618982 0.749758 0.217658 -0.398535
C41   C     C_3   0.435358 0.792399 0.208897 0.419321
C42   C     C_3   0.393617 0.828645 0.263253 -0.393052
C43   C     C_3   0.366578 0.779213 0.311269 -0.390281
C44   C     C_1   0.460119 0.839823 0.162701 -0.101992
C45   C     C_1   0.364152 0.660263 0.337361 -0.101971
C46   C     C_1   0.348616 0.621790 0.375318 -0.282237
H27   H     H_    0.474534 0.789086 0.344050 0.154739
H28   H     H_    0.221651 0.786461 0.329382 0.153226
H29   H     H_    0.514345 0.862034 0.273212 0.154146
H30   H     H_    0.704364 0.708532 0.297486 0.152152
H31   H     H_    0.744198 0.781568 0.226763 0.151678
H32   H     H_    0.261483 0.859364 0.258530 0.153645
C47   C     C_R   0.472125 0.161806 0.088828 -0.096280
C48   C     C_R   0.352391 0.338206 0.411220 -0.099541
C49   C     C_R   0.531290 0.277833 0.094181 -0.177392
C50   C     C_R   0.523235 0.220527 0.063839 -0.165425
C51   C     C_R   0.429673 0.160625 0.145026 -0.247303
C52   C     C_R   0.440246 0.218403 0.177346 0.109621
C53   C     C_R   0.491704 0.277286 0.150432 0.186351
C54   C     C_R   0.404278 0.219842 0.235219 0.062103
C55   C     C_R   0.420376 0.280154 0.264841 0.062980
C56   C     C_R   0.471309 0.336977 0.235574 -0.199153
C57   C     C_R   0.505714 0.335383 0.179716 -0.240993
C58   C     C_R   0.353406 0.163015 0.264491 -0.198964
C59   C     C_R   0.319030 0.164609 0.320351 -0.236618
C60   C     C_R   0.332984 0.222710 0.349632 0.181165
C61   C     C_R   0.384377 0.281597 0.322713 0.110130
C62   C     C_R   0.293405 0.222166 0.405884 -0.170121
C63   C     C_R   0.301380 0.279480 0.436219 -0.159493
C64   C     C_R   0.394846 0.339384 0.355024 -0.246771
H33   H     H_    0.545024 0.380378 0.159182 0.131138
H34   H     H_    0.430754 0.386262 0.337860 0.100590
H35   H     H_    0.266384 0.278128 0.479351 0.114266
H36   H     H_    0.279780 0.119609 0.340889 0.133400
H37   H     H_    0.571326 0.322744 0.073675 0.117442
H38   H     H_    0.558234 0.221881 0.020706 0.108624
H39   H     H_    0.393662 0.113752 0.162183 0.100790
H40   H     H_    0.486585 0.383972 0.254659 0.129526
H41   H     H_    0.338194 0.116015 0.245408 0.129910
H42   H     H_    0.253432 0.177252 0.426396 0.123816
O11   O     O_R   0.323590 0.942280 0.056590 -0.591714
O12   O     O_R   0.647030 0.077140 0.045940 -0.593652
O13   O     O_R   0.813570 0.057750 0.943430 -0.580733
C65   C     C_R   0.478204 0.101106 0.056596 0.921063
O14   O     O_R   0.653510 0.943950 0.062820 -0.593393
O15   O     O_R   0.820100 0.923600 0.960440 -0.586840
C66   C     C_R   0.485518 0.923838 0.078798 0.973408
O16   O     O_R   0.317060 0.076430 0.039590 -0.591899
O17   O     O_3   0.483830 0.993520 0.966410 -0.260727
V3    V     V_3+5 0.760140 0.001200 0.006230 1.172681
O18   O     O_R   0.149560 0.922820 0.954030 -0.588611
C67   C     C_R   0.981111 0.899067 0.943133 0.933135
O19   O     O_R   0.143080 0.056020 0.937150 -0.591048
C68   C     C_R   0.973289 0.076081 0.921306 0.976806
V4    V     V_3+5 0.259690 0.998730 0.993720 1.176583
O20   O     O_3   0.986120 0.006480 0.033580 -0.277234
S1    S     S_3+6 0.721063 0.110245 0.727808 -0.066876
O21   O     O_2   0.751171 0.070963 0.676703 -0.285230
O22   O     O_2   0.723051 0.064649 0.776243 -0.312104
O23   O     O_3   0.506018 0.148348 0.723350 -0.586486
H43   H     H_    0.410254 0.112822 0.724169 0.373276
N1    N     N_R   0.804241 0.598401 0.749385 0.223941
O24   O     O_R   0.886737 0.543368 0.763401 -0.413156
O25   O     O_R   0.636773 0.597249 0.725145 -0.400101

loop_
_geom_bond_atom_site_label_1
_geom_bond_atom_site_label_2
_geom_bond_distance
_ccdc_geom_bond_type
C31   H16   1.112832 S    
S1    O23   1.681904 S    
C28   C29   1.552343 S    
C13   C19   1.442732 A    
C49   C50   1.391152 A    
H21   C40   1.112801 S    
C3    C26   1.451343 S    
C4    C6    1.475311 S    
O2    C1    1.304165 A    
C51   C52   1.426538 A    
C35   C39   1.553655 S    
C30   H20   1.113201 S    
C1    O6    1.297204 A    
C60   C62   1.403678 A    
C26   C32   1.215675 T    
S1    O21   1.502956 D    
C27   C33   1.491520 S    
C24   C25   1.555755 S    
C23   H18   1.109849 S    
C14   C15   1.396034 A    
O11   V4    1.962050 S    
C10   C12   1.437040 A    
C16   C17   1.386981 A    
N1    O25   1.301741 A    
C42   H29   1.112848 S    
C14   N1    1.436182 S    
O5    C3    1.297096 A    
C18   C19   1.419029 A    
C8    H6    1.083592 S    
O14   C66   1.304162 A    
C62   C63   1.391169 A    
C39   C45   1.496595 S    
C57   H33   1.084417 S    
V2    O10   2.149148 S    
C25   H15   1.112907 S    
C5    C8    1.394421 A    
C29   C30   1.551096 S    
C29   C32   1.490572 S    
C34   C68   1.450702 S    
O8    V2    1.971229 S    
C48   C64   1.406702 A    
C7    C8    1.391511 A    
O16   V4    1.990301 S    
C51   H39   1.077015 S    
C36   C37   1.558384 S    
C47   C65   1.473908 S    
C52   C54   1.438109 A    
C17   H4    1.084449 S    
O1    V2    1.987080 S    
C11   C15   1.393299 A    
O7    V1    2.152411 S    
C22   H2    1.077912 S    
C43   H28   1.112927 S    
O15   V3    1.989396 S    
O9    C4    1.296392 A    
C62   H42   1.083992 S    
C42   H32   1.112921 S    
C38   C66   1.457473 S    
C35   C40   1.558350 S    
C60   C61   1.419615 A    
C28   H19   1.112648 S    
O12   C65   1.296743 A    
C30   H17   1.112579 S    
C40   H31   1.113040 S    
C50   H38   1.083646 S    
C55   C61   1.438095 A    
C61   C64   1.426531 A    
O17   V4    1.703062 S    
C12   C13   1.440592 A    
O13   V3    1.956969 S    
C38   C44   1.219327 T    
O4    C2    1.296732 A    
C40   C41   1.551986 S    
C15   H1    1.084611 S    
C36   H24   1.112772 S    
C54   C58   1.411189 A    
C25   H14   1.112901 S    
C21   H3    1.083601 S    
C59   H36   1.084421 S    
C65   O16   1.298529 A    
C7    C11   1.404727 A    
C17   C18   1.392449 A    
V3    O20   1.706018 S    
C48   C63   1.395064 A    
C45   C46   1.219334 T    
C1    C46   1.457487 S    
C24   H12   1.112398 S    
C36   H23   1.113085 S    
C52   C53   1.419618 A    
C35   H30   1.113021 S    
C19   C22   1.425829 A    
O15   C67   1.297515 A    
C37   H25   1.112826 S    
C49   H37   1.083989 S    
N1    O24   1.301575 A    
C6    C22   1.407217 A    
O3    C4    1.299032 A    
C7    H5    1.083946 S    
C9    H7    1.076902 S    
O11   C66   1.297214 A    
C58   H41   1.076125 S    
C24   C27   1.555160 S    
C54   C55   1.437960 A    
O6    V2    1.961706 S    
O9    V2    1.989944 S    
V4    O20   2.149169 S    
O18   V4    1.989984 S    
C37   C41   1.553561 S    
O13   C68   1.296876 A    
C25   C29   1.550661 S    
O17   V3    2.152498 S    
O2    V1    1.962225 S    
C49   C53   1.403664 A    
H10   C28   1.112856 S    
O18   C67   1.297765 A    
C27   C31   1.569278 S    
C36   C39   1.551675 S    
S1    O22   1.502774 D    
C5    C67   1.475210 S    
O1    C2    1.298524 A    
C63   H35   1.083646 S    
C12   C16   1.411950 A    
C42   C43   1.558556 S    
O19   V4    1.971299 S    
O5    V1    1.956804 S    
C41   C44   1.496579 S    
O8    C3    1.300956 A    
O12   V3    1.994460 S    
C31   S1    1.808379 S    
C55   C56   1.411184 A    
C56   H40   1.076117 S    
C13   C14   1.425786 A    
O4    V1    1.994324 S    
O3    V1    1.989278 S    
V1    O10   1.706203 S    
O19   C68   1.300981 A    
C20   C21   1.391544 A    
C47   C50   1.395049 A    
C18   C20   1.403939 A    
C23   C28   1.555921 S    
C30   C31   1.564581 S    
C24   H13   1.113143 S    
C2    C48   1.473921 S    
C16   H8    1.076047 S    
C56   C57   1.387731 A    
C20   H9    1.083936 S    
C64   H34   1.077009 S    
C37   H26   1.113069 S    
C35   H22   1.112831 S    
O7    V2    1.704108 S    
C58   C59   1.387752 A    
C6    C21   1.395254 A    
C43   H27   1.112882 S    
O23   H43   0.990292 S    
C47   C51   1.406725 A    
C41   C42   1.552128 S    
C23   C27   1.552935 S    
C39   C43   1.552257 S    
O14   V3    1.962153 S    
C59   C60   1.393737 A    
C10   C11   1.416835 A    
C33   C34   1.215602 T    
C9    C10   1.427720 A    
C53   C57   1.393721 A    
C23   H11   1.113089 S    
C5    C9    1.407390 A    
