data_mof_unit_9015.cif
_audit_creation_date              2013-03-05T15:57:57-0500
_audit_creation_method            fapswitch 2.2
_symmetry_space_group_name_H-M    P1
_symmetry_Int_Tables_number       1
_space_group_crystal_system       triclinic
_cell_length_a                    13.829369
_cell_length_b                    13.874203
_cell_length_c                    15.065797
_cell_angle_alpha                 88.600665
_cell_angle_beta                  92.281342
_cell_angle_gamma                 84.619515
_cell_volume                      2874.52729632

loop_
_atom_site_label
_atom_site_type_symbol
_atom_site_description
_atom_site_fract_x
_atom_site_fract_y
_atom_site_fract_z
_atom_type_partial_charge
O1    O     O_R   0.582280 0.500030 0.370250 -0.594117
O2    O     O_R   0.417720 0.499970 0.629750 -0.608127
O3    O     O_R   0.417740 0.500020 0.370270 -0.526068
O4    O     O_R   0.582260 0.499980 0.629730 -0.515197
C1    C     C_R   0.498071 0.504518 0.328817 0.892528
C2    C     C_R   0.501810 0.497343 0.671033 0.889686
O5    O     O_R   0.593900 0.362160 0.500010 -0.577177
O6    O     O_R   0.406100 0.637840 0.499990 -0.551008
O7    O     O_R   0.429360 0.362150 0.500030 -0.549657
O8    O     O_R   0.570640 0.637850 0.499970 -0.500631
C3    C     C_R   0.515734 0.317252 0.498108 0.856247
C4    C     C_R   0.484391 0.682430 0.504896 0.906479
Cu1   Cu    Cu3+1 0.597420 0.500010 0.499990 1.105241
Cu2   Cu    Cu3+1 0.402580 0.499990 0.500010 1.082150
C5    C     C_1   0.475336 0.785146 0.511075 -0.007907
C6    C     C_1   0.524890 0.214361 0.494001 -0.066609
C7    C     C_2   0.465862 0.975060 0.521966 0.232924
C8    C     C_2   0.535089 0.024180 0.485421 0.234755
C9    C     C_1   0.530717 0.127746 0.490158 0.031432
C10   C     C_1   0.469810 0.871606 0.516341 0.048237
C11   C     C_R   0.475036 0.414941 0.815818 0.365268
C12   C     C_R   0.531940 0.587396 0.184541 0.335566
C13   C     C_R   0.505058 0.494331 0.767729 -0.154496
C14   C     C_R   0.494177 0.510928 0.231739 -0.149073
C15   C     C_R   0.535341 0.574262 0.811238 -0.153191
C16   C     C_R   0.453380 0.437018 0.186820 -0.150106
C17   C     C_R   0.537352 0.577524 0.903865 0.018011
C18   C     C_R   0.450694 0.434714 0.094033 0.011144
C19   C     C_R   0.498093 0.502702 0.952550 0.003161
C20   C     C_R   0.495094 0.506503 0.046006 0.000049
C21   C     C_R   0.461861 0.424034 0.907848 -0.062526
C22   C     C_R   0.537655 0.581536 0.091210 -0.035472
C23   C     C_R   0.578312 0.652680 0.949353 0.303601
C24   C     C_R   0.405680 0.362112 0.047946 0.398959
C25   C     C_R   0.585068 0.648512 0.041699 -0.151482
C26   C     C_R   0.411670 0.358083 0.955823 -0.133718
H1    H     H_    0.559765 0.632241 0.771443 0.237834
H2    H     H_    0.424816 0.380768 0.226068 0.207274
H3    H     H_    0.630043 0.697457 0.073907 0.241189
H4    H     H_    0.373293 0.305049 0.921311 0.249572
C27   C     C_R   0.790971 0.484671 0.422100 0.046944
C28   C     C_R   0.212711 0.475755 0.576944 0.036664
N1    N     N_R   0.743820 0.499960 0.499930 -0.249191
N2    N     N_R   0.256180 0.500040 0.500070 -0.254235
C29   C     C_R   0.801022 0.508794 0.577180 0.534803
C30   C     C_R   0.196950 0.516646 0.422798 0.537482
C31   C     C_R   0.903178 0.482005 0.579030 -0.106185
C32   C     C_R   0.099281 0.491276 0.419915 -0.113408
C33   C     C_R   0.950509 0.476922 0.499068 0.031102
C34   C     C_R   0.053808 0.477045 0.499550 0.026133
C35   C     C_R   0.894227 0.478936 0.418847 -0.100412
C36   C     C_R   0.110492 0.469915 0.579781 -0.095774
C37   C     C_R   0.960158 0.467486 0.659036 -0.158530
C38   C     C_R   0.043936 0.485748 0.339474 -0.114811
C39   C     C_R   0.062529 0.459165 0.660267 0.344703
C40   C     C_R   0.943152 0.477088 0.338035 0.338285
H5    H     H_    0.748787 0.481951 0.361083 0.211039
H6    H     H_    0.256417 0.465120 0.637540 0.213600
H7    H     H_    0.925063 0.461509 0.721580 0.208683
H8    H     H_    0.079202 0.486761 0.276670 0.232954
S1    S     S_3+6 0.632897 0.965549 0.428800 0.097134
O9    O     O_2   0.690084 0.892882 0.490746 -0.170912
O10   O     O_2   0.593948 0.913553 0.350702 -0.200561
O11   O     O_3   0.706715 0.046715 0.393070 -0.450402
H9    H     H_    0.668755 0.084416 0.344613 0.362492
S2    S     S_3+6 0.368679 0.033409 0.579553 0.090884
O12   O     O_2   0.409099 0.080511 0.659875 -0.152094
O13   O     O_2   0.313197 0.110010 0.520343 -0.259321
O14   O     O_3   0.293180 0.952578 0.612602 -0.442025
H10   H     H_    0.261886 0.931427 0.557026 0.360022
S3    S     S_3+6 0.472034 0.301542 0.762626 0.064362
O15   O     O_2   0.482800 0.217701 0.828570 -0.215722
O16   O     O_2   0.378201 0.300338 0.709151 -0.210313
O17   O     O_3   0.565284 0.288034 0.694358 -0.546038
H11   H     H_    0.575285 0.217591 0.684263 0.389634
S4    S     S_3+6 0.560206 0.693411 0.242009 0.070184
O18   O     O_2   0.660926 0.676543 0.284037 -0.205718
O19   O     O_2   0.553986 0.782778 0.182701 -0.229280
O20   O     O_3   0.480688 0.715605 0.321511 -0.529216
H12   H     H_    0.430801 0.765336 0.295447 0.392306
S5    S     S_3+6 0.623120 0.753290 0.894676 0.100068
O21   O     O_2   0.547235 0.799337 0.828640 -0.200482
O22   O     O_2   0.648375 0.828048 0.960144 -0.191774
O23   O     O_3   0.723047 0.715637 0.840966 -0.426956
H13   H     H_    0.767834 0.682303 0.887315 0.355679
S6    S     S_3+6 0.340070 0.275715 0.102689 0.067521
O24   O     O_2   0.289462 0.215940 0.036672 -0.188605
O25   O     O_2   0.409640 0.210023 0.161123 -0.270831
O26   O     O_3   0.256678 0.333817 0.165668 -0.492918
H14   H     H_    0.231511 0.282264 0.202364 0.387742
S7    S     S_3+6 0.761849 0.583745 0.665823 0.071094
O27   O     O_2   0.676478 0.654669 0.639748 -0.216744
O28   O     O_2   0.737545 0.520793 0.742919 -0.321042
O29   O     O_3   0.853212 0.649338 0.697760 -0.458977
H15   H     H_    0.873166 0.626865 0.759231 0.378949
S8    S     S_3+6 0.225338 0.594879 0.333533 0.040548
O30   O     O_2   0.298238 0.662568 0.361030 -0.256112
O31   O     O_2   0.261722 0.535323 0.257638 -0.284665
O32   O     O_3   0.123925 0.663783 0.297730 -0.504204
H16   H     H_    0.141748 0.696505 0.242367 0.401765
N3    N     N_R   0.115513 0.443776 0.744116 0.117319
O33   O     O_R   0.183885 0.372930 0.754588 -0.280137
O34   O     O_R   0.083898 0.488167 0.813896 -0.298740
N4    N     N_R   0.892054 0.469796 0.253892 0.127496
O35   O     O_R   0.834774 0.401558 0.242069 -0.332592
O36   O     O_R   0.915447 0.519803 0.185112 -0.273409

loop_
_geom_bond_atom_site_label_1
_geom_bond_atom_site_label_2
_geom_bond_distance
_ccdc_geom_bond_type
S2    O13   1.503415 D    
N3    O33   1.300514 A    
C17   C19   1.417954 A    
S4    O20   1.672765 S    
C12   S4    1.791355 S    
C28   H6    1.073927 S    
N4    O36   1.301324 A    
S5    O21   1.503120 D    
C37   H7    1.081877 S    
C31   C33   1.393905 A    
C38   H8    1.081988 S    
C17   C23   1.411597 A    
C32   C38   1.414961 A    
C11   C21   1.412741 A    
C7    S2    1.771283 S    
C12   C22   1.415355 A    
C11   S3    1.786172 S    
O1    C1    1.294743 A    
C14   C16   1.392774 A    
C35   C40   1.415837 A    
S6    O25   1.503433 D    
S2    O14   1.682098 S    
S8    O32   1.683730 S    
C7    C10   1.435963 S    
C8    C9    1.436126 S    
C24   S6    1.776397 S    
O4    Cu1   1.974124 S    
S1    O10   1.502935 D    
C15   H1    1.078956 S    
C33   C35   1.409497 A    
S8    O31   1.502440 D    
C34   C36   1.410512 A    
C36   C39   1.416447 A    
C31   C37   1.413196 A    
C29   C31   1.425719 A    
S2    O12   1.502393 D    
C18   C24   1.414790 A    
N3    O34   1.301299 A    
Cu1   Cu2   2.694554 S    
C27   N1    1.375577 A    
S1    O9    1.502879 D    
C28   N2    1.374992 A    
C29   S7    1.782729 S    
N4    O35   1.301236 A    
S5    O22   1.503692 D    
N2    C30   1.398182 A    
O5    C3    1.297021 A    
C30   C32   1.426666 A    
C37   C39   1.408948 A    
C5    C10   1.199589 T    
C38   C40   1.409498 A    
O17   H11   0.990471 S    
C22   C25   1.403257 A    
C26   H4    1.078599 S    
S4    O18   1.502431 D    
C40   N4    1.436997 S    
O4    C2    1.299233 A    
S7    O27   1.497601 D    
S3    O16   1.501587 D    
S6    O24   1.503507 D    
C16   H2    1.081032 S    
S6    O26   1.682326 S    
O2    C2    1.293783 A    
S1    O11   1.682191 S    
C25   H3    1.074577 S    
O7    Cu2   1.913542 S    
C19   C20   1.412374 A    
S7    O28   1.503834 D    
O7    C3    1.296073 A    
C3    C6    1.424339 S    
O32   H16   0.990662 S    
C4    C5    1.424506 S    
O6    C4    1.296892 A    
S8    O30   1.494420 D    
C7    C8    1.352821 D    
O29   H15   0.990177 S    
O23   H13   0.990554 S    
N1    C29   1.395418 A    
O3    Cu2   1.974124 S    
O8    C4    1.296809 A    
C11   C13   1.407576 A    
C12   C14   1.414414 A    
O1    Cu1   1.957503 S    
Cu1   N1    2.024590 S    
S5    O23   1.676805 S    
Cu2   N2    2.024591 S    
O6    Cu2   1.917730 S    
S4    O19   1.504290 D    
O3    C1    1.301694 A    
O8    Cu1   1.913544 S    
S3    O17   1.680969 S    
C8    S1    1.771563 S    
C15   C17   1.396588 A    
C39   N3    1.436000 S    
C16   C18   1.398146 A    
O11   H9    0.990697 S    
C18   C20   1.416859 A    
C27   H5    1.072354 S    
S3    O15   1.503866 D    
C19   C21   1.416869 A    
S7    O29   1.686629 S    
C20   C22   1.418316 A    
C1    C14   1.461629 S    
C6    C9    1.199820 T    
C2    C13   1.455176 S    
C32   C34   1.394878 A    
C23   C25   1.390108 A    
C24   C26   1.395835 A    
C13   C15   1.391269 A    
O14   H10   0.990674 S    
O2    Cu2   1.957503 S    
O20   H12   0.991036 S    
O5    Cu1   1.917728 S    
C30   S8    1.786481 S    
C33   C34   1.428454 A    
C21   C26   1.402933 A    
O26   H14   0.990498 S    
C23   S5    1.777015 S    
C27   C35   1.425577 A    
C28   C36   1.425767 A    
