data_mof_unit_49897.cif
_audit_creation_date              2012-12-11T15:13:41-0500
_audit_creation_method            fapswitch 2.2
_symmetry_space_group_name_H-M    P1
_symmetry_Int_Tables_number       1
_space_group_crystal_system       triclinic
_cell_length_a                    6.945681
_cell_length_b                    13.474369
_cell_length_c                    20.130935
_cell_angle_alpha                 104.137167
_cell_angle_beta                  89.997517
_cell_angle_gamma                 90.572523
_cell_volume                      1826.87054979

loop_
_atom_site_label
_atom_site_type_symbol
_atom_type_description
_atom_site_fract_x
_atom_site_fract_y
_atom_site_fract_z
_atom_type_partial_charge
O1    O     O_R   0.506780 0.600060 0.449950 -0.538442
O2    O     O_R   0.179840 0.597110 0.589410 -0.544908
O3    O     O_R   0.004570 0.399940 0.550050 -0.538239
C1    C     C_R   0.348294 0.619009 0.616909 0.676315
O4    O     O_R   0.177380 0.612160 0.452890 -0.540747
O5    O     O_R   0.002100 0.415100 0.412560 -0.539857
C2    C     C_R   0.346626 0.639118 0.436429 0.696577
O6    O     O_R   0.509250 0.584900 0.587440 -0.539874
O7    O     O_3   0.337570 0.435330 0.486930 -0.369533
V1    V     V_3+5 0.064650 0.512000 0.502430 1.413357
O8    O     O_R   0.672090 0.402890 0.410590 -0.544045
C3    C     C_R   0.840282 0.380965 0.383083 0.675955
O9    O     O_R   0.674540 0.387840 0.547110 -0.541013
C4    C     C_R   0.842744 0.360890 0.563587 0.695876
V2    V     V_3+5 0.564040 0.488000 0.497570 1.413268
O10   O     O_3   0.840990 0.564670 0.513070 -0.369735
C5    C     C_R   0.843883 0.105949 0.607677 -0.161850
H1    H     H_    0.837229 0.155580 0.514222 0.101349
H2    H     H_    0.845711 0.979661 0.690061 0.117220
H3    H     H_    0.839543 0.025734 0.580848 0.112002
C6    C     C_R   0.848997 0.283203 0.602972 -0.031088
C7    C     C_R   0.867525 0.319554 0.932652 -0.169567
C8    C     C_R   0.865875 0.396452 0.897634 -0.122171
C9    C     C_R   0.861123 0.372081 0.826285 -0.163332
C10   C     C_R   0.857647 0.268806 0.787753 0.078974
C11   C     C_R   0.857848 0.190244 0.824113 0.070024
C12   C     C_R   0.854145 0.240889 0.714525 0.072442
C13   C     C_R   0.849232 0.135458 0.679562 0.145657
C14   C     C_R   0.849202 0.060117 0.716408 -0.217138
C15   C     C_R   0.853787 0.086853 0.787465 -0.204496
C16   C     C_R   0.854964 0.313829 0.674502 -0.217567
C17   C     C_R   0.842931 0.179480 0.569638 -0.177447
C18   C     C_R   0.863199 0.216834 0.896685 -0.075509
H4    H     H_    0.858657 0.395046 0.697008 0.091127
H5    H     H_    0.872445 0.340180 0.988151 0.099010
H6    H     H_    0.860313 0.436101 0.803107 0.102136
H7    H     H_    0.868910 0.475850 0.926031 0.117402
H8    H     H_    0.853899 0.025356 0.813465 0.118888
C19   C     C_3   0.776952 0.158550 0.250343 -0.142246
C20   C     C_3   0.953068 0.207506 0.293957 -0.138971
H9    H     H_    0.711583 0.082948 0.250059 0.111632
C21   C     C_3   0.848147 0.310679 0.312447 -0.005415
C22   C     C_3   0.671801 0.262499 0.269648 -0.121437
C23   C     C_3   0.760032 0.291769 0.206251 -0.142390
C24   C     C_3   0.936192 0.340701 0.249835 -0.139249
C25   C     C_3   0.041285 0.236734 0.230545 -0.117255
C26   C     C_3   0.864916 0.188631 0.187746 -0.004884
H10   H     H_    0.519242 0.273227 0.286065 0.106004
H11   H     H_    0.680515 0.326109 0.169687 0.100111
H12   H     H_    0.002032 0.416214 0.250064 0.100115
H13   H     H_    0.193817 0.225811 0.214121 0.105186
C27   C     C_3   0.455238 0.794574 0.707131 -0.142027
C28   C     C_3   0.275012 0.839964 0.748664 -0.142253
H14   H     H_    0.207215 0.914047 0.748158 0.112079
H15   H     H_    0.537077 0.830488 0.671597 0.099287
C29   C     C_3   0.358532 0.811540 0.812264 -0.004295
C30   C     C_3   0.539194 0.767007 0.771543 -0.114935
C31   C     C_3   0.438024 0.660923 0.751129 -0.141052
C32   C     C_3   0.257777 0.706282 0.792627 -0.145853
C33   C     C_3   0.173826 0.733881 0.728229 -0.118331
C34   C     C_3   0.354477 0.689267 0.687515 -0.004703
H16   H     H_    0.690409 0.780916 0.789603 0.106717
H17   H     H_    0.505863 0.586861 0.751669 0.101278
H18   H     H_    0.175981 0.670425 0.828199 0.099402
H19   H     H_    0.022591 0.720150 0.710166 0.107786
C35   C     C_R   0.378458 0.893639 0.392258 -0.161772
H20   H     H_    0.375389 0.844007 0.485746 0.101378
H21   H     H_    0.390331 0.019818 0.309868 0.117747
H22   H     H_    0.389301 0.973711 0.419074 0.112191
C36   C     C_R   0.356668 0.716666 0.396978 -0.031051
C37   C     C_R   0.341991 0.680660 0.067319 -0.169882
C38   C     C_R   0.332384 0.603875 0.102365 -0.121960
C39   C     C_R   0.337293 0.628139 0.173715 -0.163304
C40   C     C_R   0.351933 0.731195 0.212221 0.078858
C41   C     C_R   0.361015 0.809654 0.175850 0.070670
C42   C     C_R   0.357924 0.759000 0.285431 0.072485
C43   C     C_R   0.372134 0.864238 0.320378 0.146176
C44   C     C_R   0.379883 0.939501 0.283527 -0.218465
C45   C     C_R   0.374634 0.912858 0.212475 -0.204629
C46   C     C_R   0.350370 0.686136 0.325453 -0.217316
C47   C     C_R   0.370709 0.820191 0.430317 -0.177866
C48   C     C_R   0.356280 0.783161 0.103279 -0.075478
H23   H     H_    0.339370 0.605067 0.302966 0.090741
H24   H     H_    0.338230 0.660122 0.011810 0.099092
H25   H     H_    0.329203 0.564219 0.196915 0.102098
H26   H     H_    0.321144 0.524646 0.073985 0.117524
H27   H     H_    0.381396 0.974280 0.186457 0.118727
O11   O     O_R   0.203580 0.914920 0.912610 -0.540363
O12   O     O_R   0.535710 0.887810 0.047120 -0.540039
O13   O     O_R   0.710730 0.084950 0.087430 -0.540452
C49   C     C_R   0.366548 0.861133 0.063850 0.689196
O14   O     O_R   0.533010 0.902850 0.910600 -0.545378
O15   O     O_R   0.708010 0.100090 0.949930 -0.537888
C50   C     C_R   0.364615 0.881302 0.883000 0.679517
O16   O     O_R   0.206300 0.899780 0.050100 -0.537951
O17   O     O_3   0.375170 0.064580 0.013100 -0.369757
V3    V     V_3+5 0.648200 0.988020 0.997570 1.413697
O18   O     O_R   0.038030 0.112330 0.952840 -0.540497
C51   C     C_R   0.869793 0.138777 0.936070 0.687913
O19   O     O_R   0.040730 0.097300 0.089360 -0.544375
C52   C     C_R   0.872607 0.118773 0.116997 0.679234
V4    V     V_3+5 0.148780 0.012220 0.002360 1.414460
O20   O     O_3   0.871930 0.935430 0.986900 -0.369809
H28   H     H_    0.032656 0.173086 0.330468 0.101208

loop_
_geom_bond_atom_site_label_1
_geom_bond_atom_site_label_2
_ccdc_geom_bond_type
C23   H11   S    
C26   C52   S    
O17   V4    S    
C39   C40   A    
C1    O6    A    
C2    C36   S    
C45   H27   S    
C30   H16   S    
C19   H9    S    
C43   C44   A    
C27   C28   S    
C29   C50   S    
C7    H5    S    
C6    C16   A    
C32   H18   S    
C9    H6    S    
C40   C42   A    
C4    C6    S    
C13   C14   A    
C27   H15   S    
C27   C34   S    
O5    C3    A    
C35   H22   S    
V2    O10   S    
C5    H3    S    
C29   C30   S    
C15   H8    S    
C35   C43   A    
C36   C47   A    
C3    C21   S    
O8    V2    S    
C8    C9    A    
O1    V2    S    
O12   C49   A    
C22   H10   S    
O15   C51   A    
O13   V3    S    
C23   C26   S    
C37   C48   A    
C31   C34   S    
C20   C21   S    
C32   C33   S    
O9    C4    A    
C46   H23   S    
O19   V4    S    
C28   C33   S    
O14   V3    S    
H21   C44   S    
C6    C17   A    
O11   C50   A    
C40   C41   A    
C36   C46   A    
C9    C10   A    
C19   C20   S    
O4    C2    A    
C44   C45   A    
C19   C22   S    
C31   C32   S    
C8    H7    S    
C12   C16   A    
C1    C34   S    
C48   C49   S    
O12   V3    S    
C33   C34   S    
C18   C51   S    
C21   C24   S    
O2    C1    A    
C22   C23   S    
O13   C52   A    
C14   C15   A    
H20   C47   S    
C20   H28   S    
C11   C18   A    
O11   V4    S    
O17   V3    S    
O14   C50   A    
C16   H4    S    
C42   C43   A    
C39   H25   S    
V3    O20   S    
O3    C4    A    
C33   H19   S    
C11   C15   A    
O6    V2    S    
O9    V2    S    
H1    C17   S    
C21   C22   S    
C20   C25   S    
O2    V1    S    
O15   V3    S    
C23   C24   S    
C19   C26   S    
C37   H24   S    
O7    V1    S    
C28   C29   S    
C31   H17   S    
C7    C18   A    
C25   C26   S    
O1    C2    A    
C5    C13   A    
C42   C46   A    
C38   C39   A    
O5    V1    S    
C38   H26   S    
O8    C3    A    
O16   V4    S    
C41   C48   A    
C28   H14   S    
C10   C12   A    
C29   C32   S    
C10   C11   A    
O4    V1    S    
O3    V1    S    
O18   V4    S    
C35   C47   A    
C30   C31   S    
C24   H12   S    
C25   H13   S    
O19   C52   A    
O7    V2    S    
V4    O20   S    
C27   C30   S    
C49   O16   A    
C24   C25   S    
C37   C38   A    
O18   C51   A    
C12   C13   A    
C5    C17   A    
C7    C8    A    
V1    O10   S    
C41   C45   A    
H2    C14   S    
