data_mof_unit_6121.cif
_audit_creation_date              2012-12-11T15:12:47-0500
_audit_creation_method            fapswitch 2.2
_symmetry_space_group_name_H-M    P1
_symmetry_Int_Tables_number       1
_space_group_crystal_system       triclinic
_cell_length_a                    22.326597
_cell_length_b                    6.977188
_cell_length_c                    19.39265
_cell_angle_alpha                 89.99486
_cell_angle_beta                  99.178217
_cell_angle_gamma                 89.999844
_cell_volume                      2982.24921792

loop_
_atom_site_label
_atom_site_type_symbol
_atom_type_description
_atom_site_fract_x
_atom_site_fract_y
_atom_site_fract_z
_atom_type_partial_charge
O1    O     O_R   0.448420 0.506120 0.415750 -0.534656
O2    O     O_R   0.551580 0.006120 0.584250 -0.534686
O3    O     O_R   0.436490 0.174470 0.555610 -0.525118
O4    O     O_R   0.563510 0.674470 0.444390 -0.525074
C1    C     C_R   0.421171 0.344778 0.575688 0.707608
C2    C     C_R   0.578830 0.844788 0.424313 0.707603
O5    O     O_R   0.441310 0.176330 0.414520 -0.535106
O6    O     O_R   0.558690 0.676330 0.585480 -0.535089
O7    O     O_R   0.556430 0.007110 0.442150 -0.532370
O8    O     O_R   0.443570 0.507110 0.557850 -0.532317
C3    C     C_R   0.427131 0.345203 0.388347 0.759254
C4    C     C_R   0.572871 0.845189 0.611652 0.759260
O9    O     O_3   0.537770 0.339560 0.509230 -0.371115
O10   O     O_3   0.462230 0.839560 0.490770 -0.371101
V1    V     V_3+5 0.492990 0.064280 0.498290 1.557662
V2    V     V_3+5 0.507010 0.564280 0.501710 1.557759
C5    C     C_R   0.864775 0.992031 0.696674 -0.136926
C6    C     C_R   0.135198 0.491459 0.303344 -0.136885
H1    H     H_    0.784043 0.963487 0.581811 0.162798
H2    H     H_    0.215918 0.462547 0.418206 0.162889
H3    H     H_    0.882075 0.026056 0.648976 0.177353
H4    H     H_    0.117884 0.525220 0.351055 0.177396
C7    C     C_R   0.884114 0.942193 0.821742 -0.157181
C8    C     C_R   0.115887 0.442116 0.178253 -0.157237
C9    C     C_R   0.587188 0.851989 0.740982 0.369892
C10   C     C_R   0.412827 0.352445 0.259020 0.369916
C11   C     C_R   0.623049 0.880996 0.805670 -0.124014
C12   C     C_R   0.376967 0.381640 0.194342 -0.123995
C13   C     C_R   0.685533 0.905161 0.811126 -0.144074
C14   C     C_R   0.314477 0.405635 0.188887 -0.144108
C15   C     C_R   0.715021 0.891170 0.752150 0.106287
C16   C     C_R   0.284984 0.391267 0.247849 0.106310
C17   C     C_R   0.677522 0.878527 0.685061 -0.000485
C18   C     C_R   0.322476 0.378414 0.314936 -0.000498
C19   C     C_R   0.779843 0.908052 0.756925 0.028278
C20   C     C_R   0.220158 0.407986 0.243071 0.028274
C21   C     C_R   0.803375 0.946830 0.694435 0.033655
C22   C     C_R   0.196608 0.446404 0.305573 0.033578
C23   C     C_R   0.765697 0.939226 0.629540 -0.112554
C24   C     C_R   0.234277 0.438584 0.370470 -0.112492
C25   C     C_R   0.704313 0.898528 0.624699 -0.147130
C26   C     C_R   0.295672 0.398035 0.375302 -0.147091
C27   C     C_R   0.822748 0.887172 0.820094 0.274334
C28   C     C_R   0.177266 0.387267 0.179886 0.274348
C29   C     C_R   0.904361 0.997396 0.759782 0.096389
C30   C     C_R   0.095619 0.496997 0.240232 0.096358
C31   C     C_R   0.613530 0.854971 0.679837 -0.183632
C32   C     C_R   0.386475 0.355048 0.320160 -0.183684
H5    H     H_    0.709213 0.947159 0.861582 0.203464
H6    H     H_    0.290792 0.447803 0.138450 0.203449
H7    H     H_    0.602126 0.889871 0.852256 0.187172
H8    H     H_    0.397895 0.390810 0.147766 0.187178
H9    H     H_    0.677502 0.891442 0.573058 0.100269
H10   H     H_    0.322476 0.390766 0.426943 0.100297
C33   C     C_3   0.814228 0.771237 0.269968 -0.280485
C34   C     C_3   0.185676 0.271912 0.729904 -0.280494
C35   C     C_3   0.776316 0.105144 0.234941 0.260909
C36   C     C_3   0.223886 0.605243 0.765287 0.261150
C37   C     C_3   0.725965 0.089761 0.282069 -0.445037
C38   C     C_3   0.274286 0.589823 0.718219 -0.444880
H11   H     H_    0.860206 0.816725 0.295237 0.217310
H12   H     H_    0.139729 0.317834 0.704697 0.217178
H13   H     H_    0.759084 0.198711 0.189840 0.156971
H14   H     H_    0.241160 0.698319 0.810492 0.157088
H15   H     H_    0.740462 0.158656 0.333262 0.282034
H16   H     H_    0.259983 0.659604 0.667159 0.282221
H17   H     H_    0.685045 0.169799 0.257271 0.226123
H18   H     H_    0.315291 0.668892 0.743236 0.225687
C39   C     C_1   0.624641 0.855611 0.379063 -0.061429
C40   C     C_1   0.375362 0.355573 0.620942 -0.061504
C41   C     C_3   0.791203 0.904335 0.206852 -0.078036
C42   C     C_3   0.208810 0.404370 0.793160 -0.078200
C43   C     C_3   0.769367 0.770903 0.324289 0.526916
C44   C     C_3   0.230520 0.271722 0.675563 0.527025
C45   C     C_3   0.709053 0.877671 0.293083 -0.089262
C46   C     C_3   0.290948 0.377642 0.706921 -0.089311
C47   C     C_3   0.682795 0.799207 0.218439 0.266054
C48   C     C_3   0.317106 0.298276 0.781472 0.265968
C49   C     C_3   0.730693 0.819021 0.167401 -0.021150
C50   C     C_3   0.269244 0.318379 0.832543 -0.020892
C51   C     C_1   0.662616 0.866480 0.340705 0.149936
C52   C     C_1   0.337387 0.366424 0.659301 0.149812
C53   C     C_1   0.837564 0.923343 0.159495 0.114502
C54   C     C_1   0.162447 0.423396 0.840514 0.114665
C55   C     C_1   0.875448 0.937891 0.121175 -0.067444
C56   C     C_1   0.124560 0.437931 0.878829 -0.067311
H19   H     H_    0.712034 0.923111 0.125943 0.117962
H20   H     H_    0.288018 0.422192 0.874037 0.117778
H21   H     H_    0.819866 0.623935 0.250386 0.241486
H22   H     H_    0.179949 0.124520 0.749342 0.241862
H23   H     H_    0.643405 0.891189 0.197061 0.122356
H24   H     H_    0.356630 0.389521 0.802949 0.122312
O11   O     O_R   0.056480 0.288780 0.942210 -0.527648
O12   O     O_R   0.943520 0.788780 0.057790 -0.527680
O13   O     O_R   0.058700 0.616820 0.085490 -0.541871
O14   O     O_R   0.941300 0.116820 0.914510 -0.541863
C57   C     C_R   0.072957 0.448463 0.111719 0.802208
C58   C     C_R   0.927043 0.948478 0.888279 0.802185
O15   O     O_R   0.063520 0.618570 0.944410 -0.538272
O16   O     O_R   0.936480 0.118570 0.055590 -0.538288
O17   O     O_R   0.948420 0.787670 0.915740 -0.521471
O18   O     O_R   0.051580 0.287670 0.084260 -0.521516
C59   C     C_R   0.078860 0.449626 0.924150 0.745168
C60   C     C_R   0.921141 0.949615 0.075850 0.745085
O19   O     O_3   0.962260 0.453430 0.990800 -0.364550
O20   O     O_3   0.037740 0.953430 0.009200 -0.364569
V3    V     V_3+5 0.007000 0.728750 0.001710 1.601009
V4    V     V_3+5 0.993000 0.228750 0.998290 1.600997
I1    I     I_    0.996034 0.076000 0.757182 -0.283010
I2    I     I_    0.003928 0.575350 0.242846 -0.282762
Cl1   Cl    Cl    0.843238 0.220341 0.280095 -0.532577
Cl2   Cl    Cl    0.157086 0.721194 0.720201 -0.532506
I3    I     I_    0.744655 0.566230 0.106380 -0.247917
I4    I     I_    0.255099 0.065719 0.893521 -0.247870
Cl3   Cl    Cl    0.649391 0.565298 0.220213 -0.505153
Cl4   Cl    Cl    0.350142 0.063986 0.779425 -0.506231
Cl5   Cl    Cl    0.755102 0.532349 0.349919 -0.547292
Cl6   Cl    Cl    0.244489 0.033286 0.649566 -0.546124
Cl7   Cl    Cl    0.805611 0.760454 0.893804 -0.652028
Cl8   Cl    Cl    0.194440 0.260912 0.106124 -0.652062
Cl9   Cl    Cl    0.508281 0.824384 0.737957 -0.570295
Cl10  Cl    Cl    0.491744 0.325092 0.262046 -0.569874
I5    I     I_    0.813416 0.895047 0.421937 -0.216977
I6    I     I_    0.186622 0.397363 0.578131 -0.216526

loop_
_geom_bond_atom_site_label_1
_geom_bond_atom_site_label_2
_ccdc_geom_bond_type
O17   V3    S    
C2    C39   S    
O15   C59   A    
C7    C29   A    
C11   C13   A    
C33   H21   S    
C44   I6    S    
O1    C3    A    
O2    C4    A    
O11   C59   A    
C2    O7    A    
C49   H19   S    
C23   C25   A    
C13   H5    S    
O5    C3    A    
O19   V3    S    
C44   C46   S    
C36   Cl2   S    
C16   C20   A    
C19   C21   A    
C5    C29   A    
O11   V4    S    
H2    C24   S    
C48   C50   S    
C35   C37   S    
O20   V3    S    
C28   Cl8   S    
H1    C23   S    
C36   C38   S    
O16   C60   A    
C7    C27   A    
C37   H17   S    
C18   C26   A    
C43   I5    S    
O14   C58   A    
C15   C17   A    
O18   V4    S    
C19   C27   A    
C9    C31   A    
C29   I1    S    
C57   O18   A    
C10   C32   A    
C24   C26   A    
O14   V4    S    
O12   C60   A    
O6    V2    S    
C22   C24   A    
C50   H20   S    
C13   C15   A    
C43   C45   S    
C3    C32   S    
C4    C31   S    
C56   C59   S    
C6    C30   A    
C41   C49   S    
C11   H7    S    
C35   H13   S    
C37   H15   S    
C41   C53   S    
C47   C49   S    
C36   H14   S    
C44   Cl6   S    
O19   V4    S    
O12   V3    S    
O16   V4    S    
C34   C44   S    
C14   H6    S    
C8    C57   S    
C43   Cl5   S    
O4    C2    A    
C46   C52   S    
C45   C51   S    
O5    V1    S    
C48   H24   S    
C38   C46   S    
C5    H3    S    
C16   C18   A    
O4    V2    S    
C1    C40   S    
O6    C4    A    
O1    V2    S    
C5    C21   A    
C35   C41   S    
O2    V1    S    
C45   C47   S    
C25   H9    S    
C42   C54   S    
C55   C60   S    
O13   V3    S    
C53   C55   T    
C50   I4    S    
O9    V1    S    
C17   C31   A    
C34   H12   S    
C20   C28   A    
C18   C32   A    
C20   C22   A    
C37   C45   S    
O3    V1    S    
C47   H23   S    
C34   C42   S    
C6    H4    S    
C48   Cl4   S    
C46   C48   S    
O3    C1    A    
O13   C57   A    
C9    C11   A    
C58   O17   A    
O15   V3    S    
C10   C12   A    
C8    C30   A    
C49   I3    S    
O7    V1    S    
C17   C25   A    
C12   C14   A    
C21   C23   A    
C30   I2    S    
O8    V2    S    
C26   H10   S    
C14   C16   A    
C12   H8    S    
C36   C42   S    
C35   Cl1   S    
O20   V4    S    
C8    C28   A    
C33   H11   S    
C15   C19   A    
C34   H22   S    
O10   V2    S    
C6    C22   A    
C40   C52   T    
C39   C51   T    
C38   H16   S    
C33   C43   S    
C1    O8    A    
C7    C58   S    
C38   H18   S    
C42   C50   S    
O9    V2    S    
O10   V1    S    
C54   C56   T    
C10   Cl10  S    
C47   Cl3   S    
C9    Cl9   S    
C33   C41   S    
C27   Cl7   S    
