data_mof_unit_15791.cif
_audit_creation_date              2012-12-11T20:37:36-0500
_audit_creation_method            fapswitch 2.2
_symmetry_space_group_name_H-M    P1
_symmetry_Int_Tables_number       1
_space_group_crystal_system       triclinic
_cell_length_a                    8.311378
_cell_length_b                    18.927986
_cell_length_c                    22.882402
_cell_angle_alpha                 97.83124
_cell_angle_beta                  90.01445
_cell_angle_gamma                 93.473138
_cell_volume                      3559.55096322

loop_
_atom_site_label
_atom_site_type_symbol
_atom_type_description
_atom_site_fract_x
_atom_site_fract_y
_atom_site_fract_z
_atom_type_partial_charge
Ba1   Ba    Ba6+2 0.849480 0.533290 0.473010 1.650994
Ba2   Ba    Ba6+2 0.340340 0.466770 0.527000 1.658662
C1    C     C_3   0.667728 0.796565 0.340819 -0.393426
C2    C     C_R   0.087791 0.554268 0.942120 -0.028389
C3    C     C_R   0.042590 0.551190 0.881818 0.591579
C4    C     C_3   0.102095 0.702743 0.319716 0.306600
C5    C     C_R   0.010065 0.423443 0.872650 0.592599
C6    C     C_R   0.053208 0.424900 0.932737 -0.011702
C7    C     C_R   0.092022 0.490542 0.967770 -0.049290
C8    C     C_R   0.127861 0.619718 0.977535 -0.072799
C9    C     C_R   0.170518 0.621988 0.036916 -0.074240
C10   C     C_R   0.173921 0.558920 0.063231 -0.017872
C11   C     C_R   0.134843 0.492555 0.028561 -0.059512
C12   C     C_3   0.683447 0.720598 0.353756 0.342813
C13   C     C_R   0.061134 0.361508 0.957986 -0.125919
C14   C     C_R   0.107542 0.362050 0.017059 -0.046993
C15   C     C_R   0.138757 0.428525 0.054362 -0.036705
C16   C     C_3   0.036605 0.728529 0.263335 -0.282986
C17   C     C_R   0.169894 0.433870 0.116375 0.611077
C18   C     C_R   0.216176 0.561124 0.123391 0.581927
C19   C     C_2   0.812717 0.445668 0.766378 -0.088909
C20   C     C_3   0.779498 0.426590 0.700959 -0.069533
C21   C     C_1   0.008532 0.510042 0.684656 0.048757
C22   C     C_2   0.054911 0.515736 0.741183 -0.081280
C23   C     C_3   0.479410 0.325221 0.339956 0.333122
C24   C     C_2   0.951507 0.482831 0.785803 0.216773
C25   C     C_R   0.412283 0.531345 0.231583 -0.123760
C26   C     C_R   0.457301 0.534978 0.291118 0.049177
C27   C     C_R   0.195970 0.481197 0.313440 0.013086
C28   C     C_3   0.199984 0.687431 0.609213 0.316202
C29   C     C_R   0.150028 0.477250 0.253532 -0.116348
C30   C     C_R   0.257835 0.502627 0.211842 0.213034
C31   C     C_2   0.880581 0.470121 0.662772 -0.274256
C32   C     C_2   0.398838 0.707128 0.486852 -0.257640
C33   C     C_3   0.267041 0.757598 0.484266 0.014669
C34   C     C_3   0.587539 0.374802 0.306994 -0.333298
C35   C     C_2   0.339754 0.829490 0.472639 -0.135276
C36   C     C_2   0.485856 0.852584 0.497290 -0.085684
C37   C     C_2   0.571246 0.801757 0.531054 0.011328
C38   C     C_1   0.528342 0.731451 0.518779 0.040528
C39   C     C_R   0.658491 0.068002 0.503863 0.465699
C40   C     C_3   0.231796 0.765608 0.634801 -0.406415
C41   C     C_R   0.551653 0.927787 0.495962 0.452807
C42   C     C_R   0.610758 0.194438 0.491281 -0.124564
C43   C     C_R   0.658758 0.267090 0.497372 0.059468
C44   C     C_R   0.907218 0.244319 0.544029 -0.021410
C45   C     C_3   0.019103 0.267286 0.678080 0.294346
C46   C     C_R   0.861345 0.170911 0.537654 -0.152818
C47   C     C_R   0.710746 0.145313 0.511623 -0.062562
C48   C     C_R   0.802780 0.292030 0.525841 -0.279120
C49   C     C_3   0.980717 0.317106 0.399995 0.230659
C50   C     C_3   0.929717 0.238361 0.378772 -0.250062
C51   C     C_3   0.687270 0.615448 0.647802 0.294094
C52   C     C_3   0.708470 0.632621 0.714366 -0.361250
C53   C     C_2   0.061058 0.189204 0.386759 0.467720
C54   C     C_3   0.394941 0.264074 0.296909 -0.209458
C55   C     C_3   0.297113 0.288486 0.247291 -0.364543
C56   C     C_3   0.058009 0.245921 0.737930 -0.307223
C57   C     C_2   0.129698 0.290928 0.035398 0.594885
C58   C     C_2   0.273498 0.685060 0.311905 0.402989
C59   C     C_3   0.636730 0.832100 0.592427 -0.199578
C60   C     C_3   0.821546 0.836195 0.595918 -0.315742
C61   C     C_3   0.064520 0.809084 0.259908 -0.175840
C62   C     C_3   0.241720 0.832863 0.254312 -0.375732
C63   C     C_3   0.539248 0.280436 0.667680 0.412879
C64   C     C_3   0.509229 0.214748 0.698687 -0.355216
C65   C     C_R   0.349313 0.509632 0.331255 -0.219405
H1    H     H_    0.806424 0.714826 0.368474 0.086070
H2    H     H_    0.590722 0.572455 0.638192 0.093607
H3    H     H_    0.725099 0.834979 0.376966 0.106510
H4    H     H_    0.812286 0.672064 0.725063 0.135026
H5    H     H_    0.730580 0.583590 0.733795 0.073570
H6    H     H_    0.597572 0.655143 0.734289 0.134216
H7    H     H_    0.601208 0.712458 0.390578 0.079525
H8    H     H_    0.538696 0.807243 0.338329 0.111750
H9    H     H_    0.385438 0.356823 0.364235 0.035464
H10   H     H_    0.696434 0.348005 0.289573 0.134415
H11   H     H_    0.523805 0.393374 0.269923 0.045977
H12   H     H_    0.321541 0.770142 0.670908 0.129441
H13   H     H_    0.624800 0.422508 0.338491 0.120235
H14   H     H_    0.725546 0.804846 0.298441 0.125281
H15   H     H_    0.084913 0.697601 0.223153 0.132341
H16   H     H_    0.982043 0.322947 0.684508 0.023678
H17   H     H_    0.918701 0.230276 0.658453 -0.019771
H18   H     H_    0.156401 0.282416 0.759775 0.169911
H19   H     H_    0.949389 0.248925 0.766089 0.121328
H20   H     H_    0.095523 0.190289 0.732576 0.092013
H21   H     H_    0.672201 0.289393 0.664038 -0.129456
H22   H     H_    0.486024 0.269264 0.622490 0.077361
H23   H     H_    0.277853 0.797633 0.600995 0.053539
H24   H     H_    0.565179 0.168394 0.673321 0.068337
H25   H     H_    0.378300 0.201346 0.702091 0.143140
H26   H     H_    0.030008 0.652852 0.325502 0.055216
H27   H     H_    0.563423 0.225082 0.743684 0.113704
H28   H     H_    0.035958 0.310347 0.930843 0.109595
H29   H     H_    0.200065 0.673722 0.062380 0.119618
H30   H     H_    0.495933 0.552048 0.200905 0.103175
H31   H     H_    0.126140 0.669681 0.959443 0.123929
H32   H     H_    0.169676 0.543221 0.755270 0.117371
H33   H     H_    0.734501 0.421318 0.797020 0.103733
H34   H     H_    0.119652 0.787996 0.652742 0.124325
H35   H     H_    0.031853 0.454095 0.239343 0.114113
H36   H     H_    0.384959 0.512614 0.377049 0.083980
H37   H     H_    0.861117 0.458052 0.615484 0.077587
H38   H     H_    0.268714 0.863999 0.450177 0.116975
H39   H     H_    0.499678 0.176136 0.467752 0.112118
H40   H     H_    0.943319 0.134354 0.552144 0.100878
H41   H     H_    0.385726 0.652647 0.464520 0.109277
H42   H     H_    0.840186 0.348172 0.528929 0.057350
H43   H     H_    0.905129 0.715708 0.260566 0.130149
H44   H     H_    0.315908 0.664881 0.595487 0.006561
H45   H     H_    0.871745 0.345488 0.413561 0.047012
H46   H     H_    0.116664 0.683451 0.570865 0.032110
H47   H     H_    0.123897 0.192800 0.429032 0.025805
H48   H     H_    0.232419 0.336844 0.263437 0.142154
H49   H     H_    0.377594 0.300371 0.210467 0.168763
H50   H     H_    0.207403 0.244889 0.229513 0.171014
H51   H     H_    0.485331 0.226846 0.276698 0.136158
H52   H     H_    0.312414 0.233121 0.323546 0.154812
H53   H     H_    0.042979 0.246299 0.020966 -0.038091
H54   H     H_    0.337157 0.689532 0.271054 0.057779
H55   H     H_    0.876607 0.856827 0.556715 0.162044
H56   H     H_    0.063846 0.322113 0.438622 0.034589
H57   H     H_    0.862027 0.872301 0.636281 0.100305
H58   H     H_    0.867296 0.783202 0.599623 0.146714
H59   H     H_    0.594821 0.886629 0.605542 0.111769
H60   H     H_    0.585399 0.801172 0.626790 0.116011
H61   H     H_    0.305503 0.830700 0.296401 0.138519
H62   H     H_    0.298977 0.798571 0.217808 0.143074
H63   H     H_    0.251990 0.889045 0.244961 0.138997
H64   H     H_    0.999085 0.821260 0.220454 0.116788
H65   H     H_    0.013019 0.840982 0.299059 0.162342
H66   H     H_    0.889585 0.232007 0.331663 0.155219
H67   H     H_    0.825267 0.220939 0.404411 0.034613
H68   H     H_    0.801149 0.597203 0.628018 0.010362
N1    N     N_R   0.002959 0.486144 0.847615 -0.424296
N2    N     N_R   0.212182 0.499227 0.149673 -0.425034
N3    N     N_R   0.517305 0.043900 0.475359 -0.235039
N4    N     N_R   0.464848 0.975427 0.471563 -0.237879
N5    N     N_R   0.695757 0.951486 0.522402 -0.250549
N6    N     N_R   0.747851 0.019992 0.526608 -0.247831
O1    O     O_2   0.898140 0.461210 0.359840 -0.470088
O2    O     O_2   0.240838 0.248382 0.532916 -0.492340
O3    O     O_3   0.156609 0.262314 0.642835 -0.577140
O4    O     O_3   0.138540 0.461940 0.430900 -0.477186
O5    O     O_3   0.557600 0.585010 0.531050 -0.491912
O6    O     O_2   0.379790 0.327560 0.468300 -0.463242
O7    O     O_3   0.578855 0.292765 0.377185 -0.654262
O8    O     O_2   0.464468 0.478916 0.708675 -0.485189
O9    O     O_3   0.468098 0.339283 0.699912 -0.566730
O10   O     O_2   0.036377 0.606528 0.860158 -0.593077
O11   O     O_2   0.979900 0.365880 0.842409 -0.623052
O12   O     O_3   0.645829 0.677327 0.625854 -0.644290
O13   O     O_2   0.157694 0.380588 0.140997 -0.574821
O14   O     O_2   0.255271 0.618518 0.152585 -0.627778
O15   O     O_3   0.654260 0.589640 0.397760 -0.482514
O16   O     O_2   0.799106 0.551796 0.294181 -0.513320
O17   O     O_3   0.055033 0.346780 0.353378 -0.646706
O18   O     O_3   0.649202 0.671514 0.302697 -0.605861
O19   O     O_2   0.809910 0.672460 0.531740 -0.461481
O20   O     O_3   0.065030 0.625960 0.427320 -0.467072
O21   O     O_2   0.938324 0.750001 0.466004 -0.507067
O22   O     O_2   0.094092 0.143109 0.346513 -0.564700
O23   O     O_3   0.089344 0.755761 0.368933 -0.613710
O24   O     O_2   0.250921 0.279915 0.062399 -0.535520
O25   O     O_2   0.342707 0.664213 0.352406 -0.652844
O26   O     O_2   0.291560 0.538810 0.640200 -0.459781
O27   O     O_3   0.051160 0.538120 0.569110 -0.494882
O28   O     O_3   0.535440 0.410410 0.602240 -0.476507
O29   O     O_3   0.129362 0.652053 0.653162 -0.628390
O30   O     O_3   0.632100 0.415050 0.468960 -0.476150
O31   O     O_3   0.124670 0.374100 0.572690 -0.465612
P1    P     P_3+3 0.069200 0.440380 0.368230 0.990635
P2    P     P_3+3 0.634560 0.662100 0.548650 0.974077
P3    P     P_3+3 0.091789 0.720313 0.436438 0.980951
P4    P     P_3+3 0.120500 0.559680 0.631780 0.995691
P5    P     P_3+3 0.106556 0.281110 0.572578 0.960791
P6    P     P_3+3 0.644198 0.584147 0.320818 0.984156
P7    P     P_3+3 0.562365 0.325334 0.452511 0.944689
P8    P     P_3+3 0.561671 0.416946 0.678699 0.969121

loop_
_geom_bond_atom_site_label_1
_geom_bond_atom_site_label_2
_ccdc_geom_bond_type
O31   P5    S    
C9    H29   S    
C3    N1    Am   
C19   C24   D    
C56   H18   S    
C51   O12   S    
C49   H45   S    
C18   O14   D    
C6    C13   A    
C22   H32   S    
C49   H56   S    
Ba1   O4    S    
C51   H68   S    
C23   C54   S    
C51   H2    S    
C56   H20   S    
C60   H57   S    
C65   H36   S    
C5    C6    A    
C55   H48   S    
O29   P4    S    
C51   C52   S    
Ba2   O4    S    
C63   H22   S    
Ba1   P1    S    
C57   H53   S    
C10   C18   A    
C32   C38   D    
C12   H7    S    
C55   H50   S    
O3    P5    S    
C33   C35   S    
C22   C24   S    
C32   C33   S    
C34   H10   S    
C13   H28   S    
C36   C37   S    
O20   P3    S    
C16   C61   S    
C46   H40   S    
C28   H44   S    
C13   C14   A    
C31   H37   S    
O5    P2    S    
C50   H67   S    
C54   C55   S    
O23   P3    S    
Ba1   Ba2   S    
C63   O9    S    
C8    H31   S    
C7    C11   A    
C28   O29   S    
Ba1   O1    S    
Ba2   P4    S    
C27   C65   A    
O15   P6    S    
C52   H4    S    
C14   C15   A    
C62   H61   S    
C1    H14   S    
C21   C22   D    
C41   N4    A    
C59   H59   S    
C61   H64   S    
C55   H49   S    
C1    H8    S    
O28   P8    S    
C57   O24   D    
C50   C53   S    
Ba2   O30   S    
C64   H27   S    
O2    P5    D    
Ba1   O20   S    
C40   H12   S    
C19   C20   S    
C50   H66   S    
C44   P5    S    
O30   P7    S    
Ba1   O5    S    
C58   H54   S    
O19   P2    D    
C42   C47   A    
C37   C59   S    
C56   H19   S    
C39   C47   S    
O1    P1    D    
C4    C16   S    
C44   C46   A    
Ba1   P2    S    
C49   C50   S    
C29   H35   S    
C4    C58   S    
C1    H3    S    
N5    N6    A    
C20   P8    S    
C34   H13   S    
C37   C38   D    
C19   H33   S    
C6    C7    A    
C64   H25   S    
O21   P3    D    
C23   C34   S    
Ba1   O27   S    
C21   C31   D    
Ba2   O6    S    
C61   H65   S    
C45   O3    S    
Ba1   O30   S    
O8    P8    D    
C58   O25   D    
C61   C62   S    
C40   H23   S    
C14   C57   S    
C18   N2    Am   
Ba1   O15   S    
C35   H38   S    
C35   C36   D    
C52   H6    S    
O17   P1    S    
C29   C30   A    
C17   N2    Am   
C4    H26   S    
C26   C65   A    
C41   N5    A    
C59   H60   S    
C45   H17   S    
C62   H62   S    
C39   N3    A    
C1    C12   S    
C46   C47   A    
C62   H63   S    
O7    P7    S    
C45   H16   S    
C8    C9    A    
C54   H52   S    
C36   C41   S    
O18   P6    S    
C2    C8    A    
C40   H34   S    
Ba2   O27   S    
C60   H55   S    
C42   C43   A    
C63   H21   S    
O9    P8    S    
O27   P4    S    
C20   C31   S    
C44   C48   A    
C25   H30   S    
C25   C30   A    
C54   H51   S    
Ba1   O19   S    
C16   H43   S    
C27   P1    S    
C2    C3    A    
C60   H58   S    
C9    C10   A    
C64   H24   S    
C21   P4    S    
C53   H47   S    
C42   H39   S    
Ba2   O5    S    
C39   N6    A    
C4    O23   S    
C49   O17   S    
C3    O10   D    
C11   C15   A    
C12   O18   S    
C23   H9    S    
C32   H41   S    
O4    P1    S    
C33   P3    S    
C5    N1    Am   
C27   C29   A    
C34   H11   S    
C45   C56   S    
C38   P2    S    
C43   C48   A    
O12   P2    S    
C16   H15   S    
C23   O7    S    
O16   P6    D    
C48   H42   S    
C59   C60   S    
C24   N1    S    
N3    N4    A    
C43   P7    S    
Ba2   O28   S    
C53   O22   D    
C5    O11   D    
C15   C17   A    
O6    P7    D    
C30   N2    S    
C52   H5    S    
C10   C11   A    
C63   C64   S    
C25   C26   A    
C17   O13   D    
C12   H1    S    
C28   C40   S    
C2    C7    A    
C26   P6    S    
Ba2   O26   S    
Ba2   O31   S    
O26   P4    D    
C28   H46   S    
