data_mof_unit_34162.cif
_audit_creation_date              2012-12-10T16:56:30-0500
_audit_creation_method            fapswitch 2.2
_symmetry_space_group_name_H-M    P1
_symmetry_Int_Tables_number       1
_space_group_crystal_system       triclinic
_cell_length_a                    7.927853
_cell_length_b                    8.634935
_cell_length_c                    15.662169
_cell_angle_alpha                 93.821687
_cell_angle_beta                  84.910502
_cell_angle_gamma                 92.468805
_cell_volume                      1064.82996339

loop_
_atom_site_label
_atom_site_type_symbol
_atom_type_description
_atom_site_fract_x
_atom_site_fract_y
_atom_site_fract_z
_atom_type_partial_charge
C1    C     C_R   0.544273 0.793460 0.499729 0.876490
C2    C     C_3   0.415870 0.371016 0.027911 0.484549
C3    C     C_1   0.500266 0.496151 0.749989 -0.058930
C4    C     C_1   0.499181 0.500722 0.249798 -0.048976
C5    C     C_3   0.336311 0.493649 0.977541 -0.461526
C6    C     C_3   0.662238 0.499307 0.022011 -0.482348
C7    C     C_3   0.499185 0.493642 0.915869 -0.140221
C8    C     C_3   0.499391 0.499324 0.083707 -0.137755
C9    C     C_1   0.499963 0.493797 0.825152 0.110397
C10   C     C_1   0.499021 0.500747 0.174520 0.112683
C11   C     C_3   0.824244 0.730367 0.902850 -0.026485
C12   C     C_R   0.456782 0.206824 0.503760 0.876152
C13   C     C_3   0.175127 0.261899 0.096913 -0.104950
C14   C     C_3   0.851470 0.016398 0.507197 0.008481
C15   C     C_3   0.291296 0.040772 0.651198 -0.182590
C16   C     C_R   0.500204 0.499525 0.661438 0.851650
C17   C     C_R   0.499719 0.500054 0.338515 0.903931
C18   C     C_2   0.569265 0.955105 0.494701 0.179813
C19   C     C_2   0.438395 0.047559 0.519709 0.214957
C20   C     C_3   0.422431 0.622608 0.034092 0.376317
C21   C     C_3   0.576115 0.370407 0.965416 0.380930
C22   C     C_3   0.582716 0.621892 0.971643 0.467230
H1    H     H_    0.793677 0.499876 0.041357 0.194263
H2    H     H_    0.787184 0.164426 0.037255 0.335780
H3    H     H_    0.923303 0.908240 0.498496 0.210956
H4    H     H_    0.807109 0.040273 0.576274 0.111595
H5    H     H_    0.941685 0.112670 0.489300 0.208360
H6    H     H_    0.307744 0.168880 0.662616 0.119371
H7    H     H_    0.392307 0.981302 0.679994 0.174434
H8    H     H_    0.167687 0.007026 0.684963 0.234546
H9    H     H_    0.897603 0.242719 0.275814 0.359994
H10   H     H_    0.020664 0.396812 0.678945 0.348133
H11   H     H_    0.204944 0.493106 0.958098 0.202130
H12   H     H_    0.824554 0.630914 0.853865 0.167126
H13   H     H_    0.910687 0.709924 0.952748 0.166787
H14   H     H_    0.874549 0.834474 0.869738 0.229037
H15   H     H_    0.088668 0.285352 0.047571 0.139127
H16   H     H_    0.175930 0.359378 0.147069 0.163964
H17   H     H_    0.124116 0.156623 0.128688 0.228530
H18   H     H_    0.335961 0.908339 0.962107 0.409249
N1    N     N_2   0.950320 0.457950 0.477300 0.094565
N2    N     N_2   0.049680 0.542050 0.522700 0.084796
O1    O     O_R   0.389250 0.738570 0.505570 -0.567574
O2    O     O_3   0.339043 0.232527 0.058512 -0.524493
O3    O     O_2   0.180648 0.745321 0.145895 -0.256229
O4    O     O_2   0.446628 0.898602 0.123813 -0.200915
O5    O     O_3   0.238340 0.884231 0.003652 -0.511874
O6    O     O_2   0.559046 0.108541 0.863591 -0.266953
O7    O     O_2   0.835703 0.246581 0.865130 -0.312242
O8    O     O_3   0.727411 0.091767 0.997497 -0.434207
O9    O     O_3   0.719592 0.008658 0.451549 -0.587146
O10   O     O_3   0.288472 0.994673 0.563063 -0.600982
O11   O     O_2   0.064527 0.507283 0.316985 -0.290595
O12   O     O_R   0.610750 0.261430 0.494430 -0.592915
O13   O     O_2   0.161845 0.272932 0.377243 -0.302703
O14   O     O_3   0.858356 0.269653 0.336603 -0.486860
O15   O     O_2   0.123770 0.707817 0.663139 -0.282963
O16   O     O_2   0.839014 0.723477 0.624831 -0.313451
O17   O     O_3   0.925228 0.468099 0.688175 -0.535628
O18   O     O_R   0.678390 0.711630 0.491020 -0.594283
O19   O     O_R   0.321610 0.288370 0.508980 -0.597637
O20   O     O_R   0.355460 0.513480 0.630490 -0.612678
O21   O     O_R   0.644540 0.486520 0.369510 -0.562276
O22   O     O_R   0.644600 0.486540 0.615950 -0.541574
O23   O     O_R   0.355400 0.513460 0.384050 -0.547880
O24   O     O_3   0.659913 0.759953 0.940680 -0.544262
S1    S     S_3+6 0.320752 0.792049 0.080606 0.096990
S2    S     S_3+6 0.677422 0.200750 0.919042 0.069376
S3    S     S_3+6 0.017594 0.378993 0.376029 0.130652
S4    S     S_3+6 0.981501 0.615175 0.624997 0.121059
Zn1   Zn    Zn3+2 0.306940 0.517990 0.509710 1.127918
Zn2   Zn    Zn3+2 0.693060 0.482010 0.490290 1.139781

loop_
_geom_bond_atom_site_label_1
_geom_bond_atom_site_label_2
_ccdc_geom_bond_type
O3    S1    D    
H18   O5    S    
O1    Zn1   S    
C22   O24   S    
C3    C9    T    
O7    S2    D    
O15   S4    D    
C7    C22   S    
N1    N2    D    
C20   S1    S    
C17   O23   A    
C14   O9    S    
C11   O24   S    
O11   S3    D    
O19   Zn1   S    
C2    C21   S    
C11   H13   S    
C13   H16   S    
O4    S1    D    
C21   S2    S    
C5    C20   S    
O13   S3    D    
C15   O10   S    
C14   H4    S    
C2    O2    S    
C12   O19   A    
C1    C18   S    
C15   H6    S    
C8    C20   S    
C16   O20   A    
N1    Zn2   S    
C4    C17   S    
C12   C19   S    
C8    C10   S    
C11   H14   S    
C20   C22   S    
O20   Zn1   S    
C15   H7    S    
H9    O14   S    
C5    C7    S    
O22   Zn2   S    
C14   H3    S    
H2    O8    S    
C14   H5    S    
C12   O12   A    
C13   H17   S    
C2    C5    S    
C6    H1    S    
O17   S4    S    
C4    C10   T    
C6    C22   S    
C7    C9    S    
N2    S4    S    
O12   Zn2   S    
O21   Zn2   S    
C15   H8    S    
N1    S3    S    
O14   S3    S    
C17   O21   A    
C1    O18   A    
O5    S1    S    
C18   O9    S    
C18   C19   D    
O18   Zn2   S    
O16   S4    D    
N2    Zn1   S    
C2    C8    S    
C6    C8    S    
C16   O22   A    
H10   O17   S    
O8    S2    S    
C13   O2    S    
C7    C21   S    
C6    C21   S    
C13   H15   S    
C19   O10   S    
C1    O1    A    
C11   H12   S    
O6    S2    D    
C3    C16   S    
O23   Zn1   S    
C5    H11   S    
