data_mof_unit_49850.cif
_audit_creation_date              2012-12-10T19:42:13-0500
_audit_creation_method            fapswitch 2.2
_symmetry_space_group_name_H-M    P1
_symmetry_Int_Tables_number       1
_space_group_crystal_system       triclinic
_cell_length_a                    10.844849
_cell_length_b                    10.927252
_cell_length_c                    9.703058
_cell_angle_alpha                 89.508367
_cell_angle_beta                  89.981191
_cell_angle_gamma                 90.836726
_cell_volume                      1149.68999242

loop_
_atom_site_label
_atom_site_type_symbol
_atom_type_description
_atom_site_fract_x
_atom_site_fract_y
_atom_site_fract_z
_atom_type_partial_charge
C1    C     C_R   0.500824 0.265406 0.500471 0.864422
C2    C     C_R   0.240201 0.701929 0.024287 -0.112018
C3    C     C_R   0.933919 0.542529 0.384977 -0.223888
C4    C     C_R   0.871560 0.497503 0.501534 -0.036930
C5    C     C_R   0.938265 0.456756 0.617920 0.046943
C6    C     C_R   0.065775 0.464114 0.615446 -0.208945
C7    C     C_R   0.128417 0.507901 0.498661 -0.085070
C8    C     C_R   0.061850 0.549345 0.382258 0.002021
C9    C     C_R   0.870712 0.480072 0.859490 -0.156069
C10   C     C_R   0.810292 0.439292 0.978499 -0.153668
C11   C     C_R   0.757499 0.322429 0.983556 -0.112898
C12   C     C_R   0.262413 0.503877 0.499609 0.806828
C13   C     C_R   0.765570 0.245428 0.869929 -0.138638
C14   C     C_R   0.826654 0.284081 0.748567 0.015884
C15   C     C_R   0.878651 0.404502 0.743427 0.054420
C16   C     C_2   0.504236 0.933956 0.386695 -0.169298
C17   C     C_2   0.491834 0.866310 0.501627 -0.306825
C18   C     C_2   0.499363 0.067909 0.387204 -0.158584
C19   C     C_2   0.504722 0.133421 0.503370 -0.282208
C20   C     C_2   0.447580 0.414022 0.925489 0.055809
C21   C     C_2   0.436160 0.422802 0.079633 -0.100551
C22   C     C_R   0.498441 0.734541 0.499692 0.835463
C23   C     C_R   0.737618 0.497966 0.500380 0.793508
C24   C     C_R   0.250346 0.761463 0.150823 -0.105525
C25   C     C_R   0.191114 0.712769 0.267476 -0.097900
C26   C     C_R   0.121824 0.603441 0.258188 0.121456
C27   C     C_R   0.111014 0.544818 0.130389 -0.150802
C28   C     C_R   0.170302 0.593936 0.014032 -0.143444
Cu1   Cu    Cu3+1 0.500020 0.500020 0.638630 0.975692
Cu2   Cu    Cu3+1 0.499980 0.499980 0.361370 0.950014
H1    H     H_    0.286591 0.739358 0.934222 0.133071
H2    H     H_    0.710118 0.291273 0.075903 0.158426
H3    H     H_    0.724123 0.154902 0.877775 0.189785
H4    H     H_    0.517475 0.890334 0.287700 0.167984
H5    H     H_    0.474552 0.905960 0.601358 0.159385
H6    H     H_    0.493466 0.113469 0.287496 0.177797
H7    H     H_    0.515047 0.092054 0.604227 0.187582
H8    H     H_    0.526816 0.578671 0.892810 0.187492
H9    H     H_    0.375338 0.358097 0.132600 0.164265
H10   H     H_    0.304364 0.845174 0.158597 0.130070
H11   H     H_    0.563024 0.553812 0.104616 0.189256
H12   H     H_    0.200207 0.759298 0.365158 0.107276
H13   H     H_    0.058412 0.460249 0.121527 0.145518
H14   H     H_    0.162883 0.547808 0.916157 0.146342
H15   H     H_    0.882804 0.576148 0.296761 0.145852
H16   H     H_    0.115989 0.432158 0.704637 0.194210
H17   H     H_    0.909901 0.571841 0.856803 0.135995
H18   H     H_    0.803769 0.498744 0.066713 0.132429
N1    N     N_2   0.498640 0.498660 0.846910 -0.317492
N2    N     N_2   0.498610 0.498630 0.153040 -0.288549
O1    O     O_R   0.500020 0.321960 0.617040 -0.558922
O2    O     O_R   0.499980 0.321920 0.382900 -0.580773
O3    O     O_R   0.319660 0.500030 0.617070 -0.553643
O4    O     O_R   0.319620 0.499990 0.382930 -0.566873
O5    O     O_R   0.500020 0.678080 0.617100 -0.587826
O6    O     O_R   0.499980 0.678040 0.382960 -0.577603
O7    O     O_R   0.680380 0.500010 0.617070 -0.574085
O8    O     O_R   0.680340 0.499970 0.382930 -0.587935
C29   C     C_2   0.834902 0.196186 0.632064 0.793544
O9    O     O_2   0.897388 0.220133 0.530228 -0.597657
O10   O     O_R   0.772025 0.083621 0.640024 -0.783297
H19   H     H_    0.784101 0.031818 0.555000 0.341719
C30   C     C_2   0.396205 0.299980 0.867979 0.898110
O11   O     O_2   0.442015 0.202203 0.900032 -0.643046
O12   O     O_R   0.291915 0.302475 0.784064 -0.768135
H20   H     H_    0.264940 0.217925 0.752831 0.320525

loop_
_geom_bond_atom_site_label_1
_geom_bond_atom_site_label_2
_ccdc_geom_bond_type
C25   H12   S    
C23   O8    A    
C22   O6    A    
C30   O12   S    
C18   H6    S    
C13   H3    S    
C22   O5    A    
C20   N1    D    
C17   H5    S    
C9    C10   A    
Cu1   O5    S    
C17   C22   S    
C21   H9    S    
C25   C26   A    
O10   H19   S    
C20   C30   S    
Cu2   N2    S    
C29   O9    D    
H8    N1    S    
Cu1   N1    S    
C13   C14   A    
C24   C25   A    
C10   H18   S    
C14   C29   S    
Cu2   O4    S    
C6    H16   S    
C26   C27   A    
Cu1   Cu2   S    
Cu1   O3    S    
Cu2   O8    S    
C21   N2    D    
C24   H10   S    
Cu1   O7    S    
C11   H2    S    
O12   H20   S    
C6    C7    A    
C3    C8    A    
C2    C24   A    
C5    C6    A    
C1    O2    A    
C7    C12   S    
C29   O10   S    
C11   C13   A    
C5    C15   S    
C10   C11   A    
C30   O11   D    
C3    C4    A    
C27   H13   S    
H11   N2    S    
C7    C8    A    
C8    C26   S    
C20   C21   S    
C28   H14   S    
C16   C18   S    
C18   C19   D    
Cu1   O1    S    
C27   C28   A    
C23   O7    A    
C4    C23   S    
Cu2   O2    S    
C14   C15   A    
C2    H1    S    
C2    C28   A    
C1    O1    A    
C19   H7    S    
C16   H4    S    
C9    H17   S    
C9    C15   A    
C1    C19   S    
Cu2   O6    S    
C3    H15   S    
C12   O4    A    
C12   O3    A    
C16   C17   D    
C4    C5    A    
