data_mof_unit_62026.cif
_audit_creation_date              2012-12-10T19:15:21-0500
_audit_creation_method            fapswitch 2.2
_symmetry_space_group_name_H-M    P1
_symmetry_Int_Tables_number       1
_space_group_crystal_system       triclinic
_cell_length_a                    44.302501
_cell_length_b                    38.885497
_cell_length_c                    21.48806
_cell_angle_alpha                 89.999972
_cell_angle_beta                  118.610992
_cell_angle_gamma                 90.0
_cell_volume                      32497.7852251

loop_
_atom_site_label
_atom_site_type_symbol
_atom_type_description
_atom_site_fract_x
_atom_site_fract_y
_atom_site_fract_z
_atom_type_partial_charge
Br1   Br    Br    0.954470 0.061812 0.266728 -0.421620
Br2   Br    Br    0.517025 0.818279 0.149015 -0.488196
Br3   Br    Br    0.982975 0.318279 0.850984 -0.488196
Br4   Br    Br    0.017025 0.318279 0.149016 -0.488196
Br5   Br    Br    0.482680 0.181618 0.114978 -0.488310
Br6   Br    Br    0.517320 0.181618 0.885022 -0.488310
Br7   Br    Br    0.982680 0.681618 0.114977 -0.488311
Br8   Br    Br    0.017320 0.681618 0.885023 -0.488310
Br9   Br    Br    0.971812 0.069690 0.138282 -0.445615
Br10  Br    Br    0.028187 0.069690 0.861718 -0.445616
Br11  Br    Br    0.471812 0.569690 0.138281 -0.445615
Br12  Br    Br    0.045530 0.061812 0.733271 -0.421619
Br13  Br    Br    0.528187 0.569690 0.861718 -0.445615
Br14  Br    Br    0.454469 0.561812 0.266728 -0.421621
Br15  Br    Br    0.545530 0.561812 0.733271 -0.421620
Br16  Br    Br    0.289695 0.064137 0.870370 -0.488167
Br17  Br    Br    0.710305 0.064136 0.129629 -0.488167
Br18  Br    Br    0.789695 0.564142 0.870358 -0.488167
Br19  Br    Br    0.210305 0.564134 0.129623 -0.488166
Br20  Br    Br    0.482975 0.818279 0.850985 -0.488196
C1    C     C_R   0.067260 0.000044 0.567240 0.864583
C2    C     C_R   0.622790 0.996734 0.065515 -0.171928
C3    C     C_R   0.567179 0.000014 0.066966 0.869210
C4    C     C_R   0.932821 0.500014 0.933034 0.869211
C5    C     C_R   0.067179 0.500014 0.066966 0.869209
C6    C     C_R   0.500000 0.067128 1.000000 0.912162
C7    C     C_R   0.000000 0.567128 1.000000 0.912162
C8    C     C_R   0.493539 0.877138 0.938393 -0.208926
C9    C     C_R   0.506461 0.877138 0.061607 -0.208926
C10   C     C_R   0.993539 0.377138 0.938393 -0.208927
C11   C     C_R   0.006461 0.377138 0.061607 -0.208926
C12   C     C_R   0.493369 0.841388 0.937977 0.260664
C13   C     C_R   0.877210 0.496737 0.934485 -0.171929
C14   C     C_R   0.506631 0.841388 0.062023 0.260665
C15   C     C_R   0.993369 0.341388 0.937977 0.260665
C16   C     C_R   0.006631 0.341388 0.062023 0.260664
C17   C     C_R   0.500000 0.823381 0.000000 -0.069454
C18   C     C_R   0.000000 0.323381 0.000000 -0.069454
C19   C     C_R   0.500000 0.895178 0.000000 -0.148448
C20   C     C_R   0.000000 0.395178 0.000000 -0.148447
C21   C     C_R   0.473083 0.768114 0.002042 -0.089814
C22   C     C_R   0.526917 0.768114 0.997958 -0.089815
C23   C     C_R   0.973083 0.268114 0.002043 -0.089815
C24   C     C_R   0.122789 0.496733 0.065515 -0.171928
C25   C     C_R   0.026916 0.268114 0.997957 -0.089815
C26   C     C_3   0.001549 0.037648 0.213810 0.073961
C27   C     C_3   0.998451 0.037647 0.786190 0.073962
C28   C     C_3   0.501548 0.537647 0.213810 0.073962
C29   C     C_3   0.498451 0.537647 0.786190 0.073960
C30   C     C_R   0.973125 0.232392 0.002296 -0.161752
C31   C     C_R   0.026875 0.232392 0.997704 -0.161751
C32   C     C_R   0.473125 0.732391 0.002296 -0.161752
C33   C     C_R   0.526875 0.732392 0.997704 -0.161751
C34   C     C_R   0.000000 0.214305 0.000000 0.092330
C35   C     C_R   0.341502 0.997384 0.899472 -0.101869
C36   C     C_R   0.500000 0.714305 0.000000 0.092329
C37   C     C_R   0.500000 0.785943 0.000000 0.167052
C38   C     C_R   0.000000 0.285943 0.000000 0.167052
C39   C     C_R   0.969444 0.158540 0.958448 -0.145064
C40   C     C_R   0.030556 0.158540 0.041552 -0.145064
C41   C     C_R   0.469444 0.658540 0.958447 -0.145063
C42   C     C_R   0.530556 0.658540 0.041553 -0.145063
C43   C     C_R   0.969416 0.122820 0.958629 -0.135787
C44   C     C_R   0.030583 0.122820 0.041371 -0.135787
C45   C     C_R   0.469416 0.622820 0.958628 -0.135788
C46   C     C_R   0.658498 0.997383 0.100528 -0.101868
C47   C     C_R   0.530583 0.622820 0.041372 -0.135789
C48   C     C_R   0.000000 0.104754 0.000000 -0.018013
C49   C     C_R   0.500000 0.604754 0.000000 -0.018012
C50   C     C_R   0.000000 0.176619 0.000000 0.113457
C51   C     C_R   0.500000 0.676619 0.000000 0.113457
C52   C     C_R   0.493415 0.122756 0.048676 -0.200296
C53   C     C_R   0.506585 0.122756 0.951324 -0.200296
C54   C     C_R   0.993414 0.622755 0.048675 -0.200296
C55   C     C_R   0.006585 0.622756 0.951324 -0.200296
C56   C     C_R   0.493245 0.158508 0.048754 0.263017
C57   C     C_R   0.841502 0.497387 0.899472 -0.101868
C58   C     C_R   0.506755 0.158508 0.951245 0.263017
C59   C     C_R   0.993245 0.658508 0.048754 0.263017
C60   C     C_R   0.006756 0.658508 0.951246 0.263017
C61   C     C_R   0.500000 0.176519 1.000000 -0.070690
C62   C     C_R   0.000000 0.676519 1.000000 -0.070690
C63   C     C_3   0.967781 0.979734 0.254308 -0.379627
C64   C     C_3   0.032219 0.979734 0.745692 -0.379628
C65   C     C_3   0.467781 0.479734 0.254308 -0.379626
C66   C     C_3   0.532219 0.479734 0.745692 -0.379626
C67   C     C_R   0.500000 0.104710 1.000000 -0.149545
C68   C     C_R   0.158498 0.497382 0.100528 -0.101869
C69   C     C_R   0.000000 0.604710 1.000000 -0.149545
C70   C     C_R   0.526863 0.231799 0.055298 -0.088601
C71   C     C_R   0.473137 0.231799 0.944702 -0.088600
C72   C     C_R   0.026862 0.731799 0.055298 -0.088600
C73   C     C_R   0.973137 0.731799 0.944702 -0.088600
C74   C     C_R   0.026822 0.767525 0.055466 -0.171543
C75   C     C_R   0.973178 0.767525 0.944534 -0.171541
C76   C     C_R   0.526822 0.267525 0.055466 -0.171542
C77   C     C_R   0.473178 0.267525 0.944534 -0.171543
C78   C     C_R   1.000000 0.785618 1.000000 0.093624
C79   C     C_R   0.323550 0.002052 0.825972 0.137962
C80   C     C_R   0.500000 0.285618 1.000000 0.093624
C81   C     C_R   0.500000 0.213966 1.000000 0.168946
C82   C     C_R   0.000000 0.713966 1.000000 0.168945
C83   C     C_R   0.969418 0.841400 0.980949 -0.163865
C84   C     C_R   0.030582 0.841400 0.019051 -0.163865
C85   C     C_R   0.469418 0.341400 0.980949 -0.163864
C86   C     C_R   0.530582 0.341400 0.019050 -0.163866
C87   C     C_R   0.969390 0.877127 0.980709 -0.189172
C88   C     C_R   0.030610 0.877127 0.019291 -0.189174
C89   C     C_R   0.469390 0.377127 0.980710 -0.189173
C90   C     C_R   0.676450 0.002052 0.174028 0.137962
C91   C     C_R   0.530610 0.377127 0.019290 -0.189172
C92   C     C_R   1.000000 0.895203 1.000000 -0.035527
C93   C     C_R   0.500000 0.395203 1.000000 -0.035527
C94   C     C_R   1.000000 0.823315 1.000000 0.118500
C95   C     C_R   0.500000 0.323315 1.000000 0.118500
C96   C     C_3   0.032311 0.983417 0.318523 -0.487075
C97   C     C_3   0.967689 0.983417 0.681477 -0.487077
C98   C     C_3   0.532311 0.483417 0.318524 -0.487077
C99   C     C_3   0.467689 0.483417 0.681477 -0.487076
C100  C     C_3   0.998887 0.000690 0.309250 0.044137
C101  C     C_R   0.823550 0.502052 0.825971 0.137961
C102  C     C_3   0.001113 0.000690 0.690750 0.044138
C103  C     C_3   0.498887 0.500690 0.309250 0.044137
C104  C     C_3   0.501113 0.500690 0.690750 0.044138
C105  C     C_3   0.999451 0.999716 0.188856 0.048450
C106  C     C_3   0.000549 0.999716 0.811144 0.048450
C107  C     C_3   0.499451 0.499716 0.188856 0.048450
C108  C     C_3   0.500549 0.499716 0.811144 0.048450
C109  C     C_3   0.966176 0.982410 0.181489 -0.366449
C110  C     C_3   0.033824 0.982410 0.818511 -0.366449
C111  C     C_3   0.466177 0.482410 0.181489 -0.366449
C112  C     C_R   0.932740 0.000044 0.432760 0.864583
C113  C     C_R   0.176450 0.502052 0.174028 0.137962
C114  C     C_3   0.533824 0.482410 0.818511 -0.366449
C115  C     C_R   0.341373 0.005302 0.787313 -0.152548
C116  C     C_R   0.658627 0.005303 0.212687 -0.152547
C117  C     C_R   0.841373 0.505299 0.787312 -0.152548
C118  C     C_R   0.158627 0.505304 0.212687 -0.152548
C119  C     C_R   0.377091 0.004495 0.822193 -0.176562
C120  C     C_R   0.622909 0.004496 0.177806 -0.176563
C121  C     C_R   0.877091 0.504492 0.822193 -0.176562
C122  C     C_R   0.122909 0.504497 0.177806 -0.176563
C123  C     C_R   0.395246 0.000362 0.896077 -0.044257
C124  C     C_R   0.567260 0.500044 0.567240 0.864584
C125  C     C_R   0.604754 0.000362 0.103923 -0.044257
C126  C     C_R   0.895246 0.500362 0.896077 -0.044259
C127  C     C_R   0.104754 0.500362 0.103923 -0.044257
C128  C     C_R   0.268611 0.977163 0.737718 -0.219800
C129  C     C_R   0.731389 0.977163 0.262282 -0.219801
C130  C     C_R   0.768611 0.477161 0.737723 -0.219799
C131  C     C_R   0.231389 0.477164 0.262284 -0.219800
C132  C     C_R   0.232934 0.976549 0.701889 -0.171317
C133  C     C_R   0.767066 0.976549 0.298111 -0.171318
C134  C     C_R   0.732934 0.476547 0.701893 -0.171317
C135  C     C_R   0.432740 0.500044 0.432760 0.864584
C136  C     C_R   0.267066 0.476550 0.298114 -0.171316
C137  C     C_R   0.214321 0.001228 0.717005 0.048086
C138  C     C_R   0.785679 0.001228 0.282994 0.048085
C139  C     C_R   0.714322 0.501228 0.717006 0.048088
C140  C     C_R   0.285679 0.501228 0.282994 0.048086
C141  C     C_R   0.999382 0.000180 0.377925 0.873525
C142  C     C_R   0.000618 0.000180 0.622074 0.873526
C143  C     C_R   0.499382 0.500180 0.377925 0.873526
C144  C     C_R   0.500618 0.500180 0.622074 0.873526
C145  C     C_R   0.231783 0.026593 0.768222 -0.200377
C146  C     C_3   0.031003 0.979810 0.246202 -0.457340
C147  C     C_R   0.768217 0.026593 0.231777 -0.200377
C148  C     C_R   0.731783 0.526595 0.768218 -0.200378
C149  C     C_R   0.268217 0.526592 0.231774 -0.200379
C150  C     C_R   0.267547 0.027430 0.804140 0.283766
C151  C     C_R   0.732453 0.027430 0.195860 0.283767
C152  C     C_R   0.767547 0.527432 0.804135 0.283767
C153  C     C_R   0.232453 0.527429 0.195857 0.283766
C154  C     C_R   0.286067 0.002399 0.789045 0.016249
C155  C     C_R   0.713933 0.002399 0.210955 0.016249
C156  C     C_R   0.786068 0.502399 0.789045 0.016248
C157  C     C_3   0.968997 0.979810 0.753798 -0.457338
C158  C     C_R   0.213932 0.502399 0.210955 0.016249
C159  C     C_R   0.158806 0.969691 0.667134 -0.163167
C160  C     C_R   0.841194 0.969691 0.332866 -0.163168
C161  C     C_R   0.658806 0.469690 0.667134 -0.163167
C162  C     C_R   0.341194 0.469690 0.332869 -0.163168
C163  C     C_R   0.123079 0.969368 0.630522 -0.190231
C164  C     C_R   0.876921 0.969368 0.369479 -0.190230
C165  C     C_R   0.623079 0.469368 0.630521 -0.190232
C166  C     C_R   0.376921 0.469368 0.369482 -0.190232
C167  C     C_R   0.104822 0.000213 0.605205 -0.042428
C168  C     C_3   0.531003 0.479810 0.246203 -0.457338
C169  C     C_R   0.895178 0.000213 0.394795 -0.042430
C170  C     C_R   0.604822 0.500213 0.605205 -0.042428
C171  C     C_R   0.395178 0.500213 0.394795 -0.042430
C172  C     C_R   0.122727 0.031344 0.616734 -0.161568
C173  C     C_R   0.877273 0.031344 0.383266 -0.161567
C174  C     C_R   0.622726 0.531344 0.616734 -0.161567
C175  C     C_R   0.377273 0.531344 0.383263 -0.161565
C176  C     C_R   0.158419 0.031632 0.653065 -0.159974
C177  C     C_R   0.841581 0.031632 0.346934 -0.159973
C178  C     C_R   0.658419 0.531632 0.653065 -0.159973
C179  C     C_3   0.468997 0.479810 0.753798 -0.457338
C180  C     C_R   0.341581 0.531633 0.346931 -0.159974
C181  C     C_R   0.176667 0.000830 0.678619 0.127362
C182  C     C_R   0.823333 0.000830 0.321381 0.127362
C183  C     C_R   0.676667 0.500830 0.678619 0.127364
C184  C     C_R   0.323333 0.500830 0.321380 0.127363
C185  C     C_R   0.000000 0.067210 0.000000 0.942937
C186  C     C_R   0.500000 0.567210 0.000000 0.942936
C187  C     C_3   0.996822 0.038406 0.280902 0.138111
C188  C     C_3   0.003178 0.038406 0.719097 0.138112
C189  C     C_3   0.496821 0.538406 0.280902 0.138112
C190  C     C_R   0.377210 0.996734 0.934485 -0.171929
C191  C     C_3   0.503178 0.538406 0.719097 0.138113
C192  C     C_R   0.999892 0.998645 0.121216 0.894407
C193  C     C_R   0.000108 0.998645 0.878783 0.894408
C194  C     C_R   0.499892 0.498645 0.121216 0.894407
C195  C     C_R   0.500108 0.498645 0.878783 0.894408
C196  C     C_R   1.000000 0.932763 0.000000 0.838884
C197  C     C_R   0.500000 0.432763 0.000000 0.838884
C198  C     C_R   0.500000 0.932750 0.000000 0.905193
C199  C     C_R   0.000000 0.432750 0.000000 0.905193
C200  C     C_R   0.432821 0.000014 0.933034 0.869210
H1    H     H_    0.029149 0.952141 0.231445 0.192347
H2    H     H_    0.036940 0.956226 0.841783 0.159497
H3    H     H_    0.554364 0.327915 0.032931 0.140615
H4    H     H_    0.945500 0.890557 0.966080 0.160127
H5    H     H_    0.054500 0.890557 0.033919 0.160128
H6    H     H_    0.445500 0.390557 0.966081 0.160127
H7    H     H_    0.554500 0.390557 0.033919 0.160127
H8    H     H_    0.943282 0.989044 0.250814 0.198708
H9    H     H_    0.056718 0.989044 0.749186 0.198708
H10   H     H_    0.443282 0.489044 0.250814 0.198708
H11   H     H_    0.556718 0.489044 0.749186 0.198708
H12   H     H_    0.943184 0.997755 0.145396 0.236326
H13   H     H_    0.463061 0.456226 0.158218 0.159496
H14   H     H_    0.056816 0.997755 0.854603 0.236326
H15   H     H_    0.443184 0.497754 0.145396 0.236326
H16   H     H_    0.556816 0.497755 0.854603 0.236326
H17   H     H_    0.035742 0.957460 0.342883 0.211968
H18   H     H_    0.964258 0.957459 0.657118 0.211969
H19   H     H_    0.535742 0.457460 0.342883 0.211969
H20   H     H_    0.464258 0.457459 0.657118 0.211968
H21   H     H_    0.054968 0.999217 0.354546 0.167556
H22   H     H_    0.945032 0.999216 0.645454 0.167556
H23   H     H_    0.554968 0.499217 0.354546 0.167557
H24   H     H_    0.536940 0.456226 0.841783 0.159497
H25   H     H_    0.445032 0.499216 0.645454 0.167556
H26   H     H_    0.055521 0.989839 0.250807 0.200173
H27   H     H_    0.944479 0.989839 0.749193 0.200172
H28   H     H_    0.555521 0.489840 0.250807 0.200173
H29   H     H_    0.444479 0.489839 0.749193 0.200172
H30   H     H_    0.390636 0.993247 0.991440 0.166739
H31   H     H_    0.609364 0.993246 0.008560 0.166739
H32   H     H_    0.890636 0.493253 0.991441 0.166740
H33   H     H_    0.109364 0.493244 0.008560 0.166739
H34   H     H_    0.327831 0.994180 0.929521 0.158913
H35   H     H_    0.672169 0.994179 0.070479 0.158913
H36   H     H_    0.827831 0.494185 0.929521 0.158913
H37   H     H_    0.970851 0.952141 0.768555 0.192346
H38   H     H_    0.172169 0.494176 0.070480 0.158913
H39   H     H_    0.327598 0.008666 0.730310 0.145177
H40   H     H_    0.672402 0.008667 0.269689 0.145177
H41   H     H_    0.827598 0.508661 0.730309 0.145178
H42   H     H_    0.172402 0.508670 0.269689 0.145177
H43   H     H_    0.390435 0.007318 0.791428 0.165759
H44   H     H_    0.609565 0.007319 0.208571 0.165760
H45   H     H_    0.890435 0.507313 0.791428 0.165761
H46   H     H_    0.109565 0.507322 0.208570 0.165759
H47   H     H_    0.282688 0.957860 0.725656 0.157358
H48   H     H_    0.529150 0.452141 0.231446 0.192347
H49   H     H_    0.717312 0.957860 0.274345 0.157359
H50   H     H_    0.782688 0.457857 0.725664 0.157358
H51   H     H_    0.217312 0.457862 0.274349 0.157358
H52   H     H_    0.219885 0.957078 0.661779 0.144944
H53   H     H_    0.780115 0.957078 0.338222 0.144944
H54   H     H_    0.719885 0.457075 0.661786 0.144942
H55   H     H_    0.280115 0.457080 0.338226 0.144944
H56   H     H_    0.217626 0.045723 0.780439 0.173176
H57   H     H_    0.782374 0.045723 0.219560 0.173176
H58   H     H_    0.717626 0.545727 0.780432 0.173174
H59   H     H_    0.470851 0.452141 0.768555 0.192346
H60   H     H_    0.282374 0.545721 0.219555 0.173176
H61   H     H_    0.018378 0.053812 0.321832 0.113278
H62   H     H_    0.981622 0.053813 0.678168 0.113279
H63   H     H_    0.518377 0.553813 0.321831 0.113279
H64   H     H_    0.481622 0.553813 0.678168 0.113279
H65   H     H_    0.172473 0.945694 0.687197 0.138086
H66   H     H_    0.827527 0.945694 0.312803 0.138086
H67   H     H_    0.672473 0.445694 0.687197 0.138084
H68   H     H_    0.327527 0.445694 0.312809 0.138086
H69   H     H_    0.109800 0.945052 0.622550 0.161147
H70   H     H_    0.970517 0.952230 0.270551 0.189162
H71   H     H_    0.890200 0.945052 0.377451 0.161147
H72   H     H_    0.609800 0.445052 0.622549 0.161147
H73   H     H_    0.390200 0.445052 0.377457 0.161147
H74   H     H_    0.109203 0.055465 0.597386 0.170415
H75   H     H_    0.890796 0.055465 0.402614 0.170415
H76   H     H_    0.609203 0.555465 0.597387 0.170415
H77   H     H_    0.390796 0.555465 0.402607 0.170417
H78   H     H_    0.171772 0.055869 0.660495 0.146571
H79   H     H_    0.828227 0.055869 0.339504 0.146571
H80   H     H_    0.671772 0.555869 0.660495 0.146569
H81   H     H_    0.029483 0.952230 0.729449 0.189162
H82   H     H_    0.328228 0.555869 0.339498 0.146572
H83   H     H_    0.488244 0.890752 0.890246 0.196602
H84   H     H_    0.511756 0.890752 0.109754 0.196602
H85   H     H_    0.988243 0.390752 0.890246 0.196602
H86   H     H_    0.011757 0.390752 0.109754 0.196602
H87   H     H_    0.452233 0.781902 0.003719 0.155549
H88   H     H_    0.547767 0.781902 0.996281 0.155549
H89   H     H_    0.952233 0.281902 0.003720 0.155549
H90   H     H_    0.047767 0.281902 0.996280 0.155549
H91   H     H_    0.952403 0.218917 0.005050 0.148057
H92   H     H_    0.470518 0.452230 0.270551 0.189162
H93   H     H_    0.047597 0.218917 0.994951 0.148057
H94   H     H_    0.452403 0.718917 0.005049 0.148057
H95   H     H_    0.547597 0.718917 0.994952 0.148057
H96   H     H_    0.945686 0.172026 0.925210 0.140777
H97   H     H_    0.054314 0.172026 0.074790 0.140777
H98   H     H_    0.445686 0.672026 0.925210 0.140776
H99   H     H_    0.554314 0.672026 0.074790 0.140776
H100  H     H_    0.027931 0.047212 0.229457 0.106020
H101  H     H_    0.972069 0.047212 0.770543 0.106020
H102  H     H_    0.527931 0.547212 0.229456 0.106020
H103  H     H_    0.529483 0.452230 0.729449 0.189161
H104  H     H_    0.472068 0.547212 0.770543 0.106020
H105  H     H_    0.945548 0.109390 0.925931 0.162243
H106  H     H_    0.054452 0.109390 0.074069 0.162243
H107  H     H_    0.445548 0.609390 0.925931 0.162243
H108  H     H_    0.554452 0.609390 0.074069 0.162243
H109  H     H_    0.488020 0.109145 0.086231 0.198064
H110  H     H_    0.511980 0.109145 0.913769 0.198064
H111  H     H_    0.988019 0.609145 0.086230 0.198064
H112  H     H_    0.011981 0.609145 0.913770 0.198064
H113  H     H_    0.547672 0.218012 0.098230 0.155453
H114  H     H_    0.963060 0.956226 0.158217 0.159497
H115  H     H_    0.452328 0.218012 0.901769 0.155453
H116  H     H_    0.047672 0.718012 0.098231 0.155453
H117  H     H_    0.952328 0.718012 0.901769 0.155453
H118  H     H_    0.047503 0.780997 0.099218 0.139634
H119  H     H_    0.952497 0.780997 0.900782 0.139634
H120  H     H_    0.547503 0.280997 0.099217 0.139634
H121  H     H_    0.452497 0.280997 0.900782 0.139634
H122  H     H_    0.945636 0.827915 0.967068 0.140615
H123  H     H_    0.054364 0.827915 0.032932 0.140615
H124  H     H_    0.445636 0.327915 0.967069 0.140615
O1    O     O_R   0.050910 0.028760 0.550880 -0.606931
O2    O     O_R   0.550890 0.000020 0.998620 -0.619972
O3    O     O_R   0.949110 0.500020 0.001380 -0.619974
O4    O     O_R   0.050890 0.500020 0.998620 -0.619972
O5    O     O_R   0.500000 0.050860 0.947620 -0.618065
O6    O     O_R   0.500000 0.050860 0.052380 -0.618065
O7    O     O_R   0.000000 0.550860 0.947620 -0.618064
O8    O     O_R   0.000000 0.550860 0.052380 -0.618066
O9    O     O_R   0.050940 0.971280 0.550860 -0.630230
O10   O     O_R   0.949060 0.971280 0.449140 -0.630229
O11   O     O_R   0.550940 0.471280 0.550860 -0.630230
O12   O     O_R   0.949090 0.028760 0.449120 -0.606930
O13   O     O_R   0.449060 0.471280 0.449140 -0.630229
O14   O     O_R   0.000010 0.028760 0.407400 -0.596057
O15   O     O_R   0.999990 0.028760 0.592600 -0.596058
O16   O     O_R   0.500010 0.528760 0.407400 -0.596058
O17   O     O_R   0.499990 0.528760 0.592600 -0.596058
O18   O     O_R   0.000040 0.971280 0.407380 -0.632278
O19   O     O_R   0.999960 0.971280 0.592620 -0.632278
O20   O     O_R   0.500040 0.471280 0.407380 -0.632278
O21   O     O_R   0.499960 0.471280 0.592620 -0.632278
O22   O     O_R   0.028770 0.050900 0.028770 -0.605680
O23   O     O_R   0.550910 0.528760 0.550880 -0.606931
O24   O     O_R   0.971230 0.050900 0.971230 -0.605678
O25   O     O_R   0.528770 0.550900 0.028770 -0.605680
O26   O     O_R   0.471230 0.550900 0.971230 -0.605678
O27   O     O_R   0.028750 1.000000 0.121310 -0.637615
O28   O     O_R   0.971250 1.000000 0.878690 -0.637615
O29   O     O_R   0.528750 0.500000 0.121310 -0.637615
O30   O     O_R   0.471250 0.500000 0.878690 -0.637615
O31   O     O_R   0.971270 0.000040 0.063860 -0.596685
O32   O     O_R   0.028730 0.000040 0.936140 -0.596684
O33   O     O_R   0.471270 0.500040 0.063860 -0.596684
O34   O     O_R   0.449090 0.528760 0.449120 -0.606931
O35   O     O_R   0.528730 0.500040 0.936140 -0.596684
O36   O     O_R   0.028750 0.949090 0.028660 -0.631309
O37   O     O_R   0.971250 0.949090 0.971340 -0.631309
O38   O     O_R   0.528750 0.449090 0.028660 -0.631309
O39   O     O_R   0.471250 0.449090 0.971340 -0.631309
O40   O     O_R   0.500050 0.949040 0.947810 -0.620368
O41   O     O_R   0.499950 0.949040 0.052190 -0.620368
O42   O     O_R   0.000050 0.449040 0.947810 -0.620369
O43   O     O_R   0.999950 0.449040 0.052190 -0.620368
O44   O     O_R   0.449110 0.999950 0.896830 -0.622477
O45   O     O_R   0.550890 0.999950 0.103170 -0.622477
O46   O     O_R   0.949110 0.499950 0.896830 -0.622477
O47   O     O_R   0.050890 0.499950 0.103170 -0.622477
O48   O     O_R   0.449110 0.000020 0.001380 -0.619973
Zn1   Zn    Zn3+2 0.000000 0.038400 0.500000 1.043349
Zn2   Zn    Zn3+2 0.499980 0.999940 0.069820 0.990577
Zn3   Zn    Zn3+2 0.000020 0.499940 0.930180 0.990579
Zn4   Zn    Zn3+2 0.999980 0.499940 0.069820 0.990576
Zn5   Zn    Zn3+2 0.500000 0.538400 0.500000 1.043348
Zn6   Zn    Zn3+2 0.000000 0.961640 0.500000 0.952323
Zn7   Zn    Zn3+2 0.500000 0.461640 0.500000 0.952323
Zn8   Zn    Zn3+2 0.038400 0.999990 0.038350 0.987860
Zn9   Zn    Zn3+2 0.961600 0.999990 0.961650 0.987860
Zn10  Zn    Zn3+2 0.538400 0.499990 0.038350 0.987860
Zn11  Zn    Zn3+2 0.461600 0.499990 0.961650 0.987860
Zn12  Zn    Zn3+2 0.500020 0.999940 0.930180 0.990578

loop_
_geom_bond_atom_site_label_1
_geom_bond_atom_site_label_2
_ccdc_geom_bond_type
C98   H19   S    
Br4   C16   S    
C124  O11   A    
C87   C92   A    
C19   C198  S    
C116  C120  A    
C174  H76   S    
C148  H58   S    
C165  C170  A    
C115  C119  A    
C49   C186  S    
C200  O48   A    
C168  H48   S    
C66   H11   S    
C68   C113  A    
C194  O29   A    
O17   Zn5   S    
C99   H20   S    
C78   C94   S    
O5    Zn12  S    
C129  C133  A    
O2    Zn12  S    
C23   C38   A    
C123  C200  S    
O27   Zn8   S    
C66   C114  S    
O41   Zn2   S    
C116  H40   S    
C66   H103  S    
C72   C82   A    
C63   H8    S    
Br2   C14   S    
O45   Zn2   S    
C96   C146  S    
Br11  C28   S    
C26   C187  S    
C57   H36   S    
O42   Zn3   S    
C146  H1    S    
C105  C192  S    
C97   C157  S    
C138  C147  A    
C170  C174  A    
C8    C12   A    
O48   Zn2   S    
O40   Zn12  S    
C147  C151  A    
C111  H15   S    
C128  C154  A    
C129  C155  A    
C146  H26   S    
C140  C184  S    
C106  C193  S    
C103  C143  S    
C53   H110  S    
C34   C50   S    
C15   C18   A    
C72   C74   A    
C33   H95   S    
C91   C93   A    
C1    O1    A    
C46   C90   A    
O19   Zn6   S    
O22   Zn8   S    
C54   C59   A    
C105  C109  S    
O6    Zn2   S    
C162  C184  A    
C141  O14   A    
C27   C106  S    
Br7   C59   S    
C150  C154  A    
C178  H80   S    
C132  C137  A    
C98   C168  S    
C120  C125  A    
C196  O37   A    
C104  C191  S    
O31   Zn9   S    
C39   C43   A    
C86   C95   A    
C40   C44   A    
Br5   C56   S    
C108  C179  S    
C65   C111  S    
C28   C107  S    
C79   C154  S    
C64   C110  S    
C65   C103  S    
C107  C111  S    
C21   C37   A    
C41   C45   A    
Br10  C27   S    
C106  C110  S    
C11   C16   A    
O36   Zn8   S    
C83   C87   A    
C17   C37   S    
C141  O18   A    
C160  C164  A    
C42   H99   S    
C119  H43   S    
C90   C116  A    
C130  H50   S    
O38   Zn10  S    
C3    O2    A    
C61   C81   S    
C111  H13   S    
C195  O35   A    
C192  O31   A    
C44   C48   A    
C128  H47   S    
O11   Zn7   S    
C25   H90   S    
C63   C109  S    
C22   C33   A    
O28   Zn9   S    
C113  C158  S    
Br6   C58   S    
C4    O3    A    
C101  C117  A    
C133  C138  A    
C166  H73   S    
C198  O40   A    
C119  C123  A    
C124  O23   A    
C6    C67   S    
C2    C125  A    
C76   H120  S    
C147  H57   S    
C30   H91   S    
C73   C75   A    
C29   C191  S    
C161  C183  A    
C71   C81   A    
C179  H29   S    
O18   Zn6   S    
C65   H92   S    
C86   C91   A    
O44   Zn12  S    
C118  H42   S    
C136  C140  A    
C83   C94   A    
C163  H69   S    
C60   C62   A    
C137  C145  A    
C114  H16   S    
C96   H17   S    
C159  H65   S    
C96   C100  S    
O25   Zn10  S    
C13   H32   S    
C97   C102  S    
C8    H83   S    
C108  C114  S    
C187  H61   S    
C7    O7    A    
C86   H3    S    
Br3   C15   S    
C180  C184  A    
C62   C82   S    
C177  C182  A    
C85   H124  S    
C77   H121  S    
C12   C17   A    
C114  H24   S    
C167  C172  A    
C186  O26   A    
C135  O34   A    
C112  O10   A    
C197  O38   A    
C66   C104  S    
C84   C94   A    
C137  C181  S    
C52   C67   A    
C87   H4    S    
Br20  C12   S    
C33   C36   A    
C29   C108  S    
C85   C89   A    
C43   C48   A    
C172  H74   S    
Br14  C189  S    
C122  C127  A    
C85   C95   A    
C122  H46   S    
C59   C62   A    
C133  H53   S    
C89   H6    S    
C23   C30   A    
C70   C76   A    
C72   H116  S    
C44   H106  S    
C115  H39   S    
C189  H63   S    
C196  O36   A    
C6    O5    A    
C99   H25   S    
C134  C139  A    
C199  O42   A    
O13   Zn7   S    
C13   C57   A    
C174  C178  A    
C124  C170  S    
C153  C158  A    
C76   C80   A    
C42   C51   A    
C7    C69   S    
C92   C196  S    
C73   H117  S    
C171  C175  A    
O9    Zn6   S    
C57   C101  A    
C13   C126  A    
C3    O45   A    
C9    H84   S    
O3    Zn4   S    
C169  C173  A    
Br9   C26   S    
C28   C189  S    
C120  H44   S    
C35   C79   A    
C149  C153  A    
O16   Zn5   S    
O47   Zn4   S    
C144  O17   A    
C45   H107  S    
C190  H30   S    
C152  C156  A    
C84   H123  S    
O39   Zn11  S    
C117  H41   S    
C55   H112  S    
C14   C17   A    
C26   C105  S    
C142  O15   A    
O32   Zn8   S    
C77   C80   A    
C80   C95   S    
C109  H12   S    
C30   C34   A    
C32   H94   S    
C27   C188  S    
C99   C179  S    
C172  C176  A    
O26   Zn11  S    
C143  O16   A    
C160  C182  A    
O15   Zn1   S    
C24   H33   S    
C88   H5    S    
C74   C78   A    
C24   C127  A    
C11   C20   A    
C162  C166  A    
C4    O46   A    
C166  C171  A    
C134  H54   S    
C53   C67   A    
O43   Zn4   S    
C18   C38   S    
C179  H59   S    
C159  C181  A    
C140  C149  A    
C180  H82   S    
C70   H113  S    
C173  H75   S    
C68   H38   S    
C97   H22   S    
C113  C118  A    
O10   Zn6   S    
C83   H122  S    
C142  O19   A    
C22   C37   A    
C74   H118  S    
C123  C190  A    
C5    O47   A    
C25   C38   A    
C128  C132  A    
C110  H2    S    
C118  C122  A    
O46   Zn3   S    
C143  O20   A    
C8    C19   A    
C99   C104  S    
C9    C14   A    
C110  H14   S    
C175  H77   S    
C88   C92   A    
C22   H88   S    
O29   Zn10  S    
C63   C100  S    
Br19  C153  S    
C163  C167  A    
C36   C51   S    
C75   H119  S    
C107  C168  S    
C79   C115  A    
C149  H60   S    
C131  C136  A    
C71   C77   A    
C109  H114  S    
C164  H71   S    
C121  C126  A    
C31   H93   S    
C42   C47   A    
C97   H18   S    
C20   C199  S    
C148  C152  A    
C84   C88   A    
C47   H108  S    
C145  C150  A    
C117  C121  A    
C96   H21   S    
C100  C187  S    
C135  O13   A    
C65   H10   S    
C102  C142  S    
C73   C82   A    
O8    Zn4   S    
C193  O32   A    
C188  H62   S    
O7    Zn3   S    
C28   H102  S    
C16   C18   A    
C129  H49   S    
C2    H31   S    
C4    C126  S    
C35   C190  A    
C58   C61   A    
C157  H27   S    
C45   C49   A    
C200  O44   A    
C27   H101  S    
C98   C103  S    
C112  O12   A    
C145  H56   S    
C160  H66   S    
C161  H67   S    
C199  O43   A    
O12   Zn1   S    
C39   C50   A    
C162  H68   S    
C64   H81   S    
Br16  C150  S    
C39   H96   S    
C55   C69   A    
C178  C183  A    
C191  H64   S    
O34   Zn5   S    
O4    Zn3   S    
C157  H37   S    
C112  C169  S    
C104  C144  S    
C130  C156  A    
C1    O9    A    
C52   C56   A    
C131  H51   S    
C75   C78   A    
C90   C155  S    
C3    C125  S    
C10   C15   A    
Br12  C188  S    
C54   C69   A    
O30   Zn11  S    
C29   H104  S    
C10   H85   S    
C185  O22   A    
C101  C156  S    
C25   C31   A    
C11   H86   S    
C64   C102  S    
C139  C148  A    
C106  C157  S    
C144  O21   A    
C5    C127  S    
C2    C46   A    
C136  H55   S    
Br15  C191  S    
C176  H78   S    
C52   H109  S    
C5    O4    A    
C53   C58   A    
C55   C60   A    
C21   C32   A    
C89   C93   A    
C41   C51   A    
C165  H72   S    
C93   C197  S    
C63   H70   S    
C1    C167  S    
C159  C163  A    
C41   H98   S    
C102  C188  S    
O21   Zn7   S    
C54   H111  S    
C161  C165  A    
C131  C158  A    
O24   Zn9   S    
C151  C155  A    
C21   H87   S    
C47   C49   A    
O14   Zn1   S    
C121  H45   S    
C6    O6    A    
C71   H115  S    
C70   C81   A    
C64   H9    S    
C139  C183  S    
O35   Zn10  S    
C40   C50   A    
C9    C19   A    
O33   Zn11  S    
C10   C20   A    
C135  C171  S    
C100  C141  S    
Br13  C29   S    
O1    Zn1   S    
C197  O39   A    
C138  C182  S    
C98   H23   S    
C195  O30   A    
C175  C180  A    
C23   H89   S    
C43   H105  S    
C56   C61   A    
C185  O24   A    
Br17  C151  S    
C107  C194  S    
Br18  C152  S    
C35   H34   S    
C31   C34   A    
C91   H7    S    
C194  O33   A    
C105  C146  S    
C176  C181  A    
O37   Zn9   S    
C177  H79   S    
C7    O8    A    
C132  H52   S    
C173  C177  A    
C103  C189  S    
C168  H28   S    
C192  O27   A    
C193  O28   A    
Br1   C187  S    
C186  O25   A    
O23   Zn5   S    
C108  C195  S    
C46   H35   S    
C130  C134  A    
C26   H100  S    
C48   C185  S    
Br8   C60   S    
C164  C169  A    
C24   C68   A    
C198  O41   A    
O20   Zn7   S    
C32   C36   A    
C40   H97   S    
