data_mof_unit_8667.cif
_audit_creation_date              2012-12-11T15:50:36-0500
_audit_creation_method            fapswitch 2.2
_symmetry_space_group_name_H-M    P1
_symmetry_Int_Tables_number       1
_space_group_crystal_system       triclinic
_cell_length_a                    19.167181
_cell_length_b                    11.301703
_cell_length_c                    18.736022
_cell_angle_alpha                 89.83947
_cell_angle_beta                  92.090383
_cell_angle_gamma                 90.67322
_cell_volume                      4055.63825557

loop_
_atom_site_label
_atom_site_type_symbol
_atom_type_description
_atom_site_fract_x
_atom_site_fract_y
_atom_site_fract_z
_atom_type_partial_charge
C1    C     C_R   0.289232 0.003982 0.861592 0.559178
C2    C     C_R   0.767405 0.570158 0.930532 -0.001299
C3    C     C_R   0.229622 0.550371 0.351915 0.550420
C4    C     C_R   0.441487 0.819338 0.639911 0.540518
C5    C     C_R   0.531767 0.821924 0.353159 0.531248
C6    C     C_R   0.938937 0.317686 0.640201 0.543417
C7    C     C_R   0.035718 0.320563 0.355460 0.536278
C8    C     C_R   0.273689 0.688810 0.637149 0.546236
C9    C     C_R   0.728442 0.685666 0.363330 0.560346
C10   C     C_R   0.772582 0.186371 0.637181 0.560318
C11   C     C_R   0.228632 0.180360 0.363258 0.584673
C12   C     C_3   0.471494 0.910228 0.027163 -0.150795
C13   C     C_R   0.732996 0.070691 0.069684 -0.001581
C14   C     C_3   0.530925 0.910591 0.972855 -0.147187
C15   C     C_3   0.970309 0.412092 0.027450 -0.147082
C16   C     C_3   0.029611 0.408391 0.973054 -0.151251
C17   C     C_3   0.432270 0.813251 0.984057 -0.106715
C18   C     C_3   0.568578 0.812834 0.015782 -0.102298
C19   C     C_3   0.929623 0.315891 0.984992 -0.104988
C20   C     C_3   0.065938 0.309971 0.016467 -0.104709
C21   C     C_3   0.491296 0.816223 0.930612 0.055479
C22   C     C_3   0.509542 0.815237 0.069143 0.059830
C23   C     C_3   0.988592 0.315210 0.931588 0.057923
C24   C     C_R   0.278948 0.038159 0.935878 -0.001425
C25   C     C_3   0.007137 0.316046 0.070049 0.056376
C26   C     C_3   0.104818 0.798143 0.345519 -0.032525
C27   C     C_3   0.078246 0.910295 0.309118 -0.374508
C28   C     C_3   0.880506 0.809775 0.671079 -0.029622
C29   C     C_3   0.899857 0.919257 0.714832 -0.348856
C30   C     C_3   0.653957 0.350505 0.343541 -0.017424
C31   C     C_3   0.604446 0.399045 0.285884 -0.351912
C32   C     C_3   0.331798 0.354400 0.663915 0.006815
C33   C     C_3   0.393842 0.364866 0.715863 -0.353551
C34   C     C_3   0.065602 0.748020 0.628252 0.020148
C35   C     C_R   0.286297 0.530167 0.034769 0.010176
C36   C     C_3   0.065142 0.855617 0.676283 -0.340704
C37   C     C_3   0.911212 0.880234 0.389416 -0.028616
C38   C     C_3   0.916395 0.011683 0.371076 -0.386482
C39   C     C_3   0.553531 0.310802 0.601442 -0.017063
C40   C     C_3   0.576832 0.370500 0.671486 -0.343710
C41   C     C_3   0.431573 0.405358 0.446657 0.000955
C42   C     C_3   0.447907 0.447734 0.371221 -0.410441
C43   C     C_3   0.116015 0.546982 0.554705 -0.283938
C44   C     C_3   0.163417 0.479641 0.608556 -0.312193
C45   C     C_3   0.135997 0.354166 0.620857 -0.454335
C46   C     C_R   0.704288 0.552358 0.962615 -0.008743
C47   C     C_3   0.907205 0.638452 0.441650 -0.238523
C48   C     C_3   0.914215 0.612630 0.359724 -0.253240
C49   C     C_3   0.872922 0.502572 0.333532 -0.377104
C50   C     C_3   0.603237 0.088595 0.542757 -0.248098
C51   C     C_3   0.606431 0.038039 0.619854 -0.268058
C52   C     C_3   0.657070 0.935190 0.630720 -0.412591
C53   C     C_3   0.396297 0.153829 0.442361 -0.214258
C54   C     C_3   0.422384 0.166648 0.364383 -0.240629
C55   C     C_3   0.406833 0.059009 0.315644 -0.413437
C56   C     C_3   0.110656 0.662592 0.901485 -0.253178
C57   C     C_R   0.795337 0.051087 0.036997 -0.011120
C58   C     C_3   0.041305 0.698949 0.930750 -0.366182
C59   C     C_3   0.997147 0.767924 0.875064 -0.462309
C60   C     C_3   0.886387 0.671933 0.094056 -0.252220
C61   C     C_3   0.955655 0.710876 0.064489 -0.365151
C62   C     C_3   0.002089 0.774147 0.121596 -0.462233
C63   C     C_3   0.613863 0.170971 0.906650 -0.252816
C64   C     C_3   0.545198 0.207601 0.937233 -0.365621
C65   C     C_3   0.497799 0.268086 0.880340 -0.463620
C66   C     C_3   0.389449 0.163797 0.099156 -0.253573
C67   C     C_3   0.459602 0.202357 0.071362 -0.366088
C68   C     C_R   0.213454 0.030771 0.964807 0.012661
C69   C     C_3   0.502782 0.272328 0.127956 -0.463693
C70   C     C_R   0.295619 0.555532 0.964013 0.005357
C71   C     C_R   0.698382 0.567580 0.034963 0.011607
C72   C     C_R   0.800856 0.065751 0.964525 0.012556
C73   C     C_R   0.723047 0.034594 0.143593 0.549836
C74   C     C_R   0.203799 0.056899 0.035308 0.004598
C75   C     C_R   0.172597 0.611420 0.948761 -0.041011
C76   C     C_R   0.822275 0.625512 0.047220 -0.039575
C77   C     C_R   0.677994 0.125547 0.953144 -0.039173
C78   C     C_R   0.327576 0.111674 0.051516 -0.039916
C79   C     C_R   0.165024 0.585179 0.021788 -0.152515
C80   C     C_R   0.826060 0.611132 0.973024 -0.147408
C81   C     C_R   0.674750 0.112202 0.027497 -0.146774
C82   C     C_R   0.335520 0.084763 0.978712 -0.153360
C83   C     C_3   0.333289 0.427010 0.032491 -0.275579
C84   C     C_R   0.777312 0.533784 0.856841 0.552938
C85   C     C_3   0.660546 0.443498 0.963074 -0.276857
C86   C     C_3   0.837026 0.941509 0.036797 -0.275118
C87   C     C_3   0.164688 0.928184 0.967298 -0.277524
C88   C     C_3   0.344816 0.456328 0.955054 -0.281078
C89   C     C_3   0.651410 0.462800 0.041779 -0.282595
C90   C     C_3   0.845526 0.959843 0.957795 -0.280998
C91   C     C_3   0.152644 0.958649 0.044275 -0.281678
C92   C     C_R   0.240274 0.589112 0.919097 0.016521
C93   C     C_R   0.756024 0.596991 0.078612 0.016093
C94   C     C_R   0.743481 0.096386 0.921309 0.018264
C95   C     C_R   0.210991 0.505016 0.138755 0.557029
C96   C     C_R   0.259280 0.089717 0.080703 0.016476
C97   C     C_R   0.497324 0.824220 0.421517 0.015459
C98   C     C_R   0.458550 0.824263 0.565227 0.021299
C99   C     C_R   0.003555 0.319399 0.424929 0.010061
C100  C     C_R   0.953591 0.317232 0.564649 0.018881
C101  C     C_R   0.470336 0.819795 0.854924 0.543657
C102  C     C_R   0.529907 0.819219 0.144945 0.542215
C103  C     C_R   0.969344 0.319516 0.855501 0.550732
C104  C     C_R   0.029108 0.319416 0.145445 0.538408
C105  C     C_R   0.493689 0.719909 0.460849 -0.001951
C106  C     C_3   0.528722 0.716506 0.972253 -0.111784
C107  C     C_R   0.477191 0.721163 0.531871 0.003084
C108  C     C_R   0.990299 0.212962 0.460281 0.004763
C109  C     C_R   0.963960 0.211121 0.528317 0.023794
C110  C     C_R   0.458098 0.928432 0.525894 -0.175104
C111  C     C_R   0.483280 0.928866 0.456187 -0.183768
C112  C     C_R   0.964849 0.421966 0.528861 -0.179185
C113  C     C_R   0.993374 0.422249 0.461546 -0.184583
C114  C     C_3   0.555161 0.646035 0.479193 -0.271067
C115  C     C_3   0.535411 0.644153 0.555483 -0.260729
C116  C     C_3   0.042485 0.120653 0.480400 -0.259727
C117  C     C_3   0.470561 0.716206 0.027365 -0.110385
C118  C     C_3   0.010306 0.112037 0.551747 -0.246840
C119  C     C_R   0.252524 0.622407 0.414052 -0.027511
C120  C     C_R   0.750131 0.611028 0.582941 -0.035939
C121  C     C_R   0.748680 0.100797 0.419849 -0.050585
C122  C     C_R   0.246951 0.096955 0.580223 -0.042373
C123  C     C_R   0.204152 0.692747 0.448913 -0.022116
C124  C     C_R   0.790984 0.703458 0.552670 -0.015729
C125  C     C_R   0.713189 0.198565 0.447180 -0.036481
C126  C     C_R   0.278702 0.198988 0.552017 -0.030391
C127  C     C_R   0.209442 0.704241 0.521616 0.047886
C128  C     C_3   0.024672 0.214602 0.973737 -0.108658
C129  C     C_R   0.788101 0.725361 0.479596 -0.018482
C130  C     C_R   0.714165 0.215939 0.520440 0.065334
C131  C     C_R   0.276311 0.218807 0.479919 0.051806
C132  C     C_R   0.325046 0.628687 0.522232 -0.129084
C133  C     C_R   0.700212 0.570151 0.467785 -0.182612
C134  C     C_R   0.800513 0.064523 0.535694 -0.165514
C135  C     C_R   0.201843 0.046949 0.462588 -0.189530
C136  C     C_R   0.317558 0.611269 0.448044 -0.109527
C137  C     C_R   0.700863 0.554227 0.540194 -0.168849
C138  C     C_R   0.785095 0.029632 0.467205 -0.159700
C139  C     C_3   0.966667 0.217986 0.028952 -0.113209
C140  C     C_R   0.204556 0.025757 0.535228 -0.169383
C141  C     C_3   0.125749 0.690081 0.449058 0.188999
C142  C     C_3   0.868310 0.726524 0.557713 0.207941
C143  C     C_3   0.635659 0.220194 0.440370 0.179784
C144  C     C_3   0.352145 0.247935 0.559578 0.160845
C145  C     C_3   0.133222 0.679808 0.531527 0.287603
C146  C     C_3   0.867710 0.743168 0.475184 0.284376
C147  C     C_3   0.635047 0.213150 0.522860 0.308837
C148  C     C_3   0.352320 0.253339 0.476778 0.302188
C149  C     C_R   0.258728 0.635670 0.849630 0.535217
C150  C     C_R   0.221278 0.538813 0.064339 -0.000205
C151  C     C_R   0.740674 0.636313 0.149948 0.542031
C152  C     C_R   0.759158 0.136579 0.850016 0.542422
C153  C     C_R   0.241079 0.135525 0.150235 0.534640
C154  C     C_R   0.269123 0.671270 0.560369 -0.029754
C155  C     C_R   0.741300 0.656634 0.436892 -0.026496
C156  C     C_R   0.763052 0.156405 0.563745 -0.018004
C157  C     C_R   0.237579 0.144447 0.435192 -0.022208
C158  C     C_R   0.270972 0.046072 0.646847 0.535016
C159  C     C_R   0.728415 0.046907 0.352749 0.524828
C160  C     C_R   0.771068 0.549624 0.648065 0.533506
Cr1   Cr    Cr6+3 0.229640 0.835880 0.747370 0.956288
Cr2   Cr    Cr6+3 0.614230 0.677220 0.250660 0.963006
Cr3   Cr    Cr6+3 0.885770 0.177220 0.749340 0.955892
Cr4   Cr    Cr6+3 0.114230 0.177220 0.250660 0.962385
Cr5   Cr    Cr6+3 0.770360 0.835880 0.252630 0.944690
Cr6   Cr    Cr6+3 0.729640 0.335880 0.747370 0.957752
Cr7   Cr    Cr6+3 0.270360 0.335880 0.252630 0.975339
Cr8   Cr    Cr6+3 0.387390 0.989720 0.750850 0.958120
Cr9   Cr    Cr6+3 0.612610 0.989720 0.249150 0.965626
Cr10  Cr    Cr6+3 0.887390 0.489720 0.750850 0.954035
Cr11  Cr    Cr6+3 0.112610 0.489720 0.249150 0.953041
Cr12  Cr    Cr6+3 0.385770 0.677220 0.749340 0.969497
H1    H     H_    0.375563 0.813470 0.969424 0.110773
H2    H     H_    0.979723 0.028907 0.558605 0.201483
H3    H     H_    0.215819 0.470719 0.586600 0.201087
H4    H     H_    0.165972 0.522246 0.661479 0.194150
H5    H     H_    0.063881 0.544543 0.575621 0.139064
H6    H     H_    0.116051 0.489033 0.507180 0.122287
H7    H     H_    0.898417 0.420350 0.351860 0.141723
H8    H     H_    0.819333 0.500465 0.353467 0.171120
H9    H     H_    0.869880 0.501402 0.274213 0.136401
H10   H     H_    0.903289 0.685002 0.322320 0.155015
H11   H     H_    0.969766 0.596948 0.349065 0.133558
H12   H     H_    0.960800 0.653456 0.464284 0.137923
H13   H     H_    0.602288 0.701308 0.471010 0.151269
H14   H     H_    0.883281 0.557879 0.464418 0.124316
H15   H     H_    0.647955 0.867155 0.588651 0.142571
H16   H     H_    0.711949 0.965296 0.630222 0.183223
H17   H     H_    0.648684 0.893055 0.683384 0.137550
H18   H     H_    0.613730 0.104864 0.661969 0.193657
H19   H     H_    0.554370 0.000630 0.630185 0.167610
H20   H     H_    0.548056 0.097683 0.527062 0.090012
H21   H     H_    0.623229 0.019673 0.506636 0.120298
H22   H     H_    0.400769 0.975461 0.345726 0.150909
H23   H     H_    0.358616 0.070401 0.282200 0.183678
H24   H     H_    0.516179 0.557430 0.574217 0.143451
H25   H     H_    0.449751 0.049049 0.277995 0.143069
H26   H     H_    0.402275 0.245045 0.336357 0.210817
H27   H     H_    0.479946 0.180387 0.367175 0.123199
H28   H     H_    0.444068 0.152891 0.476646 0.051352
H29   H     H_    0.369368 0.067197 0.448997 0.134218
H30   H     H_    0.022837 0.853192 0.861536 0.134759
H31   H     H_    0.988829 0.714330 0.825788 0.158409
H32   H     H_    0.945223 0.787712 0.895929 0.140705
H33   H     H_    0.008777 0.622250 0.942872 0.176609
H34   H     H_    0.052880 0.756643 0.977332 0.173087
H35   H     H_    0.552879 0.557457 0.454367 0.169119
H36   H     H_    0.125542 0.751076 0.883166 0.208238
H37   H     H_    0.100546 0.603702 0.854643 0.159242
H38   H     H_    0.008449 0.717847 0.170087 0.155786
H39   H     H_    0.054659 0.791474 0.100943 0.146755
H40   H     H_    0.979469 0.860046 0.136792 0.134976
H41   H     H_    0.986053 0.634795 0.049951 0.170969
H42   H     H_    0.945382 0.772002 0.019195 0.172260
H43   H     H_    0.873495 0.758370 0.115890 0.207910
H44   H     H_    0.896656 0.608585 0.138697 0.153418
H45   H     H_    0.520900 0.353254 0.862607 0.134681
H46   H     H_    0.574375 0.688688 0.592052 0.149968
H47   H     H_    0.489436 0.209419 0.833225 0.162865
H48   H     H_    0.446065 0.286432 0.902121 0.145322
H49   H     H_    0.515316 0.130506 0.953383 0.172137
H50   H     H_    0.556380 0.269692 0.981878 0.172282
H51   H     H_    0.626846 0.257530 0.883959 0.206233
H52   H     H_    0.602738 0.107385 0.862314 0.156335
H53   H     H_    0.509008 0.218825 0.177557 0.157106
H54   H     H_    0.555519 0.292349 0.108399 0.141538
H55   H     H_    0.477523 0.357313 0.140536 0.135611
H56   H     H_    0.492357 0.126764 0.060494 0.175401
H57   H     H_    0.038091 0.036025 0.451347 0.188871
H58   H     H_    0.449376 0.259977 0.024483 0.173237
H59   H     H_    0.374666 0.252063 0.116513 0.208852
H60   H     H_    0.398453 0.105119 0.146282 0.153136
H61   H     H_    0.048219 0.134108 0.596154 0.151974
H62   H     H_    0.371696 0.600884 0.550723 0.174115
H63   H     H_    0.662356 0.522038 0.436628 0.207884
H64   H     H_    0.834555 0.011488 0.568739 0.229353
H65   H     H_    0.625268 0.812955 0.030532 0.119290
H66   H     H_    0.172164 0.987350 0.428288 0.193085
H67   H     H_    0.360074 0.585009 0.417527 0.157798
H68   H     H_    0.666485 0.490798 0.562329 0.221111
H69   H     H_    0.793729 0.941611 0.452255 0.211453
H70   H     H_    0.179047 0.947366 0.554804 0.217824
H71   H     H_    0.099853 0.612808 0.423859 0.104634
H72   H     H_    0.899008 0.650599 0.576760 0.086158
H73   H     H_    0.601452 0.151144 0.415232 0.122874
H74   H     H_    0.392305 0.188369 0.583383 0.096965
H75   H     H_    0.438296 0.969572 0.055833 0.125134
H76   H     H_    0.872976 0.318520 0.970234 0.118473
H77   H     H_    0.565587 0.971444 0.945679 0.122897
H78   H     H_    0.937222 0.474030 0.054582 0.121362
H79   H     H_    0.063927 0.466188 0.943540 0.126324
H80   H     H_    0.552343 0.638087 0.947799 0.118164
H81   H     H_    0.445438 0.637399 0.051355 0.117332
H82   H     H_    0.047359 0.134427 0.950123 0.116805
H83   H     H_    0.940936 0.141065 0.054102 0.118583
H84   H     H_    0.114762 0.597124 0.045035 0.146501
H85   H     H_    0.875899 0.625880 0.949138 0.151224
H86   H     H_    0.625455 0.128159 0.051782 0.151539
H87   H     H_    0.122661 0.307750 0.030919 0.112065
H88   H     H_    0.386157 0.096560 0.955876 0.145299
H89   H     H_    0.803307 0.863839 0.048078 0.166815
H90   H     H_    0.193623 0.844603 0.962145 0.156844
H91   H     H_    0.303219 0.343606 0.038935 0.157328
H92   H     H_    0.693263 0.365560 0.953032 0.165420
H93   H     H_    0.380694 0.440121 0.067506 0.130567
H94   H     H_    0.611797 0.453160 0.929963 0.128000
H95   H     H_    0.886374 0.951153 0.069107 0.126532
H96   H     H_    0.117978 0.941065 0.931497 0.132213
H97   H     H_    0.398702 0.488423 0.945284 0.144908
H98   H     H_    0.445170 0.009244 0.552400 0.110203
H99   H     H_    0.597495 0.488536 0.054663 0.145071
H100  H     H_    0.899780 0.984291 0.944041 0.144717
H101  H     H_    0.099227 0.991683 0.053060 0.145261
H102  H     H_    0.324122 0.387418 0.917365 0.139473
H103  H     H_    0.674506 0.391748 0.076061 0.132374
H104  H     H_    0.820565 0.888916 0.924265 0.134522
H105  H     H_    0.171644 0.890020 0.082732 0.140982
H106  H     H_    0.075146 0.722767 0.320562 0.144240
H107  H     H_    0.160852 0.793303 0.332404 0.164684
H108  H     H_    0.081054 0.985637 0.346166 0.192562
H109  H     H_    0.497840 0.009272 0.430404 0.134074
H110  H     H_    0.110690 0.931935 0.262774 0.137164
H111  H     H_    0.024239 0.897345 0.287173 0.072724
H112  H     H_    0.916439 0.738070 0.688922 0.144066
H113  H     H_    0.825811 0.786425 0.683765 0.160734
H114  H     H_    0.924465 0.988218 0.681637 0.201890
H115  H     H_    0.852543 0.953576 0.739410 0.170990
H116  H     H_    0.936136 0.896883 0.759980 0.070731
H117  H     H_    0.677181 0.272235 0.320325 0.161153
H118  H     H_    0.699014 0.411488 0.351641 0.144532
H119  H     H_    0.579711 0.481081 0.304145 0.189267
H120  H     H_    0.958173 0.503488 0.556113 0.103341
H121  H     H_    0.633757 0.419591 0.237258 0.123620
H122  H     H_    0.564238 0.331180 0.271500 0.101030
H123  H     H_    0.300535 0.275700 0.677603 0.142653
H124  H     H_    0.295801 0.426590 0.674168 0.171343
H125  H     H_    0.422612 0.448600 0.705549 0.170342
H126  H     H_    0.375655 0.366342 0.771471 0.104213
H127  H     H_    0.427897 0.287100 0.709788 0.124420
H128  H     H_    0.090464 0.677142 0.660606 0.144450
H129  H     H_    0.011316 0.720737 0.614062 0.142038
H130  H     H_    0.118829 0.887041 0.688541 0.200479
H131  H     H_    0.013089 0.501377 0.439567 0.113810
H132  H     H_    0.035569 0.927822 0.650130 0.147086
H133  H     H_    0.041676 0.831464 0.727440 0.057497
H134  H     H_    0.869140 0.848449 0.353926 0.191849
H135  H     H_    0.961105 0.837525 0.378185 0.168267
H136  H     H_    0.900853 0.066777 0.415732 0.196622
H137  H     H_    0.969328 0.036615 0.356264 0.136887
H138  H     H_    0.883328 0.034329 0.323319 0.133028
H139  H     H_    0.531674 0.222800 0.612725 0.101098
H140  H     H_    0.508435 0.360430 0.579317 0.142502
H141  H     H_    0.598814 0.459896 0.661542 0.155155
H142  H     H_    0.095009 0.161661 0.483509 0.143047
H143  H     H_    0.532773 0.380854 0.706830 0.051791
H144  H     H_    0.615331 0.316341 0.701394 0.192169
H145  H     H_    0.470765 0.339135 0.464129 0.147536
H146  H     H_    0.439285 0.478906 0.484664 0.148231
H147  H     H_    0.469486 0.538441 0.370745 0.139124
H148  H     H_    0.485760 0.387882 0.348560 0.122882
H149  H     H_    0.400640 0.447673 0.335228 0.176416
H150  H     H_    0.084169 0.356793 0.645036 0.188357
H151  H     H_    0.132021 0.304909 0.569753 0.162679
H152  H     H_    0.172140 0.306392 0.658155 0.134135
O1    O     O_R   0.214300 0.709080 0.827500 -0.565192
O2    O     O_R   0.543340 0.717710 0.330180 -0.542845
O3    O     O_R   0.956660 0.217710 0.669820 -0.548316
O4    O     O_R   0.043340 0.217710 0.330180 -0.543642
O5    O     O_R   0.320590 0.625770 0.672930 -0.529517
O6    O     O_R   0.679410 0.625770 0.327070 -0.533549
O7    O     O_R   0.820590 0.125770 0.672930 -0.551471
O8    O     O_R   0.179410 0.125770 0.327070 -0.537268
O9    O     O_3   0.334270 0.834280 0.749190 -0.293478
O10   O     O_3   0.665730 0.834280 0.250810 -0.260233
O11   O     O_3   0.834270 0.334280 0.749190 -0.278891
O12   O     O_R   0.785700 0.709080 0.172500 -0.561064
O13   O     O_3   0.165730 0.334280 0.250810 -0.277859
O14   O     O_R   0.236190 0.958390 0.823150 -0.503860
O15   O     O_R   0.763810 0.958390 0.176850 -0.508788
O16   O     O_R   0.736190 0.458390 0.823150 -0.508210
O17   O     O_R   0.263810 0.458390 0.176850 -0.507033
O18   O     O_R   0.332090 0.075280 0.831290 -0.529271
O19   O     O_R   0.667910 0.075280 0.168710 -0.535180
O20   O     O_R   0.832090 0.575280 0.831290 -0.540497
O21   O     O_R   0.167910 0.575280 0.168710 -0.530362
O22   O     O_R   0.446280 0.918040 0.826620 -0.515024
O23   O     O_R   0.714300 0.209080 0.827500 -0.564259
O24   O     O_R   0.553720 0.918040 0.173380 -0.507828
O25   O     O_R   0.946280 0.418040 0.826620 -0.504059
O26   O     O_R   0.053720 0.418040 0.173380 -0.515855
O27   O     O_R   0.457080 0.716270 0.831760 -0.520458
O28   O     O_R   0.542920 0.716270 0.168240 -0.525103
O29   O     O_R   0.957080 0.216270 0.831760 -0.520279
O30   O     O_R   0.042920 0.216270 0.168240 -0.522848
O31   O     O_R   0.320980 0.624440 0.823040 -0.497804
O32   O     O_R   0.679020 0.624440 0.176960 -0.499993
O33   O     O_R   0.820980 0.124440 0.823040 -0.504532
O34   O     O_R   0.285700 0.209080 0.172500 -0.571360
O35   O     O_R   0.179020 0.124440 0.176960 -0.497196
O36   O     O_R   0.213880 0.710510 0.665560 -0.531601
O37   O     O_R   0.786120 0.710510 0.334440 -0.550535
O38   O     O_R   0.713880 0.210510 0.665560 -0.525890
O39   O     O_R   0.286120 0.210510 0.334440 -0.517076
O40   O     O_R   0.235800 0.959720 0.673040 -0.524979
O41   O     O_R   0.764200 0.959720 0.326960 -0.536589
O42   O     O_R   0.735800 0.459720 0.673040 -0.513854
O43   O     O_R   0.264200 0.459720 0.326960 -0.477597
O44   O     O_R   0.331670 0.076720 0.669350 -0.549609
O45   O     O_R   0.445900 0.919370 0.676500 -0.526378
O46   O     O_R   0.668330 0.076720 0.330650 -0.552380
O47   O     O_R   0.831670 0.576720 0.669350 -0.567913
O48   O     O_R   0.168330 0.576720 0.330650 -0.570208
O49   O     O_3   0.097803 0.798010 0.421219 -0.551660
O50   O     O_3   0.885539 0.831156 0.596778 -0.561215
O51   O     O_3   0.620097 0.332597 0.409782 -0.573455
O52   O     O_3   0.352860 0.361402 0.591877 -0.559936
O53   O     O_3   0.100240 0.776554 0.565015 -0.520990
O54   O     O_3   0.895892 0.859207 0.461654 -0.531075
O55   O     O_3   0.607884 0.318841 0.551960 -0.549956
O56   O     O_R   0.554100 0.919370 0.323500 -0.518413
O57   O     O_3   0.360624 0.367840 0.447775 -0.514334
O58   O     O_R   0.945900 0.419370 0.676500 -0.523965
O59   O     O_R   0.054100 0.419370 0.323500 -0.522108
O60   O     O_R   0.456660 0.717710 0.669820 -0.530357

loop_
_geom_bond_atom_site_label_1
_geom_bond_atom_site_label_2
_ccdc_geom_bond_type
C50   C147  S    
C133  C137  A    
C29   H114  S    
C87   C91   S    
Cr5   O10   S    
C142  C146  S    
C44   H3    S    
C114  C115  S    
C148  O57   S    
Cr2   O10   S    
C67   C69   S    
C7    C99   S    
C14   C21   S    
C128  C139  S    
C94   C152  S    
Cr9   O24   S    
C108  C109  A    
C106  H80   S    
C110  C111  A    
Cr5   O15   S    
C116  H142  S    
C23   C103  S    
C78   C96   A    
C133  C155  A    
C52   H15   S    
C18   H65   S    
C141  C145  S    
C87   H96   S    
C97   C105  A    
C83   C88   S    
C47   C146  S    
C100  C109  A    
C147  O55   S    
Cr11  O21   S    
C27   H110  S    
C8    O5    A    
C17   H1    S    
C109  C118  S    
C149  O31   A    
C82   H88   S    
C51   C52   S    
C83   H93   S    
C86   C90   S    
Cr8   O18   S    
C58   H33   S    
C7    O59   A    
C101  O22   A    
C60   C76   S    
C53   H29   S    
C36   H133  S    
C19   C23   S    
C43   C44   S    
C99   C113  A    
C37   C38   S    
C43   C145  S    
C74   C96   A    
C78   C82   A    
C159  O46   A    
Cr1   O1    S    
C16   C20   S    
C123  C141  S    
Cr7   O43   S    
C26   C27   S    
C47   H14   S    
C72   C94   A    
C5    O56   A    
C51   H18   S    
C127  C145  S    
C104  O26   A    
C13   C73   S    
C29   H116  S    
Cr9   O19   S    
Cr5   O12   S    
C26   H106  S    
C39   O55   S    
C11   C157  S    
C65   H47   S    
C32   H123  S    
Cr11  O59   S    
C28   H112  S    
C73   O19   A    
C60   H43   S    
C39   H139  S    
C149  O1    A    
Cr5   O37   S    
C71   C93   A    
C119  C123  A    
C12   H75   S    
C119  C136  A    
Cr4   O13   S    
C102  O28   A    
C56   H37   S    
C64   C65   S    
C65   H45   S    
C30   C31   S    
C41   H146  S    
C146  O54   S    
C142  H72   S    
C116  C118  S    
C52   H17   S    
C4    O60   A    
C33   H127  S    
C88   H97   S    
C34   H128  S    
C6    O58   A    
C19   C139  S    
C92   C149  S    
C120  C160  S    
C62   H40   S    
C130  C156  A    
C80   H85   S    
Cr6   O16   S    
C75   C79   A    
C23   C128  S    
C49   H7    S    
C115  H24   S    
C84   O16   A    
C43   H6    S    
C135  C157  A    
C13   C81   A    
C83   H91   S    
C38   H138  S    
C69   H54   S    
C34   H129  S    
C55   H25   S    
C53   C54   S    
C99   C108  A    
C105  C107  A    
C114  H13   S    
Cr3   O11   S    
C34   O53   S    
C11   O39   A    
C50   H21   S    
C31   H119  S    
C15   C25   S    
C13   C57   A    
Cr10  O58   S    
C68   C74   A    
C12   C22   S    
C77   C94   A    
C114  H35   S    
C131  C157  A    
Cr8   O9    S    
Cr4   O30   S    
C40   H141  S    
C117  H81   S    
C59   H32   S    
Cr4   O4    S    
C71   C89   S    
C128  H82   S    
C35   C150  A    
Cr10  O25   S    
C21   C106  S    
C31   H122  S    
C66   C67   S    
Cr8   O44   S    
C56   C75   S    
C61   H41   S    
Cr4   O35   S    
C127  C154  A    
C19   H76   S    
C144  O52   S    
C153  O34   A    
Cr6   O11   S    
C37   O54   S    
C63   H51   S    
Cr11  O26   S    
C152  O33   A    
C39   C40   S    
C110  H98   S    
Cr7   O17   S    
C66   H59   S    
C53   C148  S    
C54   H27   S    
C6    C100  S    
C18   C106  S    
C121  C125  A    
C118  H2    S    
C59   H31   S    
C103  O29   A    
C72   C90   S    
C123  C127  A    
C26   O49   S    
C132  C136  A    
C101  O27   A    
C151  O32   A    
C62   H38   S    
C64   H50   S    
Cr10  O11   S    
C95   C150  S    
C103  O25   A    
Cr1   O40   S    
C138  H69   S    
C3    C119  S    
C49   H9    S    
Cr5   O41   S    
C95   O21   A    
C5    C97   S    
C16   C23   S    
C11   O8    A    
C37   H135  S    
C38   H136  S    
C30   O51   S    
C51   H19   S    
C89   H103  S    
Cr9   O10   S    
C54   C55   S    
C134  H64   S    
C130  C147  S    
C18   C22   S    
Cr6   O23   S    
C76   C80   A    
C90   H104  S    
C25   C104  S    
C27   H108  S    
Cr11  O48   S    
Cr8   O45   S    
C60   H44   S    
C122  C140  A    
C40   H143  S    
C118  H61   S    
C125  C143  S    
C126  C144  S    
C56   C58   S    
C34   C36   S    
C61   C62   S    
Cr11  O13   S    
C20   H87   S    
C63   C64   S    
C55   H22   S    
C9    C155  S    
C1    C24   S    
C68   C87   S    
C52   H16   S    
C158  O40   A    
C1    O14   A    
C33   H125  S    
Cr3   O33   S    
C141  O49   S    
C98   C110  A    
C41   C42   S    
C2    C84   S    
C102  O24   A    
C45   H152  S    
C15   C19   S    
C8    O36   A    
Cr1   O9    S    
C81   H86   S    
C28   C29   S    
C25   C139  S    
C143  O51   S    
C4    C98   S    
Cr12  O5    S    
C97   C111  A    
C20   C25   S    
C58   H34   S    
C42   H148  S    
C91   H105  S    
C30   H117  S    
C134  C156  A    
C84   O20   A    
Cr2   O28   S    
C12   C17   S    
C79   H84   S    
C115  H46   S    
C50   H20   S    
C17   C117  S    
C46   C85   S    
C29   H115  S    
C28   O50   S    
C111  H109  S    
Cr3   O7    S    
C160  O42   A    
C86   H95   S    
C95   O17   A    
C85   H94   S    
Cr9   O56   S    
C26   H107  S    
C16   H79   S    
C32   H124  S    
C135  C140  A    
C66   C78   S    
C44   H4    S    
C129  C155  A    
C85   C89   S    
Cr4   O8    S    
C58   C59   S    
C98   C107  A    
C60   C61   S    
C74   C91   S    
Cr2   O32   S    
C134  C138  A    
C151  O12   A    
C42   H149  S    
Cr1   O14   S    
Cr2   O2    S    
C96   C153  S    
C56   H36   S    
C77   C81   A    
C50   C51   S    
C46   C71   A    
C79   C150  A    
C33   H126  S    
C48   C49   S    
C100  C112  A    
C3    O48   A    
C106  C117  S    
C93   C151  S    
C85   H92   S    
C9    O37   A    
C44   C45   S    
Cr6   O42   S    
C43   H5    S    
C35   C83   S    
C70   C92   A    
C54   H26   S    
C47   H12   S    
C69   H53   S    
Cr6   O38   S    
C48   H11   S    
C36   H130  S    
C15   H78   S    
C135  H66   S    
C32   C33   S    
C108  C116  S    
C159  O41   A    
Cr2   O6    S    
C42   H147  S    
C145  O53   S    
C124  C129  A    
C57   C72   A    
C6    O3    A    
C17   C21   S    
C24   C68   A    
C41   O57   S    
C4    O45   A    
C136  H67   S    
Cr12  O60   S    
C120  C137  A    
C31   H121  S    
C22   C117  S    
C55   H23   S    
C104  O30   A    
C5    O2    A    
C144  H74   S    
C116  H57   S    
C10   O7    A    
C14   C18   S    
C139  H83   S    
C39   H140  S    
C59   H30   S    
C144  C148  S    
C70   C88   S    
Cr12  O27   S    
C2    C46   A    
C143  C147  S    
C141  H71   S    
C126  C131  A    
C158  O44   A    
C32   O52   S    
C20   C128  S    
C160  O47   A    
C27   H111  S    
C76   C93   A    
C14   H77   S    
C10   O38   A    
C9    O6    A    
C15   C16   S    
C66   H60   S    
Cr10  O47   S    
C57   C86   S    
C133  H63   S    
C1    O18   A    
C24   C82   A    
C88   H102  S    
Cr8   O22   S    
Cr3   O29   S    
C125  C130  A    
C67   H58   S    
C62   H39   S    
C41   H145  S    
C8    C154  S    
C86   H89   S    
Cr9   O46   S    
C49   H8    S    
C21   C101  S    
Cr7   O39   S    
C37   H134  S    
C124  C142  S    
C38   H137  S    
C69   H55   S    
C112  C113  A    
C36   H132  S    
C45   H150  S    
C122  C158  S    
Cr12  O31   S    
C105  C114  S    
C91   H101  S    
Cr10  O20   S    
C35   C70   A    
C10   C156  S    
C73   O15   A    
C143  H73   S    
C142  O50   S    
C121  C138  A    
C122  C126  A    
C40   H144  S    
C132  C154  A    
C47   C48   S    
C87   H90   S    
C113  H131  S    
C129  C146  S    
Cr3   O3    S    
C131  C148  S    
C107  C115  S    
C75   C92   A    
Cr7   O34   S    
C28   H113  S    
C12   C14   S    
C112  H120  S    
C61   H42   S    
Cr1   O36   S    
Cr7   O13   S    
C63   C77   S    
C153  O35   A    
Cr12  O9    S    
C89   H99   S    
C53   H28   S    
C63   H52   S    
C90   H100  S    
C3    O43   A    
C45   H151  S    
C65   H48   S    
C22   C102  S    
C137  H68   S    
C48   H10   S    
C67   H56   S    
C64   H49   S    
C140  H70   S    
C2    C80   A    
C30   H118  S    
C152  O23   A    
C121  C159  S    
C7    O4    A    
C132  H62   S    
C120  C124  A    
