data_mof_unit_57542.cif
_audit_creation_date              2012-12-10T20:35:54-0500
_audit_creation_method            fapswitch 2.2
_symmetry_space_group_name_H-M    P1
_symmetry_Int_Tables_number       1
_space_group_crystal_system       triclinic
_cell_length_a                    15.711856
_cell_length_b                    10.681236
_cell_length_c                    9.948798
_cell_angle_alpha                 89.298346
_cell_angle_beta                  88.235359
_cell_angle_gamma                 91.574994
_cell_volume                      1668.06208451

loop_
_atom_site_label
_atom_site_type_symbol
_atom_type_description
_atom_site_fract_x
_atom_site_fract_y
_atom_site_fract_z
_atom_type_partial_charge
C1    C     C_R   0.508834 0.261481 0.499930 0.877083
C2    C     C_R   0.527438 0.131114 0.499846 -0.126033
C3    C     C_R   0.558007 0.067208 0.383406 0.149864
C4    C     C_R   0.338422 0.503646 0.501642 0.898380
C5    C     C_R   0.548967 0.935923 0.382505 -0.245886
C6    C     C_R   0.520162 0.870693 0.499368 -0.117204
C7    C     C_R   0.511593 0.936332 0.617510 -0.020409
C8    C     C_3   0.486310 0.923664 0.764111 0.167863
C9    C     C_3   0.486252 0.068831 0.761577 0.478298
C10   C     C_R   0.425770 0.480432 0.073570 -0.131313
C11   C     C_R   0.572474 0.525383 0.067414 0.649350
C12   C     C_3   0.944097 0.456666 0.606013 0.446488
C13   C     C_R   0.572794 0.522328 0.924449 -0.183840
C14   C     C_R   0.424765 0.493414 0.932575 -0.039981
C15   C     C_3   0.354426 0.397990 0.919992 0.723531
C16   C     C_R   0.504892 0.739418 0.499343 0.884449
C17   C     C_3   0.364281 0.366295 0.071802 0.143974
C18   C     C_R   0.661505 0.502451 0.497842 0.872380
C19   C     C_3   0.041333 0.459538 0.615419 -0.570793
C20   C     C_3   0.055702 0.467783 0.366791 -0.459256
C21   C     C_3   0.957599 0.470165 0.353059 -0.045764
C22   C     C_1   0.750279 0.514078 0.491574 -0.138815
C23   C     C_3   0.917290 0.534998 0.481420 0.009280
C24   C     C_3   0.083137 0.535676 0.496117 0.128993
C25   C     C_3   0.909513 0.771066 0.405535 -0.309860
C26   C     C_3   0.929793 0.908480 0.436657 -0.752407
C27   C     C_3   0.608854 0.131105 0.268340 -0.393611
C28   C     C_3   0.693470 0.184790 0.316449 -0.758741
C29   C     C_3   0.397217 0.860459 0.794949 -0.416102
C30   C     C_3   0.329532 0.885204 0.690952 -0.921341
C31   C     C_3   0.559295 0.866342 0.844593 -0.295739
C32   C     C_3   0.543955 0.869064 0.996760 -0.889901
C33   C     C_3   0.270530 0.458111 0.878185 -0.409225
C34   C     C_3   0.951162 0.674524 0.501624 0.522811
C35   C     C_3   0.208563 0.361101 0.819810 -0.774169
C36   C     C_3   0.286713 0.380221 0.172555 -0.327341
C37   C     C_3   0.203375 0.309220 0.141634 -0.908288
C38   C     C_3   0.412540 0.242808 0.095079 -0.306021
C39   C     C_3   0.360640 0.122129 0.072717 -0.848163
C40   C     C_3   0.936905 0.517222 0.209410 -0.489393
C41   C     C_3   0.842327 0.523111 0.179777 -0.714083
C42   C     C_3   0.096437 0.767407 0.589668 -0.294534
C43   C     C_3   0.100257 0.728607 0.738033 -0.926799
C44   C     C_3   0.052030 0.675327 0.490070 0.607075
C45   C     C_1   0.825519 0.525247 0.484639 0.030992
C46   C     C_1   0.174809 0.529023 0.502065 0.006954
C47   C     C_1   0.249828 0.517975 0.503821 -0.228081
C48   C     C_R   0.513479 0.061494 0.617082 -0.030542
F1    F     F_    0.914514 0.333197 0.598460 -0.668060
F2    F     F_    0.548970 0.126316 0.835943 -0.656427
F3    F     F_    0.646280 0.552045 0.128824 -0.681074
F4    F     F_    0.379507 0.305909 0.832406 -0.666081
F5    F     F_    0.076583 0.722380 0.363338 -0.727459
F6    F     F_    0.925451 0.709316 0.630334 -0.714301
H1    H     H_    0.058581 0.496989 0.713586 0.170841
H2    H     H_    0.918086 0.928183 0.544844 0.297026
H3    H     H_    0.996620 0.933989 0.406382 0.261267
H4    H     H_    0.888015 0.969153 0.377575 0.229463
H5    H     H_    0.927948 0.757431 0.299392 0.212130
H6    H     H_    0.839121 0.759189 0.413857 0.192580
H7    H     H_    0.682805 0.256307 0.394479 0.251219
H8    H     H_    0.731903 0.108901 0.358935 0.254256
H9    H     H_    0.729890 0.229229 0.230320 0.247042
H10   H     H_    0.624194 0.062899 0.188472 0.209505
H11   H     H_    0.573387 0.205241 0.218476 0.229403
H12   H     H_    0.915842 0.494539 0.700663 0.162194
H13   H     H_    0.320771 0.986910 0.675110 0.252409
H14   H     H_    0.346330 0.841376 0.593567 0.264456
H15   H     H_    0.268082 0.842765 0.728161 0.263035
H16   H     H_    0.403541 0.757504 0.805079 0.242035
H17   H     H_    0.372769 0.893560 0.893747 0.206967
H18   H     H_    0.536309 0.966499 0.030526 0.285292
H19   H     H_    0.486708 0.811329 0.027745 0.244110
H20   H     H_    0.599679 0.829927 0.046981 0.264165
H21   H     H_    0.567508 0.767599 0.815513 0.211101
H22   H     H_    0.620814 0.916492 0.819259 0.242916
H23   H     H_    0.566586 0.884855 0.292979 0.173752
H24   H     H_    0.217266 0.357569 0.709211 0.257918
H25   H     H_    0.218889 0.265105 0.857826 0.265641
H26   H     H_    0.142148 0.385326 0.846346 0.224557
H27   H     H_    0.239576 0.507754 0.962716 0.167380
H28   H     H_    0.283394 0.533254 0.802114 0.204453
H29   H     H_    0.212605 0.229487 0.074404 0.281140
H30   H     H_    0.173657 0.270370 0.236304 0.241337
H31   H     H_    0.156972 0.372949 0.097332 0.254773
H32   H     H_    0.305677 0.341927 0.270828 0.232703
H33   H     H_    0.272490 0.480620 0.187410 0.206092
H34   H     H_    0.422683 0.108609 0.775915 0.148997
H35   H     H_    0.313223 0.105483 0.156407 0.257284
H36   H     H_    0.328455 0.123969 0.975192 0.280457
H37   H     H_    0.403477 0.041689 0.073509 0.239784
H38   H     H_    0.471422 0.241995 0.030303 0.252808
H39   H     H_    0.432022 0.238934 0.199900 0.212874
H40   H     H_    0.808184 0.435343 0.213272 0.267931
H41   H     H_    0.813309 0.604742 0.229079 0.265968
H42   H     H_    0.834751 0.534570 0.069724 0.264470
H43   H     H_    0.969982 0.607275 0.183103 0.250127
H44   H     H_    0.964523 0.449410 0.137245 0.217918
H45   H     H_    0.064494 0.361898 0.614301 0.235721
H46   H     H_    0.037621 0.695750 0.780762 0.313369
H47   H     H_    0.148697 0.656316 0.751635 0.248894
H48   H     H_    0.120494 0.811053 0.797257 0.256019
H49   H     H_    0.163082 0.786126 0.552474 0.208519
H50   H     H_    0.065554 0.859162 0.586220 0.225177
H51   H     H_    0.632133 0.538880 0.868410 0.177917
H52   H     H_    0.090273 0.510168 0.277242 0.231388
H53   H     H_    0.075049 0.368441 0.371222 0.177904
H54   H     H_    0.933947 0.370746 0.355848 0.226171
N1    N     N_R   0.499430 0.499140 0.142800 -0.143667
N2    N     N_R   0.499430 0.499180 0.857150 -0.096531
O1    O     O_R   0.500010 0.316790 0.614690 -0.518771
O2    O     O_R   0.500000 0.316760 0.385350 -0.658340
O3    O     O_R   0.377150 0.500020 0.614720 -0.585633
O4    O     O_R   0.377140 0.499990 0.385380 -0.632588
O5    O     O_R   0.500000 0.683240 0.614650 -0.641817
O6    O     O_R   0.499990 0.683210 0.385310 -0.608097
O7    O     O_R   0.622860 0.500010 0.614620 -0.618765
O8    O     O_R   0.622850 0.499980 0.385280 -0.550718
Zn1   Zn    Zn3+2 0.500010 0.500020 0.653130 1.006536
Zn2   Zn    Zn3+2 0.499990 0.499980 0.346870 0.974806

loop_
_geom_bond_atom_site_label_1
_geom_bond_atom_site_label_2
_ccdc_geom_bond_type
C23   C45   S    
C11   N1    A    
C42   H49   S    
C12   F1    S    
C7    C8    S    
C32   H18   S    
C41   H41   S    
C12   C23   S    
C13   N2    A    
C8    C29   S    
C37   H31   S    
C36   C37   S    
O7    Zn1   S    
C1    O2    A    
C32   H20   S    
C38   C39   S    
C41   H42   S    
C10   C17   S    
C19   H1    S    
C38   H38   S    
C35   H26   S    
C12   C19   S    
C10   N1    A    
O1    Zn1   S    
C1    C2    S    
O3    Zn1   S    
C44   F5    S    
C31   C32   S    
C8    C9    S    
C37   H30   S    
C25   H6    S    
C33   H28   S    
C18   O8    A    
C39   H36   S    
C30   H13   S    
C25   C34   S    
C20   H53   S    
C28   H7    S    
C42   C44   S    
C16   O6    A    
C39   H37   S    
C20   H52   S    
C36   H33   S    
C20   C24   S    
C4    O3    A    
C34   C44   S    
C43   H46   S    
C13   H51   S    
C10   C14   A    
C32   H19   S    
O2    Zn2   S    
C19   H45   S    
C36   H32   S    
C25   C26   S    
C12   H12   S    
O6    Zn2   S    
C26   H2    S    
C43   H47   S    
C29   C30   S    
C27   H11   S    
C31   H21   S    
C41   H40   S    
C23   C34   S    
C15   F4    S    
C26   H4    S    
C18   O7    A    
C40   C41   S    
C17   C36   S    
C34   F6    S    
O5    Zn1   S    
C21   C23   S    
C24   C44   S    
C42   C43   S    
C5    H23   S    
C16   O5    A    
C40   H43   S    
C30   H15   S    
C29   H16   S    
C4    O4    A    
C15   C17   S    
C46   C47   T    
C18   C22   S    
C8    C31   S    
C9    F2    S    
C3    C5    A    
C42   H50   S    
N2    Zn1   S    
C6    C7    A    
C35   H24   S    
C2    C48   A    
C7    C48   A    
C3    C27   S    
C2    C3    A    
C43   H48   S    
C24   C46   S    
C9    H34   S    
C30   H14   S    
C1    O1    A    
C40   H44   S    
C11   C13   A    
C31   H22   S    
C5    C6    A    
C21   C40   S    
C14   N2    A    
C38   H39   S    
C35   H25   S    
C33   C35   S    
C39   H35   S    
C19   C24   S    
C17   C38   S    
C26   H3    S    
O8    Zn2   S    
C21   H54   S    
C11   F3    S    
C27   H10   S    
C6    C16   S    
C28   H9    S    
C22   C45   T    
C20   C21   S    
C9    C48   S    
C27   C28   S    
C14   C15   S    
C37   H29   S    
C25   H5    S    
C33   H27   S    
C15   C33   S    
O4    Zn2   S    
N1    Zn2   S    
C29   H17   S    
C4    C47   S    
C28   H8    S    
