data_mof_unit_11996.cif
_audit_creation_date              2012-12-10T19:13:34-0500
_audit_creation_method            fapswitch 2.2
_symmetry_space_group_name_H-M    P1
_symmetry_Int_Tables_number       1
_space_group_crystal_system       triclinic
_cell_length_a                    9.681493
_cell_length_b                    10.701696
_cell_length_c                    16.783819
_cell_angle_alpha                 89.600795
_cell_angle_beta                  85.30646
_cell_angle_gamma                 88.796991
_cell_volume                      1732.70714853

loop_
_atom_site_label
_atom_site_type_symbol
_atom_type_description
_atom_site_fract_x
_atom_site_fract_y
_atom_site_fract_z
_atom_type_partial_charge
C1    C     C_R   0.497805 0.742052 0.504254 0.853613
C2    C     C_R   0.376356 0.454145 0.790713 0.163437
C3    C     C_R   0.416636 0.641487 0.155356 -0.177771
C4    C     C_R   0.410026 0.597307 0.232919 -0.214756
C5    C     C_R   0.650872 0.527835 0.214239 -0.232390
C6    C     C_R   0.656270 0.569272 0.135214 -0.168364
C7    C     C_R   0.537835 0.622932 0.105016 0.204741
C8    C     C_2   0.422757 0.617463 0.982325 -0.228183
C9    C     C_2   0.536606 0.643426 0.018987 -0.242668
C10   C     C_R   0.526319 0.538808 0.262654 -0.021905
C11   C     C_3   0.343074 0.934058 0.513637 0.035365
C12   C     C_R   0.480949 0.499469 0.652975 0.850417
C13   C     C_3   0.350344 0.075199 0.499962 -0.441878
C14   C     C_3   0.577537 0.923514 0.572930 -0.407222
C15   C     C_3   0.571979 0.924546 0.422385 -0.083713
C16   C     C_3   0.495128 0.878276 0.503802 0.004111
C17   C     C_3   0.502817 0.120974 0.502922 -0.003635
C18   C     C_3   0.561821 0.066690 0.581510 -0.038469
C19   C     C_3   0.591016 0.070183 0.426588 -0.013406
C20   C     C_3   0.907896 0.599265 0.554607 -0.224718
C21   C     C_3   0.070647 0.602155 0.553153 -0.246006
C22   C     C_3   0.918596 0.379872 0.530277 -0.246985
C23   C     C_R   0.500646 0.257628 0.504158 0.864223
C24   C     C_3   0.928854 0.523700 0.420364 -0.227283
C25   C     C_3   0.081085 0.381569 0.529759 -0.225091
C26   C     C_3   0.091501 0.524520 0.419839 -0.231321
C27   C     C_R   0.518566 0.504757 0.346777 0.878447
C28   C     C_R   0.467517 0.522494 0.737761 -0.064697
C29   C     C_R   0.537671 0.625319 0.764415 -0.255879
C30   C     C_R   0.519025 0.660922 0.843567 -0.163966
C31   C     C_R   0.431169 0.592747 0.897005 0.160189
C32   C     C_R   0.358674 0.491295 0.870518 -0.190529
H1    H     H_    0.604843 0.679891 0.723346 0.143869
H2    H     H_    0.313709 0.098325 0.440273 0.148858
H3    H     H_    0.544545 0.875954 0.630049 0.166645
H4    H     H_    0.483301 0.088399 0.631433 0.175375
H5    H     H_    0.314427 0.612170 0.270159 0.140767
H6    H     H_    0.700893 0.081852 0.439437 0.150288
H7    H     H_    0.688702 0.896662 0.559377 0.169662
H8    H     H_    0.862946 0.584164 0.616973 0.148868
H9    H     H_    0.868170 0.692142 0.535727 0.140721
H10   H     H_    0.103322 0.592064 0.614837 0.146901
H11   H     H_    0.112988 0.360772 0.590603 0.153938
H12   H     H_    0.742826 0.486546 0.237162 0.142139
H13   H     H_    0.890545 0.614526 0.397076 0.142517
H14   H     H_    0.130808 0.615228 0.395538 0.131476
H15   H     H_    0.136864 0.450953 0.378491 0.147718
H16   H     H_    0.125610 0.304972 0.490625 0.144628
H17   H     H_    0.635288 0.656144 0.984442 0.148684
H18   H     H_    0.292616 0.437820 0.912830 0.130470
H19   H     H_    0.325826 0.687848 0.134426 0.126423
H20   H     H_    0.573635 0.741052 0.863044 0.135817
N1    N     N_3   0.861190 0.500250 0.501720 -0.029638
N2    N     N_3   0.138550 0.503270 0.501080 -0.027744
O1    O     O_R   0.383960 0.685090 0.500020 -0.645861
O2    O     O_R   0.616040 0.685320 0.499960 -0.633625
O3    O     O_R   0.370240 0.499890 0.615830 -0.612000
O4    O     O_R   0.602330 0.500120 0.615770 -0.630186
O5    O     O_R   0.383960 0.314680 0.500040 -0.640262
O6    O     O_R   0.616040 0.314910 0.499980 -0.630592
O7    O     O_R   0.397670 0.499880 0.384230 -0.632534
O8    O     O_R   0.629760 0.500110 0.384170 -0.618760
Zn1   Zn    Zn3+2 0.345040 0.499850 0.500040 0.892875
Zn2   Zn    Zn3+2 0.654960 0.500150 0.499960 0.893929
H21   H     H_    0.750862 0.555214 0.096919 0.122537
C33   C     C_3   0.247513 0.895605 0.590234 -0.370601
C34   C     C_3   0.257220 0.963590 0.669852 -0.893332
H22   H     H_    0.353918 0.938995 0.697516 0.252107
H23   H     H_    0.244178 0.066232 0.665101 0.245498
H24   H     H_    0.171415 0.931601 0.712642 0.244307
H25   H     H_    0.138363 0.908410 0.575074 0.180768
H26   H     H_    0.261266 0.795240 0.603981 0.224069
H27   H     H_    0.288579 0.896951 0.463119 0.111268
H28   H     H_    0.276826 0.125168 0.543239 0.191984
H29   H     H_    0.678599 0.882088 0.419015 0.158886
C35   C     C_3   0.504115 0.874892 0.347684 -0.388077
C36   C     C_3   0.610154 0.856800 0.275463 -0.877770
H30   H     H_    0.677806 0.938273 0.265004 0.264106
H31   H     H_    0.677806 0.774064 0.285487 0.259637
H32   H     H_    0.555512 0.841681 0.220934 0.265123
H33   H     H_    0.458404 0.782009 0.359626 0.208928
H34   H     H_    0.414957 0.934809 0.332686 0.188752
C37   C     C_3   0.572136 0.148385 0.347827 -0.357920
C38   C     C_3   0.708617 0.203310 0.312558 -0.940850
H35   H     H_    0.749583 0.268588 0.355478 0.278115
H36   H     H_    0.787005 0.127825 0.298479 0.249721
H37   H     H_    0.691228 0.255141 0.256626 0.253209
H38   H     H_    0.528834 0.096905 0.299594 0.225971
H39   H     H_    0.496421 0.226728 0.358159 0.199642
C39   C     C_3   0.697347 0.124109 0.607557 -0.418078
C40   C     C_3   0.744499 0.065982 0.684742 -0.920948
H40   H     H_    0.658581 0.069397 0.732837 0.259410
H41   H     H_    0.780396 0.967646 0.675349 0.258064
H42   H     H_    0.832546 0.119452 0.704545 0.251888
H43   H     H_    0.783026 0.114582 0.559768 0.205681
H44   H     H_    0.678624 0.224520 0.621109 0.228904
H45   H     H_    0.105385 0.694878 0.530622 0.132349
H46   H     H_    0.872976 0.359761 0.591854 0.148167
H47   H     H_    0.898729 0.450737 0.378641 0.138190
H48   H     H_    0.888419 0.302492 0.491815 0.139288
C41   C     C_3   0.303116 0.338687 0.765659 -0.424389
C42   C     C_3   0.147281 0.363066 0.765163 -0.868619
H49   H     H_    0.100494 0.382108 0.826612 0.253245
H50   H     H_    0.126389 0.444425 0.726279 0.259889
H51   H     H_    0.097606 0.279609 0.742000 0.237099
H52   H     H_    0.344159 0.305425 0.705665 0.192326
H53   H     H_    0.321971 0.260973 0.807961 0.199888
H54   H     H_    0.328241 0.589887 0.016698 0.146497

loop_
_geom_bond_atom_site_label_1
_geom_bond_atom_site_label_2
_ccdc_geom_bond_type
C10   C27   S    
C41   H53   S    
C15   H29   S    
C41   C42   S    
C22   H46   S    
C24   H47   S    
C14   C18   S    
C38   H37   S    
C25   H11   S    
C20   H9    S    
C39   H43   S    
C36   H30   S    
C23   O5    A    
C17   C23   S    
C12   C28   S    
C5    C6    A    
C24   H13   S    
C28   C29   A    
C27   O8    A    
C1    O2    A    
C24   C26   S    
C3    C7    A    
C30   C31   A    
C20   H8    S    
N1    Zn2   S    
N2    Zn1   S    
C15   C16   S    
C29   H1    S    
C42   H51   S    
C2    C32   A    
O7    Zn1   S    
O8    Zn2   S    
C27   O7    A    
C14   H7    S    
C38   H35   S    
C6    H21   S    
C33   H26   S    
C37   C38   S    
C8    C9    D    
C22   C25   S    
O1    Zn1   S    
O2    Zn2   S    
C11   C33   S    
C12   O4    A    
C37   H38   S    
C19   C37   S    
C26   N2    S    
O3    Zn1   S    
C22   N1    S    
C36   H31   S    
O4    Zn2   S    
C23   O6    A    
C37   H39   S    
C22   H48   S    
C34   H22   S    
C18   C39   S    
C9    H17   S    
C25   N2    S    
C11   H27   S    
C35   H34   S    
C40   H40   S    
C3    H19   S    
C2    C41   S    
C24   N1    S    
C34   H23   S    
C15   C19   S    
C29   C30   A    
C19   H6    S    
C40   H41   S    
C21   H45   S    
C11   C16   S    
C33   H25   S    
C20   C21   S    
C17   C18   S    
C1    C16   S    
C35   C36   S    
C42   H50   S    
C25   H16   S    
C32   H18   S    
C26   H15   S    
C12   O3    A    
C5    H12   S    
C14   C16   S    
C4    C10   A    
C3    C4    A    
C14   H3    S    
C36   H32   S    
C41   H52   S    
C7    C9    S    
C30   H20   S    
C8    C31   S    
C31   C32   A    
C38   H36   S    
C20   N1    S    
C35   H33   S    
C2    C28   A    
C39   H44   S    
C6    C7    A    
O5    Zn1   S    
C13   C17   S    
O6    Zn2   S    
C34   H24   S    
C1    O1    A    
C5    C10   A    
C40   H42   S    
C11   C13   S    
C39   C40   S    
C21   N2    S    
C17   C19   S    
C33   C34   S    
C42   H49   S    
C26   H14   S    
C21   H10   S    
C13   H2    S    
C4    H5    S    
C8    H54   S    
C15   C35   S    
C18   H4    S    
C13   H28   S    
