data_mof_unit_43993.cif
_audit_creation_date              2012-12-11T15:27:43-0500
_audit_creation_method            fapswitch 2.2
_symmetry_space_group_name_H-M    P1
_symmetry_Int_Tables_number       1
_space_group_crystal_system       triclinic
_cell_length_a                    23.251189
_cell_length_b                    7.301004
_cell_length_c                    15.123532
_cell_angle_alpha                 90.407663
_cell_angle_beta                  108.261262
_cell_angle_gamma                 89.590932
_cell_volume                      2437.934673

loop_
_atom_site_label
_atom_site_type_symbol
_atom_type_description
_atom_site_fract_x
_atom_site_fract_y
_atom_site_fract_z
_atom_type_partial_charge
O1    O     O_R   0.711000 0.648610 0.341170 -0.531627
O2    O     O_R   0.289000 0.351390 0.658830 -0.531627
O3    O     O_R   0.789000 0.148610 0.158830 -0.536651
O4    O     O_R   0.211000 0.851390 0.841170 -0.536651
O5    O     O_R   0.829650 0.322030 0.336650 -0.538865
O6    O     O_R   0.170350 0.677970 0.663350 -0.538865
O7    O     O_R   0.670350 0.822030 0.163350 -0.533968
O8    O     O_R   0.329650 0.177970 0.836650 -0.533968
C1    C     C_R   0.854272 0.485627 0.356791 0.746176
C2    C     C_R   0.145728 0.514373 0.643209 0.746175
C3    C     C_R   0.645727 0.985965 0.143199 0.746665
C4    C     C_R   0.354273 0.014035 0.856801 0.746665
O9    O     O_R   0.713950 0.319280 0.352070 -0.537777
O10   O     O_R   0.286050 0.680720 0.647930 -0.537777
O11   O     O_R   0.786050 0.819280 0.147930 -0.533196
O12   O     O_R   0.213950 0.180720 0.852070 -0.533197
O13   O     O_R   0.672470 0.142870 0.174360 -0.537176
O14   O     O_R   0.327530 0.857130 0.825640 -0.537176
O15   O     O_R   0.827530 0.642870 0.325640 -0.532046
O16   O     O_R   0.172470 0.357130 0.674360 -0.532046
C5    C     C_R   0.702027 0.488395 0.376165 0.744043
C6    C     C_R   0.297973 0.511605 0.623835 0.744044
C7    C     C_R   0.797997 0.986679 0.123794 0.744228
C8    C     C_R   0.202002 0.013321 0.876206 0.744228
O17   O     O_3   0.736530 0.478650 0.191680 -0.378827
O18   O     O_3   0.263470 0.521350 0.808320 -0.378827
O19   O     O_3   0.763470 0.978650 0.308320 -0.377135
O20   O     O_3   0.236530 0.021350 0.691680 -0.377136
V1    V     V_3+5 0.752500 0.206170 0.260820 1.490678
V2    V     V_3+5 0.247500 0.793830 0.739180 1.490678
V3    V     V_3+5 0.747500 0.706170 0.239180 1.507181
V4    V     V_3+5 0.252500 0.293830 0.760820 1.507181
C9    C     C_R   0.826935 0.990891 0.050962 -0.083586
C10   C     C_R   0.173065 0.009109 0.949038 -0.083585
C11   C     C_R   0.673002 0.500955 0.448764 -0.083558
C12   C     C_R   0.326998 0.499045 0.551236 -0.083558
C13   C     C_R   0.823070 0.954835 0.890444 -0.155935
C14   C     C_R   0.176930 0.045166 0.109555 -0.155935
C15   C     C_R   0.675986 0.574550 0.605963 -0.156870
C16   C     C_R   0.324014 0.425449 0.394037 -0.156870
C17   C     C_R   0.793340 0.963577 0.957263 0.250288
C18   C     C_R   0.206660 0.036423 0.042737 0.250288
C19   C     C_R   0.705996 0.550615 0.540144 0.249730
C20   C     C_R   0.294004 0.449385 0.459856 0.249730
C21   C     C_R   0.889847 0.009010 0.077300 -0.260107
C22   C     C_R   0.110153 0.990990 0.922700 -0.260108
C23   C     C_R   0.610424 0.475579 0.423729 -0.259630
C24   C     C_R   0.389576 0.524419 0.576271 -0.259630
C25   C     C_R   0.921211 0.996888 0.010996 0.090688
C26   C     C_R   0.078789 0.003113 0.989003 0.090688
C27   C     C_R   0.578751 0.502313 0.488867 0.090850
C28   C     C_R   0.421249 0.497686 0.511134 0.090850
C29   C     C_R   0.886343 0.969747 0.916403 0.076839
C30   C     C_R   0.113657 0.030254 0.083596 0.076839
C31   C     C_R   0.612992 0.552441 0.581104 0.076759
C32   C     C_R   0.387008 0.447558 0.418896 0.076759
C33   C     C_R   0.985770 0.008086 0.035520 0.065965
C34   C     C_R   0.014230 0.991916 0.964479 0.065965
C35   C     C_R   0.514436 0.483738 0.465246 0.066268
C36   C     C_R   0.485564 0.516260 0.534755 0.066268
C37   C     C_R   0.977180 0.965827 0.871347 -0.175389
C38   C     C_R   0.022819 0.034174 0.128652 -0.175389
C39   C     C_R   0.521978 0.565612 0.625538 -0.175410
C40   C     C_R   0.478022 0.434386 0.374463 -0.175411
C41   C     C_R   0.914703 0.955427 0.848166 -0.147484
C42   C     C_R   0.085297 0.044574 0.151833 -0.147484
C43   C     C_R   0.584247 0.582587 0.647932 -0.149304
C44   C     C_R   0.415753 0.417412 0.352068 -0.149304
H1    H     H_    0.888273 0.934642 0.775785 0.160268
H2    H     H_    0.111727 0.065360 0.224214 0.160268
H3    H     H_    0.610184 0.621223 0.718474 0.162693
H4    H     H_    0.389817 0.378776 0.281526 0.162692
H5    H     H_    0.087268 0.972221 0.849438 0.109670
H6    H     H_    0.912732 0.027779 0.150562 0.109670
H7    H     H_    0.412030 0.560426 0.647909 0.109696
H8    H     H_    0.587970 0.439572 0.352092 0.109696
H9    H     H_    0.796675 0.933646 0.818108 0.162898
H10   H     H_    0.203325 0.066354 0.181892 0.162898
H11   H     H_    0.701903 0.613178 0.676486 0.163788
H12   H     H_    0.298097 0.386822 0.323514 0.163788
H13   H     H_    0.994806 0.952138 0.813821 0.130361
H14   H     H_    0.005194 0.047864 0.186179 0.130360
H15   H     H_    0.503988 0.593146 0.681722 0.130655
H16   H     H_    0.496012 0.406852 0.318279 0.130655
C45   C     C_1   0.416760 0.006574 0.918763 -0.148417
C46   C     C_1   0.583240 0.993426 0.081236 -0.148418
C47   C     C_1   0.083238 0.507387 0.581226 -0.148254
C48   C     C_1   0.916762 0.492613 0.418774 -0.148253
C49   C     C_1   0.469140 0.002200 0.969976 0.026463
C50   C     C_1   0.530860 0.997800 0.030024 0.026464
C51   C     C_1   0.030860 0.502605 0.530019 0.026097
C52   C     C_1   0.969139 0.497395 0.469981 0.026097
Br1   Br    Br    0.293056 0.063545 0.081971 -0.574842
Br2   Br    Br    0.706943 0.936455 0.918029 -0.574843
Br3   Br    Br    0.208095 0.411683 0.422603 -0.572890
Br4   Br    Br    0.791905 0.588319 0.577397 -0.572891

loop_
_geom_bond_atom_site_label_1
_geom_bond_atom_site_label_2
_ccdc_geom_bond_type
O17   V3    S    
O1    C5    A    
C47   C51   T    
O19   V1    S    
C18   Br1   S    
C9    C21   A    
O3    C7    A    
C10   C18   A    
O15   V3    S    
C25   C33   A    
C33   C38   A    
O18   V4    S    
C35   C40   A    
C26   C30   A    
C4    C45   S    
C36   C39   A    
C40   C44   A    
O9    V1    S    
C23   H8    S    
C14   C18   A    
C1    C48   S    
O4    C8    A    
C25   C29   A    
C3    C46   S    
O1    V3    S    
O13   V1    S    
O2    V4    S    
O3    V1    S    
C40   H16   S    
C28   C36   A    
C1    O15   A    
C15   C31   A    
C48   C52   T    
C2    O16   A    
C7    C9    S    
O2    C6    A    
C16   H12   S    
C10   C22   A    
C11   C19   A    
C16   C20   A    
C43   H3    S    
C44   H4    S    
C13   C29   A    
C34   C37   A    
O11   C7    A    
C38   H14   S    
C11   C23   A    
C35   C36   A    
O12   C8    A    
C24   H7    S    
O10   V2    S    
O5    V1    S    
C39   C43   A    
C2    C47   S    
O7    V3    S    
C38   C42   A    
O8    V4    S    
C46   C50   T    
C51   C52   S    
C45   C49   T    
C23   C27   A    
C14   H10   S    
C16   C32   A    
C32   C44   A    
C13   H9    S    
C8    C10   S    
C39   H15   S    
C21   H6    S    
C26   C34   A    
O7    C3    A    
O5    C1    A    
C31   C43   A    
C17   Br2   S    
C14   C30   A    
C21   C25   A    
O8    C4    A    
C19   Br4   S    
O9    C5    A    
O14   V2    S    
O6    V2    S    
C12   C20   A    
C27   C35   A    
C29   C41   A    
O16   V4    S    
C3    O13   A    
O6    C2    A    
C15   C19   A    
O11   V3    S    
C30   C42   A    
O12   V4    S    
C6    C12   S    
C22   C26   A    
C9    C17   A    
O10   C6    A    
O20   V2    S    
C5    C11   S    
C20   Br3   S    
C37   H13   S    
C33   C34   A    
C42   H2    S    
C41   H1    S    
C12   C24   A    
C27   C31   A    
C13   C17   A    
C37   C41   A    
C24   C28   A    
C4    O14   A    
C49   C50   S    
C22   H5    S    
O4    V2    S    
C28   C32   A    
C15   H11   S    
