data_mof_unit_42849.cif
_audit_creation_date              2012-12-10T17:03:53-0500
_audit_creation_method            fapswitch 2.2
_symmetry_space_group_name_H-M    P1
_symmetry_Int_Tables_number       1
_space_group_crystal_system       triclinic
_cell_length_a                    9.901235
_cell_length_b                    11.036177
_cell_length_c                    15.828064
_cell_angle_alpha                 96.515479
_cell_angle_beta                  78.045183
_cell_angle_gamma                 111.414202
_cell_volume                      1573.87838059

loop_
_atom_site_label
_atom_site_type_symbol
_atom_type_description
_atom_site_fract_x
_atom_site_fract_y
_atom_site_fract_z
_atom_type_partial_charge
C1    C     C_R   0.556215 0.745300 0.506300 0.857274
C2    C     C_R   0.443784 0.254700 0.493701 0.857279
C3    C     C_R   0.325745 0.410124 0.073114 -0.221796
C4    C     C_R   0.674380 0.588099 0.926613 -0.221865
C5    C     C_R   0.224964 0.370638 0.017494 -0.221775
C6    C     C_R   0.775187 0.627588 0.982213 -0.221816
C7    C     C_2   0.587685 0.885055 0.509593 -0.352783
C8    C     C_2   0.412312 0.114945 0.490412 -0.352781
C9    C     C_2   0.484855 0.930387 0.498561 -0.153253
C10   C     C_2   0.515138 0.069612 0.501449 -0.153267
C11   C     C_2   0.930354 0.497399 0.487780 0.243777
C12   C     C_2   0.069615 0.502547 0.512244 0.243711
C13   C     C_R   0.409966 0.483278 0.662613 0.815827
C14   C     C_R   0.590026 0.516677 0.337380 0.815863
C15   C     C_R   0.353536 0.461749 0.755719 -0.053465
C16   C     C_R   0.646412 0.537884 0.244234 -0.053481
C17   C     C_R   0.165780 0.356547 0.875758 -0.246579
C18   C     C_R   0.834294 0.642309 0.124020 -0.246529
C19   C     C_R   0.207600 0.382681 0.787864 0.147789
C20   C     C_R   0.792429 0.616642 0.211982 0.147786
C21   C     C_R   0.454828 0.511621 0.812241 -0.300806
C22   C     C_R   0.545069 0.487875 0.187745 -0.300875
C23   C     C_R   0.417580 0.478488 0.899527 0.089379
C24   C     C_R   0.582431 0.520393 0.100331 0.089352
C25   C     C_R   0.269190 0.402303 0.931108 0.135693
C26   C     C_R   0.730884 0.596350 0.068676 0.135740
C27   C     C_R   0.523310 0.517097 0.955816 0.074990
C28   C     C_R   0.476743 0.481507 0.043996 0.074972
Cu1   Cu    Cu3+1 0.362980 0.479380 0.485080 0.936389
Cu2   Cu    Cu3+1 0.637020 0.520620 0.514920 0.936415
H1    H     H_    0.110964 0.314184 0.042483 0.144762
H2    H     H_    0.889254 0.683756 0.957156 0.144782
H3    H     H_    0.436355 0.424864 0.214667 0.155720
H4    H     H_    0.563392 0.575107 0.785463 0.155610
H5    H     H_    0.052945 0.296274 0.900122 0.137029
H6    H     H_    0.947180 0.702380 0.099584 0.137020
H7    H     H_    0.280199 0.382505 0.138848 0.142686
H8    H     H_    0.719973 0.615237 0.860791 0.142806
H9    H     H_    0.622971 0.135462 0.512786 0.183136
H10   H     H_    0.377020 0.864537 0.487227 0.183149
H11   H     H_    0.304707 0.048767 0.479044 0.152728
H12   H     H_    0.695291 0.951233 0.520958 0.152728
H13   H     H_    0.129294 0.403755 0.404817 0.207854
H14   H     H_    0.870754 0.596322 0.595156 0.207830
N1    N     N_2   0.842890 0.551600 0.537350 -0.296952
N2    N     N_2   0.157110 0.448400 0.462650 -0.296956
O1    O     O_R   0.426810 0.668300 0.492040 -0.591386
O2    O     O_R   0.573190 0.331700 0.507960 -0.591399
O3    O     O_R   0.658240 0.703130 0.517240 -0.565328
O4    O     O_R   0.341760 0.296870 0.482760 -0.565306
O5    O     O_R   0.319390 0.472820 0.610170 -0.560157
O6    O     O_R   0.680610 0.527180 0.389830 -0.560098
O7    O     O_R   0.550820 0.507640 0.635370 -0.586629
O8    O     O_R   0.449180 0.492360 0.364630 -0.586695
N3    N     N_3   0.896701 0.676173 0.268432 -0.587298
H15   H     H_    0.989731 0.650397 0.244832 0.208614
H16   H     H_    0.929402 0.777215 0.265243 0.218154
N4    N     N_3   0.103373 0.323348 0.731365 -0.587250
H17   H     H_    0.010257 0.348953 0.755080 0.208608
H18   H     H_    0.070823 0.222283 0.734329 0.218161
N5    N     N_3   0.100913 0.565926 0.593802 -0.634476
H19   H     H_    0.087337 0.496278 0.636990 0.259396
H20   H     H_    0.205195 0.637445 0.587381 0.261545
N6    N     N_3   0.899000 0.433911 0.406255 -0.634475
H21   H     H_    0.912502 0.503480 0.363028 0.259430
H22   H     H_    0.794751 0.362340 0.412711 0.261493

loop_
_geom_bond_atom_site_label_1
_geom_bond_atom_site_label_2
_ccdc_geom_bond_type
C6    H2    S    
C11   C12   S    
Cu1   Cu2   S    
C14   C16   S    
C23   C27   A    
C2    O4    A    
C9    C10   S    
Cu2   N1    S    
C18   C20   A    
C18   C26   A    
Cu1   N2    S    
C16   C20   A    
C17   C25   A    
N6    H21   S    
N3    H15   S    
C23   C25   A    
N3    H16   S    
C13   O5    A    
Cu2   O7    S    
C8    H11   S    
C15   C19   A    
C12   N5    S    
C2    O2    A    
C6    C26   A    
C18   H6    S    
Cu1   O1    S    
C20   N3    S    
C5    C25   A    
C4    C6    A    
C3    C28   A    
C14   O8    A    
Cu2   O3    S    
C24   C26   A    
C13   O7    A    
Cu1   O4    S    
C13   C15   S    
C19   N4    S    
N5    H19   S    
H13   N2    S    
C22   C24   A    
C11   N1    D    
Cu1   O8    S    
N4    H18   S    
C3    C5    A    
C15   C21   A    
C4    C27   A    
H14   N1    S    
C3    H7    S    
C8    C10   D    
C11   N6    S    
Cu1   O5    S    
C7    H12   S    
Cu2   O2    S    
C27   C28   A    
C7    C9    D    
C22   H3    S    
Cu2   O6    S    
C1    O1    A    
C2    C8    S    
C16   C22   A    
C21   H4    S    
C17   H5    S    
C17   C19   A    
N4    H17   S    
C1    C7    S    
C1    O3    A    
C21   C23   A    
C9    H10   S    
C14   O6    A    
C24   C28   A    
N5    H20   S    
C4    H8    S    
C10   H9    S    
C5    H1    S    
C12   N2    D    
N6    H22   S    
