data_mof_unit_20936.cif
_audit_creation_date              2012-12-10T17:05:40-0500
_audit_creation_method            fapswitch 2.2
_symmetry_space_group_name_H-M    P1
_symmetry_Int_Tables_number       1
_space_group_crystal_system       triclinic
_cell_length_a                    15.911921
_cell_length_b                    11.034262
_cell_length_c                    9.864472
_cell_angle_alpha                 110.454145
_cell_angle_beta                  98.492057
_cell_angle_gamma                 91.145172
_cell_volume                      1600.18251868

loop_
_atom_site_label
_atom_site_type_symbol
_atom_type_description
_atom_site_fract_x
_atom_site_fract_y
_atom_site_fract_z
_atom_type_partial_charge
C1    C     C_R   0.491465 0.254312 0.441671 0.795380
C2    C     C_3   0.956930 0.408116 0.567183 0.073624
C3    C     C_3   0.916860 0.508900 0.500645 -0.345006
C4    C     C_3   0.961092 0.648319 0.600167 0.751023
C5    C     C_3   0.056927 0.651168 0.573954 0.006699
C6    C     C_1   0.824404 0.504855 0.499629 0.261217
C7    C     C_1   0.176040 0.505324 0.501667 0.264653
C8    C     C_1   0.251408 0.502317 0.502505 0.003386
C9    C     C_2   0.490111 0.115048 0.410312 0.367673
C10   C     C_2   0.461085 0.058771 0.497409 0.255419
C11   C     C_2   0.497801 0.882994 0.586249 -0.238764
C12   C     C_R   0.340517 0.500054 0.500806 0.824659
C13   C     C_2   0.477971 0.924098 0.473558 -0.102634
C14   C     C_2   0.506314 0.516649 0.087906 0.619456
C15   C     C_2   0.487589 0.505587 0.928594 0.601260
C16   C     C_R   0.504691 0.745491 0.558007 0.856811
C17   C     C_R   0.659532 0.500150 0.499314 0.823462
C18   C     C_3   0.056079 0.422090 0.582611 0.359738
C19   C     C_3   0.033519 0.451203 0.337808 0.147374
C20   C     C_3   0.935533 0.472783 0.338226 0.111264
C21   C     C_1   0.748876 0.502106 0.498733 0.031438
C22   C     C_3   0.083628 0.509182 0.499543 -0.311748
Cu1   Cu    Cu3+1 0.514650 0.521810 0.644910 1.175762
Cu2   Cu    Cu3+1 0.485350 0.478190 0.355090 1.107641
H1    H     H_    0.084030 0.467400 0.700387 0.184528
H2    H     H_    0.941559 0.431919 0.679208 0.198709
H3    H     H_    0.474873 0.858111 0.361004 0.229756
H4    H     H_    0.504436 0.949528 0.699048 0.214349
H5    H     H_    0.415459 0.380226 0.065636 0.227979
H6    H     H_    0.037800 0.344612 0.302076 0.218987
H7    H     H_    0.900195 0.377676 0.271968 0.178749
H8    H     H_    0.057115 0.696671 0.490151 0.249578
N1    N     N_2   0.463320 0.445430 0.137380 -0.323366
N2    N     N_2   0.536720 0.554500 0.862620 -0.072548
O1    O     O_R   0.507820 0.332330 0.577400 -0.554189
O2    O     O_R   0.483070 0.295500 0.332660 -0.542516
O3    O     O_R   0.391820 0.518430 0.622420 -0.527070
O4    O     O_R   0.367070 0.481600 0.377680 -0.577852
O5    O     O_R   0.516930 0.704500 0.667340 -0.534769
O6    O     O_R   0.492180 0.667670 0.422600 -0.545628
O7    O     O_R   0.632930 0.518400 0.622320 -0.525869
O8    O     O_R   0.608180 0.481570 0.377580 -0.514784
S1    S     S_3+6 0.912722 0.240978 0.475968 0.109707
O9    O     O_2   0.817148 0.233212 0.459023 -0.275423
O10   O     O_2   0.938502 0.180419 0.327755 -0.223435
O11   O     O_3   0.950015 0.156297 0.581527 -0.376755
H9    H     H_    0.925498 0.066086 0.526666 0.412914
F1    F     F_    0.921577 0.741028 0.553689 -0.562153
S2    S     S_3+6 0.397693 0.134851 0.632723 0.056825
O12   O     O_2   0.455568 0.197252 0.777274 -0.277287
O13   O     O_2   0.346680 0.234398 0.593189 -0.230458
O14   O     O_3   0.330396 0.021862 0.646640 -0.458380
H10   H     H_    0.301488 0.068892 0.730088 0.414044
F2    F     F_    0.526698 0.043079 0.294441 -0.604818
F3    F     F_    0.414001 0.437769 0.848344 -0.626911
F4    F     F_    0.568266 0.601833 0.185296 -0.572954
S3    S     S_3+6 0.621858 0.666781 0.961809 0.196988
O15   O     O_2   0.591549 0.777058 0.079508 -0.182436
O16   O     O_2   0.688821 0.601605 0.029716 -0.166494
O17   O     O_3   0.666022 0.729494 0.853856 -0.461382
H11   H     H_    0.714101 0.789922 0.919603 0.396438
F5    F     F_    0.089554 0.302026 0.533079 -0.539020
S4    S     S_3+6 0.084563 0.487078 0.201227 0.088767
O18   O     O_2   0.026990 0.443129 0.055264 -0.172136
O19   O     O_2   0.111262 0.629107 0.248713 -0.228142
O20   O     O_3   0.171949 0.403617 0.178984 -0.505470
H12   H     H_    0.200466 0.433537 0.112310 0.389296
S5    S     S_3+6 0.889982 0.579232 0.244518 0.142817
O21   O     O_2   0.870465 0.504123 0.082389 -0.176287
O22   O     O_2   0.807718 0.625751 0.294109 -0.185543
O23   O     O_3   0.955776 0.710459 0.275416 -0.434139
H13   H     H_    0.925562 0.758109 0.216887 0.399633
S6    S     S_3+6 0.135684 0.759871 0.721540 0.105821
O24   O     O_2   0.210923 0.787006 0.657569 -0.275608
O25   O     O_2   0.100098 0.887474 0.792380 -0.105736
O26   O     O_3   0.169902 0.696058 0.849890 -0.449261
H14   H     H_    0.217935 0.644835 0.815110 0.352241
S7    S     S_3+6 0.946033 0.694057 0.792134 0.092727
O27   O     O_2   0.953625 0.839356 0.862995 -0.141198
O28   O     O_2   0.858488 0.646903 0.800950 -0.280266
O29   O     O_3   0.016996 0.632465 0.889131 -0.500164
H15   H     H_    0.011130 0.678471 0.992861 0.429803

loop_
_geom_bond_atom_site_label_1
_geom_bond_atom_site_label_2
_ccdc_geom_bond_type
C14   F4    S    
S4    O19   D    
C2    C18   S    
Cu2   O8    S    
S6    O24   D    
C19   C20   S    
C19   H6    S    
C3    C6    S    
C14   N1    D    
O29   H15   S    
C7    C8    T    
Cu2   O2    S    
S7    O28   D    
S3    O16   D    
H5    N1    S    
C12   O3    A    
C17   O8    A    
C5    C22   S    
C19   S4    S    
S5    O21   D    
S2    O13   D    
N2    S3    S    
Cu2   O4    S    
Cu1   Cu2   S    
C9    C10   D    
C15   N2    D    
C5    H8    S    
S2    O14   S    
O20   H12   S    
S4    O20   S    
C12   O4    A    
S6    O25   D    
C18   H1    S    
C19   C22   S    
C1    C9    S    
O26   H14   S    
S7    O27   D    
C18   F5    S    
S3    O17   S    
Cu1   O3    S    
C6    C21   T    
C17   C21   S    
O17   H11   S    
C15   F3    S    
S1    O9    D    
C4    S7    S    
C11   C16   S    
C2    S1    S    
C8    C12   S    
Cu1   N2    S    
C3    C20   S    
C2    H2    S    
S1    O10   D    
C16   O6    A    
Cu1   O1    S    
S6    O26   S    
C3    C4    S    
O14   H10   S    
C1    O1    A    
C4    F1    S    
O11   H9    S    
C18   C22   S    
C20   S5    S    
C4    C5    S    
C10   C13   S    
C7    C22   S    
Cu2   N1    S    
Cu1   O7    S    
C2    C3    S    
O23   H13   S    
C11   C13   D    
S7    O29   S    
S3    O15   D    
C11   H4    S    
S5    O23   S    
Cu1   O5    S    
Cu2   O6    S    
C5    S6    S    
S1    O11   S    
C17   O7    A    
C16   O5    A    
S4    O18   D    
S5    O22   D    
S2    O12   D    
C14   C15   S    
C13   H3    S    
C9    F2    S    
C10   S2    S    
C1    O2    A    
C20   H7    S    
