data_mof_unit_42455.cif
_audit_creation_date              2012-12-10T19:00:16-0500
_audit_creation_method            fapswitch 2.2
_symmetry_space_group_name_H-M    P1
_symmetry_Int_Tables_number       1
_space_group_crystal_system       triclinic
_cell_length_a                    9.532764
_cell_length_b                    10.86012
_cell_length_c                    13.434903
_cell_angle_alpha                 90.111888
_cell_angle_beta                  71.969938
_cell_angle_gamma                 90.0244
_cell_volume                      1322.57218929

loop_
_atom_site_label
_atom_site_type_symbol
_atom_type_description
_atom_site_fract_x
_atom_site_fract_y
_atom_site_fract_z
_atom_type_partial_charge
C1    C     C_R   0.500216 0.737334 0.499902 0.808062
C2    C     C_R   0.433918 0.492866 0.980771 0.086442
C3    C     C_R   0.465606 0.459977 0.873765 0.055914
C4    C     C_R   0.542345 0.471776 0.031611 0.090261
C5    C     C_R   0.673650 0.407146 0.978711 0.164144
C6    C     C_R   0.694876 0.362796 0.877831 -0.247710
C7    C     C_R   0.591592 0.386885 0.826808 -0.187656
C8    C     C_R   0.524208 0.513087 0.133819 -0.251121
C9    C     C_R   0.754996 0.419704 0.132542 -0.203814
C10   C     C_R   0.369335 0.499278 0.817236 -0.160640
C11   C     C_R   0.377040 0.937974 0.504674 0.133512
C12   C     C_R   0.419986 0.497589 0.700920 0.782021
C13   C     C_R   0.502500 0.869932 0.498543 -0.108199
C14   C     C_R   0.633429 0.935472 0.490805 -0.217679
C15   C     C_R   0.633483 0.064647 0.490562 -0.223133
C16   C     C_R   0.502588 0.130085 0.498085 -0.107333
C17   C     C_R   0.377108 0.061937 0.504299 0.135076
C18   C     C_3   0.216673 0.070716 0.516466 -0.472020
C19   C     C_3   0.216617 0.928895 0.516983 -0.479066
C20   C     C_R   0.947570 0.408058 0.450796 0.253411
C21   C     C_R   0.900645 0.583512 0.557146 -0.066359
C22   C     C_R   0.049607 0.583504 0.557156 -0.092285
C23   C     C_R   0.500315 0.262671 0.499601 0.801967
C24   C     C_R   0.095099 0.408041 0.450732 0.257761
C25   C     C_3   0.149793 0.376284 0.337115 -0.488670
C26   C     C_3   0.990630 0.376396 0.337419 -0.521243
C27   C     C_R   0.579310 0.497986 0.299763 0.801936
C28   C     C_R   0.780308 0.384127 0.028737 -0.181583
C29   C     C_R   0.624723 0.481597 0.186074 -0.052589
C30   C     C_R   0.230196 0.551538 0.873504 0.150076
C31   C     C_R   0.193348 0.568619 0.980943 -0.118936
C32   C     C_R   0.293720 0.542798 0.033669 -0.254515
Cu1   Cu    Cu3+1 0.359330 0.500020 0.500010 0.930826
Cu2   Cu    Cu3+1 0.640670 0.499980 0.499990 0.934716
H1    H     H_    0.833660 0.393843 0.171987 0.146088
H2    H     H_    0.735407 0.112482 0.484856 0.163730
H3    H     H_    0.152621 0.112125 0.592715 0.196879
H4    H     H_    0.195594 0.887207 0.447312 0.202782
H5    H     H_    0.825343 0.652604 0.601748 0.144090
H6    H     H_    0.215540 0.451213 0.288430 0.214892
H7    H     H_    0.201909 0.283756 0.322818 0.189787
H8    H     H_    0.791588 0.308591 0.838192 0.140506
H9    H     H_    0.950242 0.283848 0.323655 0.190991
H10   H     H_    0.880692 0.334547 0.988810 0.136934
H11   H     H_    0.431197 0.568667 0.175939 0.138600
H12   H     H_    0.255951 0.560123 0.116657 0.133592
H13   H     H_    0.086546 0.606460 0.023971 0.159646
H14   H     H_    0.610396 0.343972 0.751217 0.170016
H15   H     H_    0.735303 0.887720 0.485266 0.165576
N1    N     N_R   0.852320 0.499070 0.499340 -0.186701
N2    N     N_R   0.148230 0.499110 0.499340 -0.185005
O1    O     O_R   0.381190 0.680360 0.500000 -0.582829
O2    O     O_R   0.618780 0.680320 0.499990 -0.586732
O3    O     O_R   0.323230 0.500000 0.650990 -0.587846
O4    O     O_R   0.560820 0.499960 0.650980 -0.578364
O5    O     O_R   0.381220 0.319680 0.500010 -0.577412
O6    O     O_R   0.618810 0.319640 0.500000 -0.591005
O7    O     O_R   0.439180 0.500040 0.349020 -0.582363
O8    O     O_R   0.676770 0.500000 0.349010 -0.581912
H16   H     H_    0.195665 0.110917 0.446449 0.193411
H17   H     H_    0.152686 0.888696 0.593635 0.189712
H18   H     H_    0.086098 0.652540 0.601722 0.134394
H19   H     H_    0.966605 0.451903 0.289420 0.213087
N3    N     N_3   0.124180 0.591315 0.824507 -0.600244
H20   H     H_    0.089574 0.515613 0.790018 0.239611
H21   H     H_    0.171916 0.658128 0.768319 0.224516

loop_
_geom_bond_atom_site_label_1
_geom_bond_atom_site_label_2
_ccdc_geom_bond_type
Cu2   O6    S    
C2    C4    A    
C26   H19   S    
C24   C25   S    
C6    C7    A    
C19   H4    S    
C30   N3    S    
C22   H18   S    
C5    C28   A    
C10   C30   A    
C31   C32   A    
C21   H5    S    
C9    C29   A    
C30   C31   A    
C4    C8    A    
N3    H20   S    
Cu1   O5    S    
C14   C15   A    
C2    C3    A    
C23   O5    A    
C3    C10   A    
C27   O8    A    
C21   C22   A    
C7    H14   S    
Cu1   O1    S    
C11   C13   A    
C11   C19   S    
Cu1   O7    S    
C20   C26   S    
C24   N2    A    
C23   O6    A    
C8    C29   A    
C10   C12   S    
C18   H16   S    
C21   N1    A    
Cu1   Cu2   S    
C18   H3    S    
C19   H17   S    
C26   H9    S    
C17   C18   S    
C16   C23   S    
C3    C7    A    
C25   H6    S    
C5    C6    A    
C1    O1    A    
C12   O3    A    
Cu2   N1    S    
C14   H15   S    
Cu1   N2    S    
C15   C16   A    
C12   O4    A    
C16   C17   A    
C31   H13   S    
C15   H2    S    
Cu2   O4    S    
C1    C13   S    
C27   C29   S    
Cu2   O2    S    
C2    C32   A    
C18   C19   S    
C6    H8    S    
C25   H7    S    
Cu1   O3    S    
C9    H1    S    
C1    O2    A    
C8    H11   S    
C22   N2    A    
C20   N1    A    
C25   C26   S    
C13   C14   A    
Cu2   O8    S    
C32   H12   S    
C28   H10   S    
C11   C17   A    
C20   C24   A    
C9    C28   A    
C4    C5    A    
C27   O7    A    
N3    H21   S    
