data_mof_unit_16285.cif
_audit_creation_date              2012-12-10T17:23:11-0500
_audit_creation_method            fapswitch 2.2
_symmetry_space_group_name_H-M    P1
_symmetry_Int_Tables_number       1
_space_group_crystal_system       triclinic
_cell_length_a                    15.848833
_cell_length_b                    10.774825
_cell_length_c                    9.647926
_cell_angle_alpha                 90.233622
_cell_angle_beta                  89.995676
_cell_angle_gamma                 94.379803
_cell_volume                      1642.73588794

loop_
_atom_site_label
_atom_site_type_symbol
_atom_type_description
_atom_site_fract_x
_atom_site_fract_y
_atom_site_fract_z
_atom_type_partial_charge
C1    C     C_R   0.497973 0.262734 0.499764 0.785536
C2    C     C_3   0.083073 0.503453 0.501521 0.170418
C3    C     C_3   0.976817 0.588211 0.589282 0.022534
C4    C     C_3   0.917257 0.502457 0.500773 0.131711
C5    C     C_3   0.034210 0.616263 0.462577 -0.181893
C6    C     C_3   0.973618 0.528981 0.372897 -0.162789
C7    C     C_1   0.174766 0.502522 0.500988 -0.048141
C8    C     C_1   0.825392 0.501163 0.500186 -0.048372
C9    C     C_R   0.356332 0.115172 0.622080 -0.193467
C10   C     C_R   0.288615 0.043846 0.681216 -0.181415
C11   C     C_R   0.287749 0.914377 0.681661 0.046976
C12   C     C_R   0.340022 0.499523 0.500024 0.788471
C13   C     C_R   0.355073 0.856064 0.623252 -0.214286
C14   C     C_R   0.424500 0.926769 0.563461 0.072138
C15   C     C_R   0.425344 0.057975 0.562767 0.089962
C16   C     C_R   0.493981 0.128032 0.498957 -0.139379
C17   C     C_R   0.558895 0.068484 0.432397 -0.038567
C18   C     C_R   0.556839 0.939986 0.432359 -0.208896
C19   C     C_R   0.491795 0.869703 0.499647 -0.085886
C20   C     C_R   0.622478 0.647921 0.152103 -0.118661
C21   C     C_R   0.696110 0.696797 0.092715 -0.231127
C22   C     C_R   0.704484 0.692618 0.952185 -0.212374
C23   C     C_R   0.495972 0.736417 0.499927 0.806678
C24   C     C_R   0.636364 0.648485 0.868610 -0.010170
C25   C     C_R   0.563945 0.573567 0.927102 0.152754
C26   C     C_R   0.561315 0.573154 0.077048 0.205662
C27   C     C_R   0.441539 0.430351 0.073111 -0.042949
C28   C     C_R   0.441229 0.430889 0.925785 -0.042497
C29   C     C_R   0.659899 0.498985 0.499918 0.837462
C30   C     C_3   0.966523 0.390073 0.539697 -0.165012
C31   C     C_3   0.024147 0.416444 0.411691 -0.142104
C32   C     C_1   0.250317 0.501134 0.500372 -0.174527
C33   C     C_1   0.749722 0.499989 0.499902 -0.138909
C34   C     C_3   0.027058 0.476970 0.629818 -0.183355
Cu1   Cu    Cu3+1 0.499990 0.499990 0.640660 0.952920
Cu2   Cu    Cu3+1 0.500010 0.500010 0.359340 0.951685
H1    H     H_    0.045094 0.345402 0.338265 0.138401
H2    H     H_    0.351715 0.755431 0.622774 0.144629
H3    H     H_    0.607474 0.894061 0.382490 0.147297
H4    H     H_    0.393512 0.372688 0.127398 0.135121
H5    H     H_    0.617414 0.670893 0.258323 0.197967
H6    H     H_    0.744893 0.745366 0.155495 0.163680
H7    H     H_    0.761247 0.740511 0.908624 0.176164
H8    H     H_    0.393002 0.373716 0.870823 0.132535
H9    H     H_    0.937604 0.297297 0.570891 0.150013
H10   H     H_    0.950486 0.549924 0.267572 0.149167
H11   H     H_    0.063123 0.709248 0.432036 0.144444
H12   H     H_    0.050113 0.456578 0.735361 0.144575
H13   H     H_    0.353002 0.215024 0.621256 0.139931
H14   H     H_    0.236342 0.089897 0.725285 0.139802
N1    N     N_R   0.500800 0.501210 0.147910 -0.197258
N2    N     N_R   0.500830 0.501290 0.852040 -0.196472
O1    O     O_R   0.499990 0.319640 0.618810 -0.576213
O2    O     O_R   0.500000 0.319660 0.381240 -0.568216
O3    O     O_R   0.379070 0.499980 0.618770 -0.589630
O4    O     O_R   0.379080 0.500000 0.381190 -0.572966
O5    O     O_R   0.500000 0.680340 0.618760 -0.578959
O6    O     O_R   0.500010 0.680360 0.381190 -0.604034
O7    O     O_R   0.620920 0.500000 0.618810 -0.579778
O8    O     O_R   0.620930 0.500020 0.381230 -0.585076
C35   C     C_1   0.216850 0.840677 0.739786 0.217724
N3    N     N_1   0.159921 0.781265 0.786296 -0.281382
C36   C     C_1   0.646337 0.711454 0.738030 0.352695
N4    N     N_1   0.660973 0.766273 0.636720 -0.338939
C37   C     C_1   0.949905 0.682401 0.686598 0.251148
N5    N     N_1   0.928656 0.756703 0.763325 -0.289268
C38   C     C_1   0.629943 0.137545 0.367095 0.259721
N6    N     N_1   0.686763 0.192836 0.314940 -0.276955

loop_
_geom_bond_atom_site_label_1
_geom_bond_atom_site_label_2
_ccdc_geom_bond_type
C23   O6    A    
C19   C23   S    
C18   H3    S    
C24   C25   A    
C11   C35   S    
Cu2   O4    S    
Cu1   O1    S    
C28   N2    A    
C9    C10   A    
C29   O7    A    
C30   H9    S    
C26   N1    A    
C2    C7    S    
C14   C15   A    
C29   O8    A    
C4    C8    S    
C27   H4    S    
Cu1   O5    S    
C2    C34   S    
C21   H6    S    
C20   H5    S    
C9    C15   A    
C25   N2    A    
C1    C16   S    
C12   O4    A    
C21   C22   A    
C12   C32   S    
C5    H11   S    
C30   C31   S    
C13   H2    S    
C3    C37   S    
Cu2   N1    S    
C20   C26   A    
C1    O2    A    
C5    C6    S    
C4    C6    S    
C38   N6    T    
C27   N1    A    
C17   C18   A    
C24   C36   S    
Cu2   O6    S    
C8    C33   T    
C35   N3    T    
C22   C24   A    
C17   C38   S    
C2    C5    S    
C34   H12   S    
C10   C11   A    
C30   C34   S    
Cu1   O3    S    
C15   C16   A    
C12   O3    A    
C29   C33   S    
C11   C13   A    
C9    H13   S    
C20   C21   A    
C28   H8    S    
Cu1   O7    S    
C37   N5    T    
C27   C28   A    
C23   O5    A    
C1    O1    A    
Cu1   N2    S    
C18   C19   A    
C6    C31   S    
C7    C32   T    
C6    H10   S    
C3    C34   S    
Cu2   O8    S    
C25   C26   A    
C13   C14   A    
C14   C19   A    
Cu2   O2    S    
C22   H7    S    
C4    C30   S    
C3    C4    S    
C36   N4    T    
C16   C17   A    
C31   H1    S    
C2    C31   S    
C3    C5    S    
Cu1   Cu2   S    
C10   H14   S    
