data_mof_unit_61525.cif
_audit_creation_date              2012-12-10T18:22:15-0500
_audit_creation_method            fapswitch 2.2
_symmetry_space_group_name_H-M    P1
_symmetry_Int_Tables_number       1
_space_group_crystal_system       triclinic
_cell_length_a                    23.423315
_cell_length_b                    23.423358
_cell_length_c                    51.821836
_cell_angle_alpha                 89.999944
_cell_angle_beta                  89.999951
_cell_angle_gamma                 89.999434
_cell_volume                      28432.1898654

loop_
_atom_site_label
_atom_site_type_symbol
_atom_type_description
_atom_site_fract_x
_atom_site_fract_y
_atom_site_fract_z
_atom_type_partial_charge
C1    C     C_R   1.000000 0.500000 0.179248 0.837617
C2    C     C_R   0.001231 0.552448 0.609578 0.135142
C3    C     C_1   0.687096 0.187096 0.250000 -0.001793
C4    C     C_1   0.812904 0.687096 0.750000 -0.002000
C5    C     C_1   0.187096 0.312904 0.250000 -0.002460
C6    C     C_1   0.687096 0.187096 0.750000 -0.001461
C7    C     C_1   0.312904 0.812904 0.250000 -0.001793
C8    C     C_1   0.231311 0.731311 0.250000 0.009836
C9    C     C_1   0.768689 0.268689 0.750000 0.009746
C10   C     C_1   0.268689 0.231311 0.250000 0.009302
C11   C     C_1   0.731311 0.768689 0.750000 0.009142
C12   C     C_1   0.768689 0.268689 0.250000 0.009836
C13   C     C_R   0.447539 0.999459 0.390422 0.135135
C14   C     C_1   0.231311 0.731310 0.750000 0.009747
C15   C     C_1   0.731311 0.768689 0.250000 0.009302
C16   C     C_1   0.268689 0.231311 0.750000 0.009142
C17   C     C_1   0.231311 0.268689 0.750000 0.009318
C18   C     C_1   0.768689 0.731311 0.250000 0.009145
C19   C     C_1   0.268689 0.768689 0.750000 0.009836
C20   C     C_1   0.731311 0.231311 0.250000 0.009765
C21   C     C_1   0.768689 0.731311 0.750000 0.009317
C22   C     C_1   0.231311 0.268689 0.250000 0.009145
C23   C     C_1   0.731311 0.231311 0.750000 0.009836
C24   C     C_R   0.447787 0.000981 0.609660 0.124657
C25   C     C_1   0.268689 0.768689 0.250000 0.009765
C26   C     C_R   0.449233 0.000855 0.055086 0.477523
C27   C     C_R   0.550774 0.000020 0.944962 0.486944
C28   C     C_R   0.000248 0.449227 0.055038 0.487005
C29   C     C_R   0.998842 0.550760 0.944915 0.477530
C30   C     C_R   0.550766 0.999143 0.055086 0.477527
C31   C     C_R   0.449226 0.999980 0.944962 0.486947
C32   C     C_R   0.999750 0.550771 0.055038 0.487004
C33   C     C_R   0.001157 0.449240 0.944915 0.477529
C34   C     C_R   0.949258 0.501850 0.555085 0.477531
C35   C     C_R   0.000293 0.447778 0.390341 0.124629
C36   C     C_R   0.050762 0.499023 0.444963 0.487076
C37   C     C_R   0.500121 0.949224 0.555038 0.486972
C38   C     C_R   0.499000 0.050762 0.444915 0.477515
C39   C     C_R   0.050738 0.498146 0.555085 0.477544
C40   C     C_R   0.949234 0.500972 0.444963 0.487075
C41   C     C_R   0.499876 0.050770 0.555038 0.486969
C42   C     C_R   0.501000 0.949235 0.444914 0.477540
C43   C     C_R   0.552478 0.998793 0.027613 -0.060716
C44   C     C_R   0.447523 0.000987 0.972427 -0.062929
C45   C     C_R   0.998699 0.552468 0.027573 -0.062940
C46   C     C_R   0.998765 0.447550 0.609578 0.135138
C47   C     C_R   0.001530 0.447530 0.972387 -0.060717
C48   C     C_R   0.447521 0.001204 0.027613 -0.060715
C49   C     C_R   0.552477 0.999012 0.972427 -0.062928
C50   C     C_R   0.001299 0.447531 0.027572 -0.062940
C51   C     C_R   0.998468 0.552469 0.972387 -0.060716
C52   C     C_R   0.052439 0.497675 0.527613 -0.060718
C53   C     C_R   0.947556 0.502097 0.472428 -0.062954
C54   C     C_R   0.498837 0.052470 0.527573 -0.062933
C55   C     C_R   0.501381 0.947524 0.472387 -0.060719
C56   C     C_R   0.947557 0.502317 0.527613 -0.060715
C57   C     C_R   0.552460 0.000542 0.390422 0.135136
C58   C     C_R   0.052441 0.497895 0.472428 -0.062953
C59   C     C_R   0.501162 0.947525 0.527572 -0.062933
C60   C     C_R   0.498619 0.052472 0.472387 -0.060717
C61   C     C_R   0.500000 0.999999 0.013804 -0.031689
C62   C     C_R   0.500000 0.999999 0.986238 -0.036592
C63   C     C_R   0.999999 0.499999 0.013762 -0.036618
C64   C     C_R   0.999999 0.500000 0.986196 -0.031684
C65   C     C_R   0.999998 0.499996 0.513804 -0.031677
C66   C     C_R   0.999998 0.499996 0.486239 -0.036648
C67   C     C_R   0.499999 0.999998 0.513762 -0.036606
C68   C     C_R   0.552212 0.999013 0.609659 0.124653
C69   C     C_R   0.500000 0.999998 0.486196 -0.031686
C70   C     C_R   0.604707 0.997139 0.013625 -0.072702
C71   C     C_R   0.395302 0.002879 0.986404 -0.069825
C72   C     C_R   0.996458 0.604675 0.013597 -0.069790
C73   C     C_R   0.003526 0.395313 0.986376 -0.072693
C74   C     C_R   0.395293 0.002859 0.013625 -0.072701
C75   C     C_R   0.604697 0.997119 0.986404 -0.069823
C76   C     C_R   0.003539 0.395323 0.013596 -0.069790
C77   C     C_R   0.996472 0.604686 0.986376 -0.072692
C78   C     C_R   0.104616 0.494814 0.513624 -0.072667
C79   C     C_R   0.498922 0.052210 0.890340 0.124653
C80   C     C_R   0.895391 0.505190 0.486403 -0.069730
C81   C     C_R   0.496739 0.104683 0.513597 -0.069802
C82   C     C_R   0.503239 0.895302 0.486375 -0.072700
C83   C     C_R   0.895380 0.505173 0.513624 -0.072667
C84   C     C_R   0.104604 0.494797 0.486403 -0.069727
C85   C     C_R   0.503260 0.895312 0.513596 -0.069801
C86   C     C_R   0.496760 0.104694 0.486376 -0.072698
C87   C     C_1   0.659628 0.995129 0.026726 0.280189
C88   C     C_1   0.340438 0.005664 0.973282 0.278311
C89   C     C_1   0.993285 0.659517 0.026720 0.278276
C90   C     C_R   0.500444 0.052460 0.109578 0.135135
C91   C     C_1   0.005913 0.340408 0.973274 0.280184
C92   C     C_1   0.340371 0.004867 0.026726 0.280188
C93   C     C_1   0.659562 0.994332 0.973282 0.278309
C94   C     C_1   0.006710 0.340481 0.026720 0.278278
C95   C     C_1   0.994084 0.659592 0.973275 0.280184
C96   C     C_1   0.159470 0.491459 0.526726 0.280160
C97   C     C_1   0.840614 0.509307 0.473278 0.278216
C98   C     C_1   0.493711 0.159534 0.526720 0.278282
C99   C     C_1   0.505486 0.840391 0.473274 0.280191
C100  C     C_1   0.840525 0.508518 0.526726 0.280161
C101  C     C_R   0.947541 0.499296 0.890422 0.135134
C102  C     C_1   0.159381 0.490672 0.473278 0.278213
C103  C     C_1   0.506289 0.840461 0.526719 0.278284
C104  C     C_1   0.494515 0.159606 0.473274 0.280191
C105  C     C_3   0.999727 0.609268 0.404038 -0.413141
C106  C     C_3   0.940850 0.637634 0.402417 -0.334949
C107  C     C_3   0.940067 0.694362 0.416880 -0.861078
C108  C     C_3   0.002622 0.607908 0.594216 -0.400197
C109  C     C_3   0.004213 0.663200 0.610162 -0.371997
C110  C     C_3   0.005643 0.715639 0.592685 -0.846184
C111  C     C_3   0.392065 0.998841 0.405784 -0.400193
C112  C     C_R   1.000000 0.500000 0.820761 0.837023
C113  C     C_R   0.947786 0.500888 0.109660 0.124637
C114  C     C_3   0.336755 0.998140 0.389838 -0.371973
C115  C     C_3   0.284300 0.997521 0.407315 -0.846255
C116  C     C_3   0.390745 0.001772 0.595963 -0.413194
C117  C     C_3   0.363266 0.061072 0.597556 -0.335111
C118  C     C_3   0.306544 0.062669 0.583102 -0.860875
C119  C     C_3   0.000269 0.390730 0.404037 -0.413146
C120  C     C_3   0.059145 0.362363 0.402418 -0.334949
C121  C     C_3   0.059925 0.305635 0.416881 -0.861082
C122  C     C_3   0.997372 0.392090 0.594217 -0.400201
C123  C     C_3   0.995765 0.336799 0.610163 -0.371994
C124  C     C_R   0.501078 0.947790 0.890340 0.124649
C125  C     C_3   0.994325 0.284360 0.592687 -0.846188
C126  C     C_3   0.607934 0.001161 0.405784 -0.400195
C127  C     C_3   0.663244 0.001900 0.389838 -0.371974
C128  C     C_3   0.715698 0.002538 0.407315 -0.846254
C129  C     C_3   0.609253 0.998217 0.595962 -0.413193
C130  C     C_3   0.636730 0.938917 0.597557 -0.335115
C131  C     C_3   0.693443 0.937310 0.583097 -0.860864
C132  C     C_3   0.498018 0.109250 0.904037 -0.413148
C133  C     C_3   0.438662 0.136607 0.902446 -0.335162
C134  C     C_3   0.436954 0.193328 0.916899 -0.860912
C135  C     C_R   0.499554 0.947538 0.109578 0.135134
C136  C     C_3   0.500953 0.107934 0.094216 -0.400196
C137  C     C_3   0.501550 0.163245 0.110161 -0.371985
C138  C     C_3   0.502066 0.215700 0.092684 -0.846234
C139  C     C_3   0.892069 0.498499 0.905784 -0.400197
C140  C     C_3   0.836763 0.497569 0.889838 -0.371989
C141  C     C_3   0.784311 0.496752 0.907315 -0.846208
C142  C     C_3   0.890744 0.501571 0.095963 -0.413136
C143  C     C_3   0.863139 0.560810 0.097567 -0.335114
C144  C     C_3   0.806429 0.562305 0.083101 -0.860974
C145  C     C_3   0.501985 0.890749 0.904037 -0.413155
C146  C     C_R   0.052458 0.500704 0.890422 0.135137
C147  C     C_3   0.561343 0.863397 0.902448 -0.335157
C148  C     C_3   0.563055 0.806677 0.916900 -0.860912
C149  C     C_3   0.499045 0.892064 0.094216 -0.400196
C150  C     C_3   0.498441 0.836753 0.110162 -0.371984
C151  C     C_3   0.497922 0.784297 0.092685 -0.846236
C152  C     C_3   0.107929 0.501502 0.905784 -0.400197
C153  C     C_3   0.163236 0.502431 0.889838 -0.371990
C154  C     C_3   0.215688 0.503250 0.907315 -0.846210
C155  C     C_3   0.109255 0.498425 0.095963 -0.413134
C156  C     C_3   0.136859 0.439186 0.097568 -0.335115
C157  C     C_R   0.052213 0.499109 0.109659 0.124636
C158  C     C_3   0.193565 0.437686 0.083100 -0.860967
C159  C     C_R   0.999718 0.551563 0.363192 -0.245145
C160  C     C_R   0.001158 0.551594 0.636823 -0.219657
C161  C     C_R   0.448394 0.999491 0.363176 -0.219654
C162  C     C_R   0.448444 0.000940 0.636808 -0.245162
C163  C     C_R   0.000281 0.448436 0.363192 -0.245144
C164  C     C_R   0.500000 1.000000 0.179239 0.837027
C165  C     C_R   0.998840 0.448405 0.636824 -0.219655
C166  C     C_R   0.551605 0.000510 0.363176 -0.219655
C167  C     C_R   0.551555 0.999057 0.636808 -0.245160
C168  C     C_R   0.498968 0.051553 0.863192 -0.245162
C169  C     C_R   0.500418 0.051605 0.136824 -0.219660
C170  C     C_R   0.948396 0.499338 0.863177 -0.219658
C171  C     C_R   0.948443 0.500850 0.136808 -0.245151
C172  C     C_R   0.501032 0.948446 0.863192 -0.245161
C173  C     C_R   0.499580 0.948394 0.136824 -0.219659
C174  C     C_R   0.051603 0.500663 0.863177 -0.219659
C175  C     C_R   0.500000 1.000000 0.820752 0.837613
C176  C     C_R   0.051556 0.499148 0.136808 -0.245150
C177  C     C_R   1.000000 0.500000 0.349430 -0.076539
C178  C     C_R   0.999999 0.500000 0.650532 -0.093959
C179  C     C_R   0.500000 0.000000 0.349468 -0.093970
C180  C     C_R   0.500000 0.999999 0.650571 -0.076529
C181  C     C_R   0.500000 1.000000 0.849429 -0.076524
C182  C     C_R   0.500000 1.000000 0.150532 -0.093969
C183  C     C_R   1.000000 0.500000 0.849468 -0.093970
C184  C     C_R   1.000000 0.500000 0.150571 -0.076532
C185  C     C_R   0.999999 0.499999 0.404139 0.285890
C186  C     C_R   0.500000 0.000000 0.679248 0.837615
C187  C     C_R   0.999998 0.499999 0.595953 0.249420
C188  C     C_R   0.500000 0.999999 0.404047 0.249444
C189  C     C_R   0.499999 0.999997 0.595861 0.285946
C190  C     C_R   0.500000 1.000000 0.904139 0.285962
C191  C     C_R   0.499999 0.999999 0.095953 0.249451
C192  C     C_R   0.999999 0.500000 0.904047 0.249446
C193  C     C_R   0.999999 0.499999 0.095861 0.285939
C194  C     C_R   0.895267 0.604733 0.250000 0.817839
C195  C     C_R   0.104733 0.395267 0.750000 0.818678
C196  C     C_R   0.395267 0.895267 0.250000 0.818613
C197  C     C_R   0.500000 0.000000 0.320761 0.837027
C198  C     C_R   0.604733 0.104733 0.750000 0.818465
C199  C     C_R   0.104733 0.395267 0.250000 0.817840
C200  C     C_R   0.895267 0.604733 0.750000 0.818678
C201  C     C_R   0.604733 0.104733 0.250000 0.818612
C202  C     C_R   0.395267 0.895267 0.750000 0.818465
C203  C     C_R   0.895267 0.395267 0.750000 0.818575
C204  C     C_R   0.104733 0.604733 0.250000 0.818448
C205  C     C_R   0.395267 0.104733 0.750000 0.817804
C206  C     C_R   0.604733 0.895267 0.250000 0.818646
C207  C     C_R   0.104733 0.604733 0.750000 0.818575
C208  C     C_R   1.000000 0.500000 0.679239 0.837013
C209  C     C_R   0.895267 0.395267 0.250000 0.818448
C210  C     C_R   0.604733 0.895267 0.750000 0.817804
C211  C     C_R   0.395267 0.104733 0.250000 0.818646
C212  C     C_1   0.149717 0.649717 0.250000 -0.170364
C213  C     C_1   0.850283 0.350283 0.750000 -0.171148
C214  C     C_1   0.350283 0.149717 0.250000 -0.171159
C215  C     C_1   0.649717 0.850283 0.750000 -0.171579
C216  C     C_1   0.850283 0.350283 0.250000 -0.170364
C217  C     C_1   0.149717 0.649717 0.750000 -0.171148
C218  C     C_1   0.649717 0.850283 0.250000 -0.171158
C219  C     C_R   1.000000 0.500000 0.320752 0.837640
C220  C     C_1   0.350283 0.149717 0.750000 -0.171579
C221  C     C_1   0.149717 0.350283 0.750000 -0.171104
C222  C     C_1   0.850283 0.649717 0.250000 -0.171545
C223  C     C_1   0.350283 0.850283 0.750000 -0.170329
C224  C     C_1   0.649717 0.149717 0.250000 -0.171093
C225  C     C_1   0.850283 0.649717 0.750000 -0.171105
C226  C     C_1   0.149717 0.350283 0.250000 -0.171545
C227  C     C_1   0.649717 0.149717 0.750000 -0.170329
C228  C     C_1   0.350283 0.850283 0.250000 -0.171092
C229  C     C_1   0.187096 0.687096 0.250000 -0.001479
C230  C     C_R   0.999705 0.552220 0.390341 0.124632
C231  C     C_1   0.812904 0.312904 0.750000 -0.001833
C232  C     C_1   0.312904 0.187096 0.250000 -0.002037
C233  C     C_1   0.687096 0.812904 0.750000 -0.002482
C234  C     C_1   0.812903 0.312904 0.250000 -0.001480
C235  C     C_1   0.187096 0.687096 0.750000 -0.001833
C236  C     C_1   0.687096 0.812904 0.250000 -0.002036
C237  C     C_1   0.312904 0.187096 0.750000 -0.002482
C238  C     C_1   0.187096 0.312904 0.750000 -0.002000
C239  C     C_1   0.812904 0.687096 0.250000 -0.002460
C240  C     C_1   0.312904 0.812904 0.750000 -0.001461
H1    H     H_    0.999679 0.591688 0.352779 0.165655
H2    H     H_    0.500744 0.090931 0.147708 0.158631
H3    H     H_    0.862187 0.469295 0.104970 0.206054
H4    H     H_    0.553117 0.813345 0.937646 0.264290
H5    H     H_    0.531706 0.776339 0.908493 0.262892
H6    H     H_    0.606390 0.787784 0.915313 0.256479
H7    H     H_    0.572973 0.855743 0.881941 0.223266
H8    H     H_    0.593562 0.892602 0.911025 0.265269
H9    H     H_    0.489675 0.895165 0.924621 0.212002
H10   H     H_    0.469842 0.862056 0.895021 0.206070
H11   H     H_    0.459258 0.784433 0.080270 0.264458
H12   H     H_    0.536612 0.783634 0.080290 0.263705
H13   H     H_    0.909073 0.498823 0.852292 0.158629
H14   H     H_    0.497502 0.745022 0.104683 0.252405
H15   H     H_    0.537128 0.834759 0.122559 0.231227
H16   H     H_    0.459685 0.835572 0.122537 0.231583
H17   H     H_    0.460712 0.892162 0.081566 0.221013
H18   H     H_    0.537444 0.891382 0.081613 0.220844
H19   H     H_    0.215327 0.541908 0.919733 0.264476
H20   H     H_    0.216577 0.464561 0.919708 0.263686
H21   H     H_    0.254961 0.503904 0.895318 0.252407
H22   H     H_    0.165456 0.463760 0.877439 0.231223
H23   H     H_    0.164192 0.541196 0.877466 0.231588
H24   H     H_    0.908321 0.501352 0.147221 0.165659
H25   H     H_    0.107619 0.539822 0.918442 0.220993
H26   H     H_    0.108824 0.463095 0.918380 0.220864
H27   H     H_    0.186823 0.447543 0.062351 0.264295
H28   H     H_    0.223777 0.469187 0.091482 0.262911
H29   H     H_    0.212650 0.394438 0.084704 0.256451
H30   H     H_    0.144591 0.427630 0.118077 0.223233
H31   H     H_    0.107779 0.406826 0.089012 0.265325
H32   H     H_    0.104786 0.510687 0.075374 0.211992
H33   H     H_    0.137812 0.530701 0.104969 0.206051
H34   H     H_    0.501680 0.908325 0.852779 0.165662
H35   H     H_    0.499255 0.909068 0.147709 0.158631
H36   H     H_    0.090926 0.501177 0.852292 0.158629
H37   H     H_    0.091679 0.498647 0.147221 0.165658
H38   H     H_    0.949810 0.687501 0.437632 0.264296
H39   H     H_    0.971969 0.724160 0.408503 0.262923
H40   H     H_    0.897072 0.714005 0.415264 0.256420
H41   H     H_    0.002057 0.590911 0.647709 0.158616
H42   H     H_    0.929418 0.645508 0.381904 0.223229
H43   H     H_    0.908107 0.608979 0.410968 0.265370
H44   H     H_    0.011905 0.604644 0.424630 0.211955
H45   H     H_    0.032379 0.637408 0.395040 0.206027
H46   H     H_    0.044292 0.714826 0.580265 0.264488
H47   H     H_    0.966964 0.716981 0.580294 0.263676
H48   H     H_    0.006759 0.754901 0.604683 0.252409
H49   H     H_    0.965576 0.665876 0.622564 0.231237
H50   H     H_    0.042992 0.663697 0.622531 0.231574
H51   H     H_    0.040912 0.607164 0.581543 0.220896
H52   H     H_    0.409069 0.999094 0.352291 0.158628
H53   H     H_    0.964204 0.609239 0.581635 0.220965
H54   H     H_    0.284502 0.958852 0.419726 0.264436
H55   H     H_    0.283569 0.036204 0.419714 0.263728
H56   H     H_    0.245025 0.997040 0.395317 0.252397
H57   H     H_    0.334690 0.036827 0.377443 0.231254
H58   H     H_    0.335644 0.959386 0.377462 0.231552
H59   H     H_    0.392236 0.960504 0.418432 0.220974
H60   H     H_    0.391310 0.037235 0.418390 0.220883
H61   H     H_    0.313238 0.052755 0.562356 0.264284
H62   H     H_    0.276272 0.031251 0.591505 0.262879
H63   H     H_    0.408322 0.001515 0.647221 0.165660
H64   H     H_    0.287558 0.105962 0.584693 0.256513
H65   H     H_    0.355583 0.072676 0.618064 0.223269
H66   H     H_    0.392404 0.093356 0.588983 0.265302
H67   H     H_    0.395186 0.989479 0.575378 0.211994
H68   H     H_    0.362120 0.969566 0.604977 0.206049
H69   H     H_    0.050179 0.312495 0.437632 0.264295
H70   H     H_    0.028024 0.275837 0.408503 0.262923
H71   H     H_    0.102920 0.285991 0.415266 0.256420
H72   H     H_    0.070580 0.354490 0.381906 0.223231
H73   H     H_    0.091887 0.391017 0.410970 0.265367
H74   H     H_    0.000320 0.408311 0.352779 0.165656
H75   H     H_    0.988088 0.395353 0.424629 0.211954
H76   H     H_    0.967617 0.362591 0.395039 0.206027
H77   H     H_    0.955678 0.285182 0.580266 0.264489
H78   H     H_    0.033005 0.283007 0.580296 0.263676
H79   H     H_    0.993197 0.245098 0.604685 0.252409
H80   H     H_    0.034400 0.334113 0.622567 0.231231
H81   H     H_    0.956984 0.336312 0.622531 0.231579
H82   H     H_    0.959087 0.392839 0.581540 0.220898
H83   H     H_    0.035795 0.390752 0.581639 0.220958
H84   H     H_    0.715472 0.041198 0.419733 0.264437
H85   H     H_    0.997942 0.409088 0.647709 0.158617
H86   H     H_    0.716452 0.963846 0.419709 0.263725
H87   H     H_    0.754973 0.003053 0.395318 0.252398
H88   H     H_    0.665330 0.963221 0.377439 0.231241
H89   H     H_    0.664334 0.040662 0.377466 0.231565
H90   H     H_    0.607751 0.039485 0.418440 0.220980
H91   H     H_    0.608701 0.962755 0.418382 0.220877
H92   H     H_    0.686738 0.947211 0.562350 0.264283
H93   H     H_    0.723721 0.968732 0.591493 0.262878
H94   H     H_    0.712429 0.894017 0.584691 0.256512
H95   H     H_    0.644423 0.927321 0.618065 0.223262
H96   H     H_    0.590930 0.000906 0.352291 0.158628
H97   H     H_    0.607586 0.906630 0.588990 0.265308
H98   H     H_    0.604812 0.010507 0.575376 0.211996
H99   H     H_    0.637881 0.030424 0.604974 0.206043
H100  H     H_    0.446890 0.186659 0.937644 0.264292
H101  H     H_    0.468305 0.223664 0.908492 0.262893
H102  H     H_    0.393620 0.212224 0.915311 0.256479
H103  H     H_    0.427037 0.144263 0.881939 0.223265
H104  H     H_    0.406440 0.107405 0.911023 0.265266
H105  H     H_    0.510325 0.104834 0.924622 0.212002
H106  H     H_    0.530165 0.137941 0.895022 0.206072
H107  H     H_    0.591677 0.998482 0.647221 0.165659
H108  H     H_    0.540730 0.215568 0.080269 0.264458
H109  H     H_    0.463377 0.216359 0.080288 0.263705
H110  H     H_    0.502480 0.254976 0.104682 0.252406
H111  H     H_    0.462862 0.165236 0.122558 0.231230
H112  H     H_    0.540304 0.164431 0.122537 0.231581
H113  H     H_    0.539289 0.107838 0.081567 0.221012
H114  H     H_    0.462556 0.108614 0.081611 0.220845
H115  H     H_    0.784671 0.458097 0.919735 0.264476
H116  H     H_    0.783421 0.535444 0.919706 0.263685
H117  H     H_    0.745038 0.496096 0.895317 0.252406
H118  H     H_    0.498321 0.091674 0.852779 0.165662
H119  H     H_    0.834544 0.536239 0.877438 0.231222
H120  H     H_    0.835807 0.458802 0.877467 0.231588
H121  H     H_    0.892380 0.460180 0.918442 0.220991
H122  H     H_    0.891175 0.536907 0.918379 0.220866
H123  H     H_    0.813167 0.552441 0.062354 0.264296
H124  H     H_    0.776219 0.530805 0.091487 0.262911
H125  H     H_    0.787345 0.605553 0.084704 0.256453
H126  H     H_    0.855411 0.572370 0.118076 0.223236
H127  H     H_    0.892216 0.593168 0.089008 0.265323
H128  H     H_    0.895212 0.489306 0.075375 0.211991
N1    N     N_R   0.499999 0.999999 0.067947 -0.353646
N2    N     N_1   0.296623 0.007917 0.962993 -0.159633
N3    N     N_1   0.990722 0.703314 0.037010 -0.159675
N4    N     N_1   0.007827 0.296553 0.963006 -0.156763
N5    N     N_1   0.296504 0.006477 0.036994 -0.156741
N6    N     N_1   0.703376 0.992078 0.962993 -0.159633
N7    N     N_1   0.009272 0.296685 0.037009 -0.159676
N8    N     N_1   0.992169 0.703447 0.963007 -0.156763
N9    N     N_1   0.203284 0.488769 0.536994 -0.156795
N10   N     N_1   0.796870 0.512626 0.462987 -0.159734
N11   N     N_1   0.491263 0.203336 0.537010 -0.159646
N12   N     N_R   0.500000 1.000000 0.932107 -0.352382
N13   N     N_1   0.507287 0.796532 0.463005 -0.156724
N14   N     N_1   0.796711 0.511200 0.536994 -0.156794
N15   N     N_1   0.203124 0.487347 0.462987 -0.159735
N16   N     N_1   0.508737 0.796659 0.537009 -0.159647
N17   N     N_1   0.492714 0.203465 0.463006 -0.156724
N18   N     N_R   0.999999 0.499999 0.067893 -0.352413
N19   N     N_R   0.999999 0.500000 0.932054 -0.353646
N20   N     N_R   0.999998 0.499998 0.567946 -0.353651
N21   N     N_R   0.999998 0.499998 0.432108 -0.352463
N22   N     N_R   0.499999 0.999997 0.567893 -0.352394
N23   N     N_R   0.499999 0.999999 0.432053 -0.353648
N24   N     N_1   0.703495 0.993518 0.036994 -0.156742
O1    O     O_3   0.000000 0.500000 0.250000 -0.426709
O2    O     O_R   0.044090 0.500000 0.807650 -0.641924
O3    O     O_R   0.500000 0.955910 0.192350 -0.641928
O4    O     O_R   0.500000 0.044090 0.807650 -0.641557
O5    O     O_R   0.544090 0.000000 0.692350 -0.641560
O6    O     O_R   0.455910 0.000000 0.307650 -0.641926
O7    O     O_R   0.000000 0.544090 0.692350 -0.641920
O8    O     O_R   1.000000 0.455910 0.307650 -0.641574
O9    O     O_R   0.455910 0.000000 0.692350 -0.641560
O10   O     O_R   0.544090 0.000000 0.307650 -0.641925
O11   O     O_R   0.000000 0.455910 0.692350 -0.641920
O12   O     O_3   1.000000 0.500000 0.750000 -0.426109
O13   O     O_R   0.000000 0.544090 0.307650 -0.641573
O14   O     O_R   0.893990 0.562090 0.235170 -0.625103
O15   O     O_R   0.106010 0.437910 0.764830 -0.625072
O16   O     O_R   0.437910 0.893990 0.235170 -0.625092
O17   O     O_R   0.562090 0.106010 0.764830 -0.624638
O18   O     O_R   0.106010 0.437910 0.235170 -0.625103
O19   O     O_R   0.893990 0.562090 0.764830 -0.625072
O20   O     O_R   0.562090 0.106010 0.235170 -0.625092
O21   O     O_R   0.437910 0.893990 0.764830 -0.624638
O22   O     O_R   0.893990 0.437910 0.764830 -0.625100
O23   O     O_3   0.500000 0.000000 0.250000 -0.426108
O24   O     O_R   0.106010 0.562090 0.235170 -0.624638
O25   O     O_R   0.437910 0.106010 0.764830 -0.625103
O26   O     O_R   0.562090 0.893990 0.235170 -0.625076
O27   O     O_R   0.106010 0.562090 0.764830 -0.625099
O28   O     O_R   0.893990 0.437910 0.235170 -0.624638
O29   O     O_R   0.562090 0.893990 0.764830 -0.625103
O30   O     O_R   0.437910 0.106010 0.235170 -0.625076
O31   O     O_R   0.393990 0.062090 0.735170 -0.625092
O32   O     O_R   0.606010 0.937910 0.264830 -0.625062
O33   O     O_R   0.937910 0.393990 0.735170 -0.625160
O34   O     O_3   0.500000 0.000000 0.750000 -0.426715
O35   O     O_R   0.062090 0.606010 0.264830 -0.624702
O36   O     O_R   0.606010 0.937910 0.735170 -0.625092
O37   O     O_R   0.393990 0.062090 0.264830 -0.625063
O38   O     O_R   0.062090 0.606010 0.735170 -0.625161
O39   O     O_R   0.937910 0.393990 0.264830 -0.624703
O40   O     O_R   0.393990 0.937910 0.264830 -0.625111
O41   O     O_R   0.606010 0.062090 0.735170 -0.624655
O42   O     O_R   0.937910 0.606010 0.264830 -0.625055
O43   O     O_R   0.062090 0.393990 0.735170 -0.625008
O44   O     O_R   0.606010 0.062090 0.264830 -0.625111
O45   O     O_R   0.044090 0.500000 0.192350 -0.641563
O46   O     O_R   0.393990 0.937910 0.735170 -0.624655
O47   O     O_R   0.062090 0.393990 0.264830 -0.625055
O48   O     O_R   0.937910 0.606010 0.735170 -0.625008
O49   O     O_2   0.400784 0.001326 0.069129 -0.559829
O50   O     O_2   0.599223 0.001433 0.930935 -0.568026
O51   O     O_2   0.999055 0.400771 0.069063 -0.568020
O52   O     O_2   0.998098 0.599206 0.930872 -0.559829
O53   O     O_2   0.599215 0.998672 0.069129 -0.559829
O54   O     O_2   0.400777 0.998569 0.930935 -0.568021
O55   O     O_2   0.000943 0.599227 0.069063 -0.568019
O56   O     O_R   0.955910 0.500000 0.807650 -0.641924
O57   O     O_2   0.001901 0.400794 0.930871 -0.559828
O58   O     O_2   0.900822 0.503180 0.569127 -0.559816
O59   O     O_2   0.099233 0.499581 0.430940 -0.567993
O60   O     O_2   0.498813 0.900771 0.569063 -0.568029
O61   O     O_2   0.498419 0.099211 0.430872 -0.559819
O62   O     O_2   0.099174 0.496819 0.569127 -0.559817
O63   O     O_2   0.900764 0.500417 0.430939 -0.567995
O64   O     O_2   0.501184 0.099224 0.569064 -0.568027
O65   O     O_2   0.501581 0.900786 0.430871 -0.559823
O66   O     O_R   0.500000 0.044090 0.192350 -0.641927
O67   O     O_R   0.500000 0.955910 0.807650 -0.641557
O68   O     O_R   0.955910 0.500000 0.192350 -0.641563
Zn1   Zn    Zn3+2 0.000000 0.563030 0.272130 0.987417
Zn2   Zn    Zn3+2 0.500000 0.936970 0.227870 0.987055
Zn3   Zn    Zn3+2 0.936970 0.500000 0.772130 0.987053
Zn4   Zn    Zn3+2 0.063030 0.500000 0.227870 0.987432
Zn5   Zn    Zn3+2 0.500000 0.936970 0.772130 0.987430
Zn6   Zn    Zn3+2 0.500000 0.063030 0.227870 0.987055
Zn7   Zn    Zn3+2 0.063030 0.500000 0.772130 0.987053
Zn8   Zn    Zn3+2 0.936970 0.500000 0.227870 0.987432
Zn9   Zn    Zn3+2 1.000000 0.436970 0.727870 0.987054
Zn10  Zn    Zn3+2 0.436970 0.000000 0.272130 0.987054
Zn11  Zn    Zn3+2 0.563030 0.000000 0.727870 0.987425
Zn12  Zn    Zn3+2 1.000000 0.436970 0.272130 0.987417
Zn13  Zn    Zn3+2 1.000000 0.563030 0.727870 0.987055
Zn14  Zn    Zn3+2 0.563030 0.000000 0.272130 0.987054
Zn15  Zn    Zn3+2 0.436970 0.000000 0.727870 0.987426
Zn16  Zn    Zn3+2 0.500000 0.063030 0.772130 0.987430

loop_
_geom_bond_atom_site_label_1
_geom_bond_atom_site_label_2
_ccdc_geom_bond_type
C175  O4    A    
C205  O31   A    
C196  C228  S    
C205  C220  S    
C34   C56   A    
C126  C127  S    
C126  H91   S    
C32   C45   A    
C215  C233  T    
C169  H2    S    
C146  C192  A    
C114  C115  S    
C200  O19   A    
O1    Zn1   S    
C197  O10   A    
C43   C61   A    
C3    C224  T    
O23   Zn6   S    
O15   Zn7   S    
O23   Zn2   S    
C157  C193  A    
C135  C173  A    
C189  N22   S    
C205  O25   A    
C108  H51   S    
C187  N20   S    
C106  C107  S    
C144  H124  S    
C143  C144  S    
C191  N1    S    
O42   Zn1   S    
C108  C109  S    
C118  H62   S    
C74   C92   S    
C130  H97   S    
C76   C94   S    
C173  H35   S    
C174  H36   S    
C78   C96   S    
C121  H70   S    
C178  C208  S    
C196  O16   A    
C95   N8    T    
C81   C86   A    
C85   C103  S    
C194  C222  S    
C208  O7    A    
C190  N12   S    
C167  C180  A    
C26   N1    A    
C115  H54   S    
C127  H89   S    
C29   N19   A    
C134  H101  S    
O66   Zn6   S    
C163  H74   S    
C14   C19   T    
C203  O22   A    
O34   Zn16  S    
C109  H50   S    
C207  C217  S    
O20   Zn6   S    
C48   C74   A    
O45   Zn4   S    
C140  C141  S    
O12   Zn7   S    
O13   Zn1   S    
C47   C64   A    
C195  C221  S    
C60   C86   A    
C37   N22   A    
C57   C166  A    
C152  H26   S    
C35   C163  A    
C128  H84   S    
C207  O27   A    
C125  H78   S    
C202  O46   A    
C50   C76   A    
C42   C55   A    
C137  H111  S    
C110  H46   S    
C108  H53   S    
C6    C227  T    
C204  C212  S    
C10   C232  S    
C101  C170  A    
C195  O43   A    
C4    C225  T    
O6    Zn10  S    
C167  H107  S    
C144  H125  S    
C83   C100  S    
C33   C47   A    
C30   C43   A    
C154  H20   S    
C75   C93   S    
C56   C83   A    
C116  H67   S    
O47   Zn12  S    
C176  C184  A    
C123  H81   S    
C136  H114  S    
C49   C62   A    
C129  H98   S    
C202  C223  S    
C203  C213  S    
C9    C23   T    
C51   C64   A    
C141  H115  S    
C139  C140  S    
C151  H12   S    
O34   Zn11  S    
C82   C85   A    
C105  C230  S    
C33   N19   A    
C156  C158  S    
O37   Zn10  S    
C34   N20   A    
C154  H21   S    
C127  H88   S    
O29   Zn5   S    
O34   Zn5   S    
C68   C189  A    
C146  C174  A    
C2    C108  S    
C148  H5    S    
C77   C95   S    
C194  O14   A    
C169  C182  A    
C71   C88   S    
C117  H66   S    
C111  H60   S    
C155  C156  S    
C119  H76   S    
C46   C122  S    
O32   Zn14  S    
C109  C110  S    
C201  O44   A    
C54   C81   A    
C52   C65   A    
C27   O50   S    
C11   C233  S    
C15   C18   T    
C92   N5    T    
C46   C165  A    
C80   C97   S    
C112  O56   A    
C84   C102  S    
C94   N7    T    
O44   Zn14  S    
C147  C148  S    
C86   C104  S    
O12   Zn9   S    
C217  C235  T    
C155  H32   S    
C101  C139  S    
C156  H31   S    
C38   N23   A    
C113  C142  S    
C185  C230  A    
C158  H29   S    
C164  O66   A    
C145  H9    S    
C210  O36   A    
O7    Zn13  S    
C93   N6    T    
C195  O15   A    
C210  C215  S    
C133  H103  S    
C199  O47   A    
C222  C239  T    
C200  O48   A    
C2    C187  A    
O17   Zn16  S    
C59   C67   A    
C150  H16   S    
C172  C181  A    
C15   C236  S    
C114  H57   S    
C49   C75   A    
C132  H105  S    
C161  C179  A    
O36   Zn11  S    
C162  C180  A    
C213  C231  T    
C122  H83   S    
C175  C181  S    
C36   O59   S    
C175  O67   A    
O23   Zn10  S    
C142  H128  S    
C50   C63   A    
C199  O18   A    
C188  N23   S    
C177  C219  S    
C70   C87   S    
C14   C235  S    
C206  O26   A    
C88   N2    T    
C115  H55   S    
C53   C80   A    
O27   Zn7   S    
C204  O24   A    
C42   O65   S    
C130  H95   S    
C11   C21   T    
C105  H45   S    
C106  H42   S    
O14   Zn8   S    
C59   C85   A    
C53   C66   A    
C8    C229  S    
C130  C131  S    
C36   N21   A    
O68   Zn8   S    
C32   N18   A    
C128  H87   S    
C138  H108  S    
C99   N13   T    
O38   Zn13  S    
C55   C69   A    
C149  H17   S    
C37   C59   A    
C180  C186  S    
C38   C60   A    
C201  O20   A    
C147  H8    S    
C24   C116  S    
C132  H106  S    
C26   O49   S    
C39   N20   A    
C120  C121  S    
C140  H119  S    
C129  C130  S    
C40   N21   A    
C158  H27   S    
C138  H109  S    
C136  C137  S    
C172  H34   S    
O33   Zn9   S    
C102  N15   T    
O39   Zn12  S    
C34   O58   S    
C139  H122  S    
C196  O40   A    
C13   C111  S    
C117  C118  S    
C107  H40   S    
C212  C229  T    
C194  O42   A    
C150  H15   S    
C60   C69   A    
C90   C169  A    
C41   N22   A    
C61   C62   A    
C153  H23   S    
C199  C226  S    
C157  C176  A    
C63   C64   A    
O10   Zn14  S    
C37   O60   S    
C211  C214  S    
C152  C153  S    
C2    C160  A    
C28   O51   S    
C70   C75   A    
C148  H4    S    
C1    O45   A    
C150  C151  S    
C107  H38   S    
C27   C49   A    
C203  O33   A    
C97   N10   T    
C155  C157  S    
C216  C234  T    
C82   C99   S    
O41   Zn11  S    
C134  H102  S    
C214  C232  T    
O5    Zn11  S    
C124  C190  A    
C38   O61   S    
C109  H49   S    
C18   C239  S    
O22   Zn3   S    
O16   Zn2   S    
O19   Zn3   S    
C80   C83   A    
C29   C51   A    
C123  C125  S    
C156  H30   S    
C81   C98   S    
C125  H77   S    
C197  O6    A    
C131  H94   S    
O4    Zn16  S    
C110  H47   S    
C16   C17   T    
C163  C177  A    
C46   C187  A    
O12   Zn13  S    
C170  H13   S    
C26   C48   A    
C17   C238  S    
C116  H68   S    
C126  H90   S    
C8    C25   T    
C120  H72   S    
C52   C78   A    
O31   Zn15  S    
C145  C147  S    
C112  C183  S    
C28   N18   A    
C211  O37   A    
C209  O28   A    
O1    Zn8   S    
C160  H41   S    
C171  C184  A    
C47   C73   A    
C219  O8    A    
O8    Zn12  S    
C151  H11   S    
C144  H123  S    
C1    O68   A    
C118  H61   S    
C51   C77   A    
C103  N16   T    
O3    Zn2   S    
O24   Zn4   S    
C173  C182  A    
C121  H71   S    
O23   Zn14  S    
C161  H52   S    
C148  H6    S    
C3    C20   S    
C186  O5    A    
C135  C191  A    
C151  H14   S    
C100  N14   T    
C117  H65   S    
C111  H59   S    
C133  C134  S    
O56   Zn3   S    
C128  H86   S    
C220  C237  T    
C134  H100  S    
C127  C128  S    
C198  C227  S    
O34   Zn15  S    
C137  C138  S    
C30   O53   S    
C123  H80   S    
C113  C193  A    
C174  C183  A    
C71   C74   A    
C119  C120  S    
C152  H25   S    
C105  C106  S    
C7    C25   S    
C221  C238  T    
C223  C240  T    
C120  H73   S    
C218  C236  T    
C125  H79   S    
C149  C150  S    
O30   Zn6   S    
C131  H92   S    
C137  H112  S    
O28   Zn8   S    
C41   O64   S    
C209  O39   A    
C116  C117  S    
C111  C114  S    
C171  H24   S    
C164  C182  S    
C141  H117  S    
C112  O2    A    
C114  H58   S    
C142  C143  S    
O67   Zn5   S    
C19   C240  S    
C159  H1    S    
C154  H19   S    
C56   C65   A    
C32   O55   S    
O1    Zn4   S    
O21   Zn5   S    
C4    C21   S    
C170  C183  A    
C129  H99   S    
O2    Zn7   S    
C35   C119  S    
C155  H33   S    
C101  C192  A    
C107  H39   S    
C141  H116  S    
C113  C171  A    
C206  C218  S    
C12   C234  S    
C207  O38   A    
C185  N21   S    
C166  H96   S    
C39   O62   S    
C36   C58   A    
C104  N17   T    
C211  O30   A    
C7    C228  T    
C79   C132  S    
C168  H118  S    
C142  H3    S    
C168  C181  A    
C105  H44   S    
C5    C226  T    
C44   C71   A    
C106  H43   S    
C219  O13   A    
C57   C188  A    
C162  H63   S    
O12   Zn3   S    
C28   C50   A    
C87   N24   T    
C58   C66   A    
C5    C22   S    
C132  C133  S    
C79   C190  A    
C124  C172  A    
C27   N12   A    
C24   C189  A    
C40   O63   S    
C165  H85   S    
C79   C168  A    
O35   Zn1   S    
C192  N19   S    
C39   C52   A    
C147  H7    S    
O46   Zn15  S    
C13   C188  A    
O26   Zn2   S    
C45   C72   A    
C165  C178  A    
C12   C20   T    
C98   N11   T    
C159  C177  A    
C1    C184  S    
C140  H120  S    
C90   C191  A    
C41   C54   A    
C209  C216  S    
C158  H28   S    
C31   C44   A    
C138  H110  S    
C159  C230  A    
C145  H10   S    
C73   C91   S    
C57   C126  S    
C54   C67   A    
C179  C197  S    
C202  O21   A    
C44   C62   A    
C135  C149  S    
C133  H104  S    
C45   C63   A    
C67   C69   A    
C30   N1    A    
C139  H121  S    
O9    Zn15  S    
C89   N3    T    
C198  O41   A    
C72   C77   A    
C58   C84   A    
C204  O35   A    
C90   C136  S    
C206  O32   A    
C143  H126  S    
C35   C185  A    
C160  C178  A    
O43   Zn9   S    
C118  H64   S    
C55   C82   A    
C153  H22   S    
C31   O54   S    
C96   N9    T    
C122  H82   S    
C146  C152  S    
C121  H69   S    
O48   Zn13  S    
C16   C237  S    
C40   C53   A    
C43   C70   A    
O1    Zn12  S    
C164  O3    A    
O40   Zn10  S    
C143  H127  S    
C91   N4    T    
C115  H56   S    
C24   C162  A    
O11   Zn9   S    
C210  O29   A    
C31   N12   A    
C136  H113  S    
C29   O52   S    
C13   C161  A    
C198  O17   A    
C124  C145  S    
C9    C231  S    
C10   C22   T    
C193  N18   S    
C122  C123  S    
C186  O9    A    
C33   O57   S    
C176  H37   S    
C72   C89   S    
C48   C61   A    
C6    C23   S    
C73   C76   A    
C119  H75   S    
C200  C225  S    
C68   C129  S    
C149  H18   S    
C131  H93   S    
C68   C167  A    
C78   C84   A    
C110  H48   S    
C65   C66   A    
O25   Zn16  S    
C166  C179  A    
C201  C224  S    
C153  C154  S    
C208  O11   A    
O18   Zn4   S    
C42   N23   A    
