data_mof_unit_68388.cif
_audit_creation_date              2013-03-05T15:41:50-0500
_audit_creation_method            fapswitch 2.2
_symmetry_space_group_name_H-M    P1
_symmetry_Int_Tables_number       1
_space_group_crystal_system       triclinic
_cell_length_a                    8.107328
_cell_length_b                    8.851755
_cell_length_c                    10.510966
_cell_angle_alpha                 94.830866
_cell_angle_beta                  86.915983
_cell_angle_gamma                 91.695982
_cell_volume                      750.303477304

loop_
_atom_site_label
_atom_site_type_symbol
_atom_site_description
_atom_site_fract_x
_atom_site_fract_y
_atom_site_fract_z
_atom_type_partial_charge
O1    O     O_R   0.389250 0.738570 0.508410 -0.563299
O2    O     O_R   0.610750 0.261430 0.491590 -0.553834
O3    O     O_R   0.678390 0.711620 0.486450 -0.546984
O4    O     O_R   0.321610 0.288380 0.513550 -0.609102
C1    C     C_R   0.542261 0.790848 0.489151 0.808884
C2    C     C_R   0.457305 0.206692 0.493573 0.855787
O5    O     O_R   0.355460 0.513510 0.697030 -0.562196
O6    O     O_R   0.644540 0.486490 0.302970 -0.556454
O7    O     O_R   0.644600 0.486560 0.675070 -0.556445
O8    O     O_R   0.355400 0.513440 0.324930 -0.555169
C3    C     C_R   0.502181 0.497873 0.740665 0.939555
C4    C     C_R   0.496920 0.500238 0.258872 0.924084
Zn1   Zn    Zn3+2 0.306940 0.517990 0.514670 1.208649
Zn2   Zn    Zn3+2 0.693060 0.482010 0.485330 1.225356
N1    N     N_2   0.950320 0.457950 0.465730 0.101462
N2    N     N_2   0.049680 0.542050 0.534270 0.140058
C5    C     C_3   0.415466 0.615346 0.964324 -0.239388
C6    C     C_3   0.577314 0.377195 0.034050 -0.263752
C7    C     C_3   0.566110 0.623832 0.046586 0.433766
C8    C     C_3   0.426787 0.369363 0.950897 0.454496
H1    H     H_    0.353557 0.716267 0.935616 0.229509
H2    H     H_    0.636939 0.274702 0.062025 0.228798
C9    C     C_3   0.489622 0.498874 0.123397 -0.158129
C10   C     C_3   0.504959 0.494931 0.875469 -0.161126
C11   C     C_3   0.336654 0.488106 0.041991 -0.166849
C12   C     C_3   0.656333 0.504688 0.956941 -0.185640
H3    H     H_    0.203723 0.476933 0.068345 0.237820
H4    H     H_    0.789747 0.520520 0.938011 0.244948
C13   C     C_2   0.566160 0.948843 0.468883 0.084550
C14   C     C_2   0.435751 0.043035 0.470927 0.083019
S1    S     S_3+6 0.660403 0.801046 0.096231 0.080452
O9    O     O_2   0.542100 0.891990 0.184329 -0.279079
O10   O     O_2   0.814668 0.774096 0.162569 -0.198707
O11   O     O_3   0.709270 0.895517 0.966615 -0.506111
H5    H     H_    0.758761 0.993393 0.000517 0.404883
S2    S     S_3+6 0.337654 0.195132 0.885536 0.062240
O12   O     O_2   0.275855 0.102991 0.992866 -0.218390
O13   O     O_2   0.196322 0.226975 0.805810 -0.243170
O14   O     O_3   0.482277 0.098633 0.794188 -0.571110
H6    H     H_    0.427769 0.000403 0.767094 0.384498
S3    S     S_3+6 0.010858 0.431731 0.303569 0.181721
O15   O     O_2   0.050725 0.584655 0.256327 -0.243933
O16   O     O_2   0.154774 0.330802 0.278002 -0.268345
O17   O     O_3   0.869643 0.343832 0.211377 -0.487011
H7    H     H_    0.919081 0.343131 0.123018 0.363828
S4    S     S_3+6 0.987272 0.605098 0.687265 0.187202
O18   O     O_2   0.840263 0.704365 0.690710 -0.280026
O19   O     O_2   0.953038 0.467679 0.759439 -0.301448
O20   O     O_3   0.137796 0.711737 0.756226 -0.507643
H8    H     H_    0.088551 0.750231 0.840638 0.383648
S5    S     S_3+6 0.776055 0.006202 0.441038 0.142709
O21   O     O_2   0.888125 0.876438 0.403271 -0.117272
O22   O     O_2   0.788462 0.107159 0.333196 -0.168223
O23   O     O_3   0.837230 0.098011 0.578157 -0.521749
H9    H     H_    0.820061 0.023494 0.643137 0.397164
S6    S     S_3+6 0.232169 0.974759 0.439031 0.159515
O24   O     O_2   0.236803 0.845323 0.336761 -0.162726
O25   O     O_2   0.149092 0.924104 0.560162 -0.222436
O26   O     O_3   0.118437 0.105369 0.385661 -0.382298
H10   H     H_    0.076869 0.167054 0.462517 0.409442

loop_
_geom_bond_atom_site_label_1
_geom_bond_atom_site_label_2
_geom_bond_distance
_ccdc_geom_bond_type
C7    C9    1.521764 S    
O7    Zn2   2.009107 S    
S1    O10   1.498932 D    
C13   C14   1.363875 D    
C11   H3    1.101891 S    
C6    H2    1.108793 S    
S3    O16   1.489720 D    
S3    O15   1.501146 D    
C12   H4    1.096235 S    
S1    O9    1.500007 D    
S4    O20   1.678522 S    
S6    O26   1.652119 S    
O6    C4    1.319017 A    
S5    O23   1.685060 S    
C5    C11   1.548998 S    
O3    C1    1.322786 A    
S2    O13   1.502273 D    
S1    O11   1.681241 S    
C7    S1    1.775228 S    
O26   H10   0.985696 S    
S4    O18   1.498629 D    
S6    O24   1.503470 D    
O5    C3    1.312860 A    
O7    C3    1.314588 A    
C4    C9    1.427393 S    
O2    C2    1.321381 A    
O3    Zn2   2.038448 S    
O8    C4    1.311762 A    
O1    C1    1.322405 A    
S2    O12   1.502968 D    
C2    C14   1.455060 S    
C10   C12   1.530117 S    
O11   H5    0.990646 S    
C1    C13   1.438239 S    
C9    C11   1.540348 S    
O2    Zn2   2.049820 S    
S3    O17   1.671760 S    
S4    O19   1.498316 D    
C5    C10   1.529702 S    
O1    Zn1   2.049820 S    
C8    C11   1.534994 S    
O14   H6    0.990727 S    
C6    C9    1.533174 S    
C8    S2    1.783733 S    
C8    C10   1.522598 S    
C3    C10   1.420750 S    
O5    Zn1   1.981216 S    
S5    O21   1.499555 D    
O17   H7    0.991150 S    
N1    S3    1.746444 S    
C6    C8    1.535433 S    
O4    C2    1.331863 A    
O20   H8    0.990822 S    
C13   S5    1.777492 S    
Zn1   N2    2.100137 S    
N2    S4    1.712176 S    
O4    Zn1   2.038448 S    
C7    C12   1.529463 S    
O23   H9    0.990537 S    
O6    Zn2   1.981214 S    
C5    C7    1.530416 S    
Zn2   N1    2.100137 S    
C14   S6    1.779939 S    
S2    O14   1.681168 S    
C5    H1    1.108714 S    
N1    N2    1.287908 D    
S6    O25   1.503918 D    
S5    O22   1.498877 D    
O8    Zn1   2.009107 S    
C6    C12   1.547995 S    
