data_mof_unit_53471.cif
_audit_creation_date              2012-12-11T20:41:32-0500
_audit_creation_method            fapswitch 2.2
_symmetry_space_group_name_H-M    P1
_symmetry_Int_Tables_number       1
_space_group_crystal_system       triclinic
_cell_length_a                    8.259946
_cell_length_b                    18.913891
_cell_length_c                    26.986647
_cell_angle_alpha                 97.286917
_cell_angle_beta                  92.329086
_cell_angle_gamma                 86.201344
_cell_volume                      4170.60932495

loop_
_atom_site_label
_atom_site_type_symbol
_atom_type_description
_atom_site_fract_x
_atom_site_fract_y
_atom_site_fract_z
_atom_type_partial_charge
Ba1   Ba    Ba6+2 0.852670 0.466460 0.522850 1.542705
Ba2   Ba    Ba6+2 0.337150 0.533490 0.477140 1.359240
C1    C     C_3   0.578048 0.220790 0.663739 0.068390
C2    C     C_R   0.850752 0.541718 0.173276 0.610390
C3    C     C_2   0.726569 0.502494 0.270136 -0.106148
C4    C     C_3   0.109589 0.272075 0.651353 0.173610
C5    C     C_3   0.692634 0.506790 0.325495 -0.107654
C6    C     C_1   0.980900 0.484745 0.341152 -0.032504
C7    C     C_2   0.015636 0.481247 0.292991 0.032526
C8    C     C_2   0.881470 0.490601 0.253922 0.133167
C9    C     C_R   0.995541 0.488035 0.099053 -0.144112
C10   C     C_R   0.057960 0.433075 0.126538 -0.015161
C11   C     C_R   0.159686 0.377900 0.102727 0.007113
C12   C     C_3   0.576045 0.292523 0.643431 0.533451
C13   C     C_R   0.891472 0.543200 0.122718 -0.089272
C14   C     C_2   0.845063 0.517846 0.357378 -0.265139
C15   C     C_2   0.344385 0.476413 0.640249 -0.331564
C16   C     C_3   0.043473 0.244261 0.696569 0.287336
C17   C     C_R   0.169335 0.427746 0.971815 0.036994
C18   C     C_R   0.024827 0.545702 0.970688 0.009131
C19   C     C_R   0.117171 0.486593 0.945912 0.009661
C20   C     C_R   0.253226 0.368536 0.944531 -0.096148
C21   C     C_R   0.288556 0.368161 0.894362 -0.052583
C22   C     C_R   0.243420 0.426980 0.868947 0.033805
C23   C     C_3   0.504090 0.635834 0.629934 0.180355
C24   C     C_R   0.157999 0.486448 0.894723 -0.108978
C25   C     C_R   0.113680 0.545876 0.869356 0.152204
C26   C     C_R   0.157853 0.545739 0.819154 0.491127
C27   C     C_R   0.281423 0.427312 0.818202 0.535468
C28   C     C_3   0.185630 0.319161 0.417698 0.452151
C29   C     C_2   0.442960 0.473733 0.728550 -0.076378
C30   C     C_3   0.489790 0.482387 0.675917 0.030070
C31   C     C_1   0.205827 0.508146 0.655653 0.031565
C32   C     C_2   0.162381 0.507015 0.702599 -0.034225
C33   C     C_2   0.286266 0.487769 0.742114 0.183908
C34   C     C_3   0.454477 0.661033 0.683742 0.218398
C35   C     C_R   0.135257 0.429765 0.023674 -0.001293
C36   C     C_R   0.036499 0.487451 0.047773 0.091688
C37   C     C_R   0.977453 0.544282 0.020951 0.019329
C38   C     C_R   0.197251 0.376109 0.052645 -0.161702
C39   C     C_R   0.830689 0.598685 0.095187 0.436304
C40   C     C_3   0.208100 0.238523 0.404982 -0.540760
C41   C     C_R   0.984775 0.604933 0.944278 -0.161324
C42   C     C_R   0.028276 0.604905 0.894941 -0.088814
C43   C     C_R   0.870720 0.597760 0.045252 -0.156966
C44   C     C_2   0.410181 0.301878 0.521703 -0.257234
C45   C     C_3   0.066317 0.804701 0.368810 0.260703
C46   C     C_3   0.327782 0.255826 0.553507 -0.177242
C47   C     C_2   0.368834 0.177023 0.540453 -0.072182
C48   C     C_2   0.500599 0.153699 0.513338 -0.143385
C49   C     C_2   0.589913 0.207591 0.490488 -0.059180
C50   C     C_1   0.534511 0.275750 0.494216 0.134304
C51   C     C_R   0.666209 0.936166 0.503568 0.512092
C52   C     C_3   0.982395 0.693369 0.605840 0.636000
C53   C     C_R   0.558289 0.076533 0.508607 0.480494
C54   C     C_R   0.625895 0.809976 0.519019 -0.111835
C55   C     C_R   0.671337 0.736858 0.512682 0.021616
C56   C     C_3   0.164590 0.868212 0.389781 -0.487942
C57   C     C_R   0.907952 0.758766 0.467865 0.028127
C58   C     C_R   0.866843 0.832765 0.476350 -0.093827
C59   C     C_R   0.721032 0.858878 0.499770 -0.073731
C60   C     C_R   0.807710 0.711576 0.485521 -0.192481
C61   C     C_3   0.881222 0.740448 0.644791 0.309421
C62   C     C_3   0.682443 0.362417 0.369059 0.144786
C63   C     C_3   0.726491 0.326802 0.317138 -0.206536
C64   C     C_3   0.867666 0.678820 0.300526 0.007658
C65   C     C_3   0.809680 0.714238 0.130489 0.258843
C66   C     C_3   0.653433 0.699251 0.353919 0.825338
C67   C     C_3   0.554776 0.759312 0.383828 -0.389453
C68   C     C_R   0.018220 0.434218 0.177338 0.586471
Cl1   Cl    Cl    0.094221 0.750306 0.574477 -0.591391
Cl2   Cl    Cl    0.004376 0.790348 0.690878 -0.485693
Cl3   Cl    Cl    0.507089 0.231535 0.725899 -0.519942
Cl4   Cl    Cl    0.619486 0.651071 0.727502 -0.638336
Cl5   Cl    Cl    0.048083 0.149113 0.687804 -0.582737
H1    H     H_    0.624140 0.282443 0.605153 -0.032921
H2    H     H_    0.499235 0.184392 0.639742 0.081004
H3    H     H_    0.811692 0.279494 0.320286 0.118637
H4    H     H_    0.786660 0.364039 0.296455 0.047847
H5    H     H_    0.615334 0.309448 0.295722 0.106707
H6    H     H_    0.449537 0.316307 0.642450 -0.135762
H7    H     H_    0.395663 0.615861 0.608525 0.083091
H8    H     H_    0.599368 0.591484 0.629159 0.062009
H9    H     H_    0.407233 0.717766 0.687431 0.176451
H10   H     H_    0.356291 0.629171 0.694070 0.046993
H11   H     H_    0.702995 0.195484 0.663466 0.173225
H12   H     H_    0.297474 0.224960 0.375064 0.177628
H13   H     H_    0.119725 0.261472 0.730229 0.109847
H14   H     H_    0.056869 0.804565 0.327676 0.094743
H15   H     H_    0.939550 0.811911 0.381214 0.048825
H16   H     H_    0.269152 0.872043 0.366038 0.127098
H17   H     H_    0.086691 0.918334 0.389583 0.148250
H18   H     H_    0.209592 0.864155 0.428615 0.169642
H19   H     H_    0.730465 0.670925 0.381107 -0.297877
H20   H     H_    0.634921 0.800396 0.401821 0.070379
H21   H     H_    0.487978 0.737998 0.412883 0.166535
H22   H     H_    0.112999 0.331209 0.659211 0.052450
H23   H     H_    0.252961 0.213769 0.438420 0.100782
H24   H     H_    0.467281 0.784741 0.358333 0.188265
H25   H     H_    0.140745 0.472941 0.281841 0.117482
H26   H     H_    0.211256 0.335271 0.122876 0.103216
H27   H     H_    0.537362 0.462777 0.756209 0.128939
H28   H     H_    0.352846 0.321220 0.875501 0.112213
H29   H     H_    0.290931 0.320571 0.960594 0.079450
H30   H     H_    0.278428 0.332234 0.037984 0.078669
H31   H     H_    0.624764 0.505993 0.243670 0.127119
H32   H     H_    0.923015 0.653461 0.961071 0.083728
H33   H     H_    0.234329 0.247538 0.646697 0.045633
H34   H     H_    0.090329 0.216362 0.391996 0.160682
H35   H     H_    0.994343 0.651898 0.876806 0.189427
H36   H     H_    0.039950 0.524451 0.713479 0.158238
H37   H     H_    0.811941 0.639613 0.026182 0.100538
H38   H     H_    0.840839 0.548045 0.394385 0.090622
H39   H     H_    0.354889 0.449952 0.602323 0.064233
H40   H     H_    0.301655 0.140342 0.558301 0.135286
H41   H     H_    0.698590 0.190292 0.469838 0.108865
H42   H     H_    0.517617 0.828369 0.539350 0.132193
H43   H     H_    0.946432 0.869820 0.464406 0.064006
H44   H     H_    0.380127 0.358922 0.527811 0.091110
H45   H     H_    0.902317 0.662503 0.578390 -0.130234
H46   H     H_    0.917812 0.266258 0.703279 0.096126
H47   H     H_    0.841323 0.654915 0.480701 0.077254
H48   H     H_    0.304073 0.340680 0.429211 0.002223
H49   H     H_    0.101143 0.331420 0.448901 0.057808
H50   H     H_    0.806563 0.635908 0.277391 0.156417
H51   H     H_    0.948127 0.655791 0.329153 0.104694
H52   H     H_    0.943946 0.703996 0.275664 0.140566
H53   H     H_    0.855760 0.735618 0.097544 -0.005643
H54   H     H_    0.911540 0.703607 0.157417 0.025150
H55   H     H_    0.725678 0.756168 0.149671 0.080913
H56   H     H_    0.810392 0.705965 0.664530 0.109422
H57   H     H_    0.797393 0.778238 0.626397 0.044337
H58   H     H_    0.793384 0.383854 0.388157 0.053147
H59   H     H_    0.587229 0.405821 0.366018 0.066657
N1    N     N_R   0.917044 0.488732 0.200709 -0.424620
N2    N     N_R   0.240427 0.486696 0.793852 -0.418467
N3    N     N_R   0.525645 0.960190 0.526183 -0.230874
N4    N     N_R   0.473284 0.028662 0.528753 -0.195390
N5    N     N_R   0.698899 0.052629 0.485799 -0.221921
N6    N     N_R   0.751473 0.983929 0.483236 -0.256379
O1    O     O_2   0.914730 0.537460 0.618690 -0.463703
O2    O     O_2   0.244884 0.749958 0.470948 -0.427447
O3    O     O_3   0.142552 0.738621 0.378570 -0.578325
O4    O     O_3   0.146720 0.537410 0.558510 -0.441632
O5    O     O_3   0.553920 0.415280 0.473710 -0.493889
O6    O     O_2   0.383540 0.672140 0.526840 -0.354414
O7    O     O_3   0.562667 0.693233 0.609368 -0.643617
O8    O     O_2   0.359242 0.552867 0.328466 -0.448096
O9    O     O_3   0.543759 0.656111 0.324457 -0.579168
O10   O     O_2   0.071880 0.385787 0.200453 -0.614246
O11   O     O_2   0.350102 0.374406 0.795619 -0.543570
O12   O     O_3   0.619301 0.311492 0.394467 -0.587063
O13   O     O_2   0.756184 0.588116 0.192885 -0.562105
O14   O     O_2   0.124731 0.598782 0.798258 -0.548848
O15   O     O_3   0.666360 0.409390 0.586570 -0.469579
O16   O     O_2   0.826249 0.450800 0.671367 -0.470304
O17   O     O_3   0.093306 0.650321 0.630912 -0.626756
O18   O     O_3   0.674997 0.338119 0.674076 -0.581723
O19   O     O_2   0.806150 0.327840 0.473120 -0.452679
O20   O     O_3   0.073640 0.373350 0.561550 -0.451642
O21   O     O_2   0.012862 0.246919 0.510559 -0.472865
O22   O     O_3   0.752481 0.730523 0.322292 -0.648137
O23   O     O_3   0.012059 0.253105 0.608343 -0.535430
O24   O     O_3   0.723394 0.652663 0.115873 -0.593318
O25   O     O_2   0.274960 0.462520 0.381280 -0.461689
O26   O     O_3   0.042980 0.462530 0.441480 -0.481969
O27   O     O_3   0.523340 0.590550 0.413420 -0.451459
O28   O     O_3   0.123217 0.348394 0.375340 -0.597222
O29   O     O_3   0.635780 0.584660 0.526290 -0.474091
O30   O     O_3   0.116060 0.626590 0.438450 -0.424554
P1    P     P_3+3 0.084800 0.558370 0.611580 1.005393
P2    P     P_3+3 0.628800 0.338360 0.458800 0.976714
P3    P     P_3+3 0.105881 0.280656 0.557594 1.033738
P4    P     P_3+3 0.104900 0.441570 0.388420 0.977151
P5    P     P_3+3 0.099712 0.720409 0.438863 1.079649
P6    P     P_3+3 0.662804 0.421297 0.651997 0.953780
P7    P     P_3+3 0.566666 0.673445 0.544325 0.980281
P8    P     P_3+3 0.529680 0.574660 0.347981 1.074057

loop_
_geom_bond_atom_site_label_1
_geom_bond_atom_site_label_2
_ccdc_geom_bond_type
O15   P6    S    
C19   C24   A    
C16   Cl5   S    
C63   H4    S    
C52   H45   S    
C51   N6    A    
Ba2   O4    S    
O20   P3    S    
Ba1   O5    S    
C68   O10   D    
O3    P5    S    
C67   H21   S    
C14   H38   S    
C50   P2    S    
C43   H37   S    
C53   N5    A    
C55   C60   A    
C54   C55   A    
Ba2   O5    S    
O28   P4    S    
C30   P6    S    
O4    P1    S    
C24   C25   A    
C53   N4    A    
C62   O12   S    
C51   N3    A    
C17   C19   A    
C56   H18   S    
C22   C24   A    
C32   C33   S    
C35   C38   A    
C57   P5    S    
C40   H23   S    
C36   C37   A    
O12   P2    S    
C6    P4    S    
C52   C61   S    
C44   C50   D    
O1    P1    D    
C20   H29   S    
C64   H52   S    
C64   O22   S    
Ba1   Ba2   S    
C54   H42   S    
Ba1   O15   S    
C22   C27   A    
C11   C38   A    
C66   O9    S    
C17   C35   A    
C9    C13   A    
C25   C42   A    
C21   H28   S    
C52   Cl1   S    
C6    C7    D    
C21   C22   A    
C58   H43   S    
C61   H56   S    
C7    C8    S    
Ba2   O26   S    
C37   C43   A    
C27   N2    Am   
C4    O23   S    
C2    O13   D    
O5    P2    S    
C3    H31   S    
C6    C14   D    
C63   H5    S    
C1    H11   S    
C26   O14   D    
C32   H36   S    
C45   H14   S    
C65   H54   S    
C15   C31   D    
C65   O24   S    
O29   P7    S    
C15   H39   S    
C31   C32   D    
C62   H59   S    
O30   P5    S    
C4    C16   S    
C44   C46   S    
O26   P4    S    
O19   P2    D    
C49   C50   D    
C4    H22   S    
Ba1   O19   S    
C17   C20   A    
C8    N1    S    
C13   C39   A    
C3    C5    S    
C18   C37   A    
C66   C67   S    
C16   H46   S    
O25   P4    D    
Ba1   P1    S    
C66   H19   S    
C64   H51   S    
C5    P8    S    
C58   C59   A    
C12   H1    S    
C9    C36   A    
C41   C42   A    
C29   H27   S    
C35   C36   A    
C27   O11   D    
O21   P3    D    
O7    P7    S    
C29   C30   S    
C9    C10   A    
C18   C19   A    
C48   C49   S    
C23   O7    S    
C41   H32   S    
C61   H57   S    
C61   Cl2   S    
C28   H48   S    
Ba2   O25   S    
C1    C12   S    
C34   Cl4   S    
Ba2   O30   S    
C2    N1    Am   
C67   H24   S    
O18   P6    S    
C5    C14   S    
C47   H40   S    
C28   H49   S    
C7    H25   S    
C68   N1    Am   
C45   H15   S    
C29   C33   D    
C65   H55   S    
C51   C59   S    
C1    H2    S    
C60   H47   S    
C18   C41   A    
C46   P3    S    
C56   H16   S    
C10   C68   A    
C62   H58   S    
O16   P6    D    
C57   C60   A    
O8    P8    D    
C63   H3    S    
C23   C34   S    
C26   N2    Am   
C40   H34   S    
Ba1   O20   S    
C49   H41   S    
C45   O3    S    
C67   H20   S    
C33   N2    S    
N5    N6    A    
O2    P5    D    
C66   O22   S    
C34   H10   S    
Ba2   O6    S    
N3    N4    A    
Ba1   P2    S    
C48   C53   S    
C64   H50   S    
C62   C63   S    
C2    C13   A    
C28   O28   S    
C3    C8    D    
Ba1   O4    S    
C39   C43   A    
C65   H53   S    
Ba2   P4    S    
C52   O17   S    
C55   P7    S    
C23   H7    S    
C56   H17   S    
Ba1   O26   S    
C34   H9    S    
C46   C47   S    
C54   C59   A    
Ba1   O29   S    
O9    P8    S    
C44   H44   S    
C1    Cl3   S    
C16   H13   S    
C12   O18   S    
Ba1   O1    S    
Ba2   O29   S    
O23   P3    S    
C57   C58   A    
O27   P8    S    
C10   C11   A    
O6    P7    D    
C47   C48   D    
C39   O24   S    
C25   C26   A    
C23   H8    S    
C15   C30   S    
C4    H33   S    
C20   C21   A    
C28   C40   S    
C40   H12   S    
C12   H6    S    
C11   H26   S    
Ba2   O27   S    
O17   P1    S    
C42   H35   S    
C38   H30   S    
C45   C56   S    
C31   P1    S    
