data_mof_unit_40984.cif
_audit_creation_date              2012-12-11T14:19:19-0500
_audit_creation_method            fapswitch 2.2
_symmetry_space_group_name_H-M    P1
_symmetry_Int_Tables_number       1
_space_group_crystal_system       triclinic
_cell_length_a                    19.400584
_cell_length_b                    7.251909
_cell_length_c                    17.70398
_cell_angle_alpha                 89.999864
_cell_angle_beta                  107.668081
_cell_angle_gamma                 90.000149
_cell_volume                      2373.30636771

loop_
_atom_site_label
_atom_site_type_symbol
_atom_type_description
_atom_site_fract_x
_atom_site_fract_y
_atom_site_fract_z
_atom_type_partial_charge
O1    O     O_R   0.414820 0.494320 0.416790 -0.541101
O2    O     O_R   0.585180 0.994320 0.583210 -0.541084
O3    O     O_R   0.560270 0.819500 0.430140 -0.546013
O4    O     O_R   0.439730 0.319500 0.569860 -0.546034
C1    C     C_R   0.581433 0.655570 0.415110 0.706437
C2    C     C_R   0.418568 0.155569 0.584890 0.706346
O5    O     O_R   0.413840 0.823740 0.407440 -0.538919
O6    O     O_R   0.586160 0.323740 0.592560 -0.538920
O7    O     O_R   0.437710 0.998590 0.560350 -0.528542
O8    O     O_R   0.562290 0.498590 0.439650 -0.528509
C3    C     C_R   0.387558 0.654947 0.385336 0.741730
C4    C     C_R   0.612442 0.154948 0.614664 0.741851
O9    O     O_3   0.508000 0.662290 0.550200 -0.381807
O10   O     O_3   0.492000 0.162290 0.449800 -0.381789
V1    V     V_3+5 0.498520 0.935380 0.490690 1.444555
V2    V     V_3+5 0.501480 0.435380 0.509310 1.444519
C5    C     C_2   0.785490 0.271679 0.788250 -0.126693
C6    C     C_2   0.214509 0.771679 0.211752 -0.126663
C7    C     C_2   0.820486 0.113472 0.816998 -0.296341
C8    C     C_2   0.179514 0.613472 0.183003 -0.296341
H1    H     H_    0.807519 0.401808 0.815373 0.141857
H2    H     H_    0.192480 0.901808 0.184629 0.141863
H3    H     H_    0.800206 0.981935 0.790574 0.133562
H4    H     H_    0.199794 0.481935 0.209425 0.133546
C9    C     C_2   0.717623 0.284476 0.720158 -0.125768
C10   C     C_2   0.282377 0.784476 0.279844 -0.125834
C11   C     C_2   0.679432 0.138511 0.682409 -0.293129
C12   C     C_2   0.320568 0.638511 0.317592 -0.293362
H5    H     H_    0.698437 0.422598 0.701116 0.140767
H6    H     H_    0.301563 0.922598 0.298885 0.140786
H7    H     H_    0.697192 0.999553 0.700794 0.132244
H8    H     H_    0.302806 0.499552 0.299206 0.132267
C13   C     C_R   0.316928 0.289290 0.626307 -0.122750
C14   C     C_R   0.683067 0.789303 0.373686 -0.122664
C15   C     C_R   0.368406 0.148797 0.633403 -0.108654
C16   C     C_R   0.631594 0.648800 0.366596 -0.108727
C17   C     C_R   0.371301 0.002734 0.686095 -0.128546
C18   C     C_R   0.628701 0.502734 0.313908 -0.128493
C19   C     C_R   0.323579 0.996536 0.731777 0.173041
C20   C     C_R   0.676422 0.496536 0.268225 0.173048
C21   C     C_R   0.272775 0.140146 0.725666 0.006104
C22   C     C_R   0.727218 0.640161 0.274326 0.006125
C23   C     C_R   0.268831 0.288372 0.672267 -0.043636
C24   C     C_R   0.731155 0.788406 0.327716 -0.043685
C25   C     C_R   0.325169 0.847069 0.782651 -0.138431
C26   C     C_R   0.674838 0.347058 0.217359 -0.138384
C27   C     C_R   0.276981 0.838860 0.827309 -0.196531
C28   C     C_R   0.723027 0.338846 0.172702 -0.196495
C29   C     C_R   0.227132 0.981520 0.822955 0.128518
C30   C     C_R   0.772870 0.481516 0.177049 0.128567
C31   C     C_R   0.225209 0.133290 0.772316 0.071542
C32   C     C_R   0.774784 0.633302 0.227677 0.071599
C33   C     C_R   0.175454 0.277323 0.768074 0.012906
C34   C     C_R   0.824531 0.777346 0.231908 0.012904
C35   C     C_R   0.171637 0.423570 0.715306 -0.240621
C36   C     C_R   0.828337 0.923619 0.284660 -0.240612
C37   C     C_R   0.216439 0.429308 0.666112 0.460193
C38   C     C_R   0.783531 0.929376 0.333850 0.460197
C39   C     C_R   0.179172 0.974782 0.868413 -0.208950
C40   C     C_R   0.820831 0.474773 0.131592 -0.208950
C41   C     C_R   0.130327 0.119873 0.865667 -0.075737
C42   C     C_R   0.869670 0.619873 0.134331 -0.075737
C43   C     C_R   0.129144 0.271267 0.815633 -0.165118
C44   C     C_R   0.870844 0.771283 0.184352 -0.165057
H9    H     H_    0.314609 0.397093 0.583616 0.195418
H10   H     H_    0.685391 0.897088 0.416384 0.195611
H11   H     H_    0.410610 0.893393 0.691334 0.118162
H12   H     H_    0.589394 0.393385 0.308673 0.118188
H13   H     H_    0.363226 0.735138 0.787205 0.114329
H14   H     H_    0.636785 0.235117 0.212812 0.114315
H15   H     H_    0.278895 0.721016 0.865533 0.118375
H16   H     H_    0.721118 0.220991 0.134486 0.118351
H17   H     H_    0.180805 0.857922 0.907133 0.120455
H18   H     H_    0.819205 0.357901 0.092881 0.120452
H19   H     H_    0.091058 0.382598 0.812460 0.134818
H20   H     H_    0.908924 0.882624 0.187518 0.134838
H21   H     H_    0.132150 0.531679 0.711244 0.187984
H22   H     H_    0.867817 0.031739 0.288710 0.188026
O11   O     O_R   0.937810 0.773680 0.060480 -0.539461
O12   O     O_R   0.062190 0.273680 0.939520 -0.539458
O13   O     O_R   0.086190 0.439740 0.092580 -0.540642
O14   O     O_R   0.913810 0.939740 0.907420 -0.540646
C45   C     C_R   0.112435 0.608309 0.114775 0.733622
C46   C     C_R   0.887564 0.108308 0.885225 0.733586
O15   O     O_R   0.939760 0.444210 0.069890 -0.539369
O16   O     O_R   0.060240 0.944210 0.930110 -0.539374
O17   O     O_R   0.914790 0.269640 0.916760 -0.537386
O18   O     O_R   0.085210 0.769640 0.083240 -0.537383
C47   C     C_R   0.919167 0.612427 0.084922 0.696548
C48   C     C_R   0.080832 0.112428 0.915078 0.696526
O19   O     O_3   0.992050 0.601530 0.949880 -0.378403
O20   O     O_3   0.007950 0.101530 0.050120 -0.378393
V3    V     V_3+5 0.001480 0.328340 0.009300 1.414347
V4    V     V_3+5 0.998520 0.828340 0.990700 1.414332
S1    S     S_3+6 0.201409 0.607449 0.594127 0.002398
O21   O     O_2   0.147029 0.744367 0.605077 -0.304343
O22   O     O_2   0.270987 0.705850 0.600342 -0.369065
O23   O     O_3   0.169960 0.511769 0.503637 -0.486468
H23   H     H_    0.167941 0.614350 0.466067 0.372393
S2    S     S_3+6 0.798545 0.107603 0.405799 0.002269
O24   O     O_2   0.852813 0.244685 0.394720 -0.304739
O25   O     O_2   0.728947 0.205792 0.399679 -0.368771
O26   O     O_3   0.830146 0.012075 0.496295 -0.486550
H24   H     H_    0.832866 0.115022 0.533871 0.372658

loop_
_geom_bond_atom_site_label_1
_geom_bond_atom_site_label_2
_ccdc_geom_bond_type
C1    C16   S    
O14   V4    S    
S1    O21   D    
O1    C3    A    
C46   O17   A    
O2    C4    A    
C14   H10   S    
C2    O7    A    
S1    O23   S    
C13   H9    S    
C27   C29   A    
C20   C26   A    
C43   H19   S    
C15   C17   A    
C35   H21   S    
C42   C47   S    
O17   V3    S    
C36   H22   S    
C2    C15   S    
C40   C42   A    
C25   C27   A    
C41   C43   A    
O20   V3    S    
C42   C44   A    
O16   V4    S    
C5    C7    D    
O15   V3    S    
C8    H4    S    
C24   C38   A    
C29   C31   A    
C6    C10   S    
C30   C32   A    
C39   H17   S    
C14   C16   A    
C19   C25   A    
C28   C30   A    
C45   O18   A    
O6    V2    S    
C21   C23   A    
C22   C24   A    
C28   H16   S    
O13   C45   A    
C32   C34   A    
O5    C3    A    
O18   V4    S    
C33   C35   A    
C9    H5    S    
C34   C36   A    
C39   C41   A    
O11   C47   A    
C4    C11   S    
C25   H13   S    
C13   C23   A    
C12   H8    S    
C14   C24   A    
O11   V4    S    
O4    C2    A    
O16   C48   A    
O15   C47   A    
O5    V1    S    
C11   H7    S    
S2    O26   S    
C5    H1    S    
C31   C33   A    
O4    V2    S    
C7    H3    S    
O13   V3    S    
O6    C4    A    
S2    O25   D    
C44   H20   S    
C38   S2    S    
O1    V2    S    
O2    V1    S    
C27   H15   S    
C18   H12   S    
C10   H6    S    
O14   C46   A    
C35   C37   A    
O9    V2    S    
C7    C46   S    
O3    V1    S    
C41   C48   S    
C6    H2    S    
C20   C22   A    
O3    C1    A    
S1    O22   D    
C9    C11   D    
C10   C12   D    
C29   C39   A    
C30   C40   A    
C16   C18   A    
O7    V1    S    
C5    C9    S    
C1    O8    A    
C17   C19   A    
O8    V2    S    
O19   V4    S    
C18   C20   A    
C33   C43   A    
C34   C44   A    
C3    C12   S    
C17   H11   S    
C40   H18   S    
S2    O24   D    
C13   C15   A    
C36   C38   A    
C6    C8    D    
O12   C48   A    
C26   H14   S    
C23   C37   A    
C26   C28   A    
C19   C21   A    
O23   H23   S    
C37   S1    S    
C8    C45   S    
O26   H24   S    
O10   V1    S    
O12   V3    S    
C21   C31   A    
C22   C32   A    
