data_mof_unit_63468.cif
_audit_creation_date              2012-12-10T18:39:26-0500
_audit_creation_method            fapswitch 2.2
_symmetry_space_group_name_H-M    P1
_symmetry_Int_Tables_number       1
_space_group_crystal_system       triclinic
_cell_length_a                    15.784802
_cell_length_b                    11.574675
_cell_length_c                    10.787678
_cell_angle_alpha                 89.999149
_cell_angle_beta                  90.005285
_cell_angle_gamma                 90.003845
_cell_volume                      1970.95140221

loop_
_atom_site_label
_atom_site_type_symbol
_atom_type_description
_atom_site_fract_x
_atom_site_fract_y
_atom_site_fract_z
_atom_type_partial_charge
C1    C     C_R   0.499998 0.281183 0.500001 0.904062
C2    C     C_R   0.337786 0.500032 0.499984 0.901742
C3    C     C_R   0.662214 0.500015 0.499996 0.899327
C4    C     C_1   0.499988 0.059158 0.499999 0.018687
C5    C     C_1   0.499992 0.161050 0.500001 -0.171270
C6    C     C_1   0.500000 0.500012 0.069785 0.062644
C7    C     C_1   0.500000 0.500012 0.930215 0.063733
C8    C     C_R   0.499995 0.718816 0.499999 0.908642
C9    C     C_3   0.049094 0.469182 0.625895 0.079588
C10   C     C_3   0.049333 0.429845 0.395624 0.236297
C11   C     C_3   0.951289 0.456144 0.620083 0.156733
C12   C     C_1   0.750796 0.503492 0.499860 -0.158313
C13   C     C_3   0.951087 0.436603 0.388392 0.110851
C14   C     C_1   0.499986 0.940838 0.499997 0.021187
C15   C     C_1   0.499989 0.838947 0.499997 -0.166164
C16   C     C_1   0.249219 0.504023 0.499824 -0.171131
C17   C     C_3   0.082695 0.513657 0.498181 -0.136175
C18   C     C_3   0.917287 0.512038 0.498027 -0.147080
C19   C     C_3   0.949599 0.640631 0.482926 0.834700
C20   C     C_3   0.049741 0.640497 0.472589 0.765101
C21   C     C_1   0.825828 0.507383 0.499221 0.081521
C22   C     C_1   0.174201 0.508475 0.499244 -0.003717
H1    H     H_    0.145667 0.726859 0.544710 0.329474
H2    H     H_    0.131900 0.524324 0.746016 0.354978
H3    H     H_    0.866394 0.453383 0.258218 0.339985
H4    H     H_    0.923974 0.449386 0.795623 0.371817
H5    H     H_    0.135519 0.679415 0.346351 0.335963
H6    H     H_    0.952726 0.690042 0.658923 0.423513
H7    H     H_    0.855362 0.707781 0.387978 0.348401
H8    H     H_    0.936047 0.361851 0.616777 0.076940
H9    H     H_    0.926282 0.346548 0.397905 0.071364
H10   H     H_    0.075927 0.381524 0.644795 0.097773
H11   H     H_    0.067348 0.339970 0.422982 0.051185
H12   H     H_    0.077741 0.385347 0.226939 0.357827
N1    N     N_1   0.500000 0.500010 0.180630 -0.074092
N2    N     N_1   0.500000 0.500010 0.819370 -0.073789
O1    O     O_R   0.500000 0.334450 0.602530 -0.608510
O2    O     O_3   0.072823 0.676233 0.351735 -0.625461
O3    O     O_3   0.921106 0.710061 0.582769 -0.716303
O4    O     O_3   0.915829 0.688621 0.373111 -0.631559
O5    O     O_3   0.086863 0.454258 0.280122 -0.630428
O6    O     O_3   0.072738 0.543900 0.722943 -0.654889
O7    O     O_3   0.925125 0.480873 0.272841 -0.614996
O8    O     O_3   0.911492 0.502573 0.725738 -0.663402
O9    O     O_R   0.500000 0.334450 0.397470 -0.608067
O10   O     O_R   0.377140 0.500000 0.602580 -0.613233
O11   O     O_R   0.377140 0.500000 0.397420 -0.599511
O12   O     O_R   0.622860 0.500000 0.602580 -0.592571
O13   O     O_R   0.622860 0.500000 0.397420 -0.614460
O14   O     O_R   0.500000 0.665550 0.602530 -0.604351
O15   O     O_R   0.500000 0.665550 0.397470 -0.606951
O16   O     O_3   0.083837 0.719736 0.559111 -0.729078
Zn1   Zn    Zn3+2 0.500000 0.500000 0.636920 1.007825
Zn2   Zn    Zn3+2 0.500000 0.500000 0.363080 1.003642

loop_
_geom_bond_atom_site_label_1
_geom_bond_atom_site_label_2
_ccdc_geom_bond_type
H1    O16   S    
C11   C18   S    
C6    C7    S    
N2    Zn1   S    
C2    O11   A    
C10   H11   S    
C18   C21   S    
C20   O2    S    
C7    N2    T    
C19   C20   S    
C9    H10   S    
C1    O1    A    
O15   Zn2   S    
O1    Zn1   S    
H3    O7    S    
C3    O13   A    
H4    O8    S    
C11   O8    S    
C20   O16   S    
C2    O10   A    
N1    Zn2   S    
C9    C11   S    
C8    O15   A    
C1    O9    A    
C9    O6    S    
H12   O5    S    
C19   O3    S    
C13   C18   S    
O11   Zn2   S    
C1    C5    S    
O10   Zn1   S    
C9    C17   S    
O9    Zn2   S    
C8    C15   S    
C4    C14   S    
O12   Zn1   S    
O14   Zn1   S    
C2    C16   S    
C19   O4    S    
C10   C17   S    
O13   Zn2   S    
C8    O14   A    
C3    O12   A    
C13   O7    S    
C17   C20   S    
H2    O6    S    
C6    N1    T    
H7    O4    S    
C18   C19   S    
C14   C15   T    
C16   C22   T    
C3    C12   S    
H5    O2    S    
H6    O3    S    
C12   C21   T    
C13   H9    S    
C17   C22   S    
C11   H8    S    
C4    C5    T    
C10   O5    S    
C10   C13   S    
