data_mof_unit_52036.cif
_audit_creation_date              2012-12-11T15:33:47-0500
_audit_creation_method            fapswitch 2.2
_symmetry_space_group_name_H-M    P1
_symmetry_Int_Tables_number       1
_space_group_crystal_system       triclinic
_cell_length_a                    27.160661
_cell_length_b                    7.204481
_cell_length_c                    22.751527
_cell_angle_alpha                 89.998905
_cell_angle_beta                  101.189639
_cell_angle_gamma                 89.999783
_cell_volume                      4367.35286298

loop_
_atom_site_label
_atom_site_type_symbol
_atom_type_description
_atom_site_fract_x
_atom_site_fract_y
_atom_site_fract_z
_atom_type_partial_charge
O1    O     O_R   0.207310 0.594030 0.676830 -0.532794
O2    O     O_R   0.792690 0.405970 0.323170 -0.532525
O3    O     O_R   0.292690 0.094030 0.823170 -0.532790
O4    O     O_R   0.707310 0.905970 0.176830 -0.532520
O5    O     O_R   0.197320 0.262370 0.795700 -0.540578
O6    O     O_R   0.802680 0.737630 0.204300 -0.540764
O7    O     O_R   0.302680 0.762370 0.704300 -0.540582
O8    O     O_R   0.697320 0.237630 0.295700 -0.540744
C1    C     C_R   0.184822 0.432648 0.812082 0.698789
C2    C     C_R   0.815445 0.567331 0.188320 0.699101
C3    C     C_R   0.315179 0.932649 0.687919 0.698778
C4    C     C_R   0.684555 0.067331 0.311679 0.699126
O9    O     O_R   0.201410 0.264250 0.675590 -0.534873
O10   O     O_R   0.798590 0.735750 0.324410 -0.534559
O11   O     O_R   0.298590 0.764250 0.824410 -0.534875
O12   O     O_R   0.701410 0.235750 0.175590 -0.534556
O13   O     O_R   0.296810 0.094940 0.702210 -0.538267
O14   O     O_R   0.703190 0.905060 0.297790 -0.537720
O15   O     O_R   0.203190 0.594940 0.797790 -0.538266
O16   O     O_R   0.796810 0.405060 0.202210 -0.537722
C5    C     C_R   0.189815 0.432520 0.653448 0.684682
C6    C     C_R   0.810247 0.567463 0.346503 0.685635
C7    C     C_R   0.310185 0.932517 0.846551 0.684690
C8    C     C_R   0.689753 0.067465 0.153497 0.685640
O17   O     O_3   0.281300 0.427390 0.758870 -0.372637
O18   O     O_3   0.718700 0.572610 0.241130 -0.373857
O19   O     O_3   0.218700 0.927390 0.741130 -0.372636
O20   O     O_3   0.781300 0.072610 0.258870 -0.373878
V1    V     V_3+5 0.244190 0.152150 0.748350 1.409268
V2    V     V_3+5 0.755810 0.847850 0.251650 1.408338
V3    V     V_3+5 0.255810 0.652150 0.751650 1.409260
V4    V     V_3+5 0.744190 0.347850 0.248350 1.408384
C9    C     C_R   0.654762 0.062394 0.095178 -0.038804
C10   C     C_R   0.345116 0.937586 0.904914 -0.035539
C11   C     C_R   0.845238 0.562389 0.404823 -0.038811
C12   C     C_R   0.154885 0.437591 0.595085 -0.035543
C13   C     C_R   0.639182 0.123690 0.988741 -0.156030
C14   C     C_R   0.360634 0.876457 0.011366 -0.164505
C15   C     C_R   0.860822 0.623772 0.511253 -0.156034
C16   C     C_R   0.139362 0.376378 0.488639 -0.164504
C17   C     C_R   0.672062 0.115206 0.043782 -0.160741
C18   C     C_R   0.327772 0.884911 0.956300 -0.167708
C19   C     C_R   0.827941 0.615257 0.456215 -0.160734
C20   C     C_R   0.172226 0.384862 0.543702 -0.167714
C21   C     C_R   0.603719 0.018559 0.091204 -0.214137
C22   C     C_R   0.396159 0.981363 0.908929 -0.212213
C23   C     C_R   0.896279 0.518524 0.408799 -0.214153
C24   C     C_R   0.103843 0.481397 0.591068 -0.212214
C25   C     C_R   0.568980 0.029372 0.035523 0.086020
C26   C     C_R   0.430871 0.970621 0.964626 0.085114
C27   C     C_R   0.931019 0.529371 0.464478 0.086022
C28   C     C_R   0.069130 0.470624 0.535373 0.085113
C29   C     C_R   0.588059 0.082662 0.984184 0.134002
C30   C     C_R   0.411772 0.917410 0.015955 0.141581
C31   C     C_R   0.911944 0.582721 0.515813 0.134003
C32   C     C_R   0.088226 0.417353 0.484048 0.141580
C33   C     C_R   0.516168 0.991805 0.028956 0.059792
C34   C     C_R   0.483680 0.008195 0.971204 0.056040
C35   C     C_R   0.983831 0.491784 0.471045 0.059792
C36   C     C_R   0.016322 0.508218 0.528794 0.056041
C37   C     C_R   0.505114 0.061031 0.921985 -0.183784
C38   C     C_R   0.494726 0.939018 0.078176 -0.188491
C39   C     C_R   0.994891 0.561116 0.578009 -0.183786
C40   C     C_R   0.005270 0.438936 0.421830 -0.188500
C41   C     C_R   0.556086 0.096973 0.928497 -0.193959
C42   C     C_R   0.443742 0.903122 0.071653 -0.203579
C43   C     C_R   0.943919 0.597074 0.571496 -0.193961
C44   C     C_R   0.056253 0.403024 0.428353 -0.203577
H1    H     H_    0.570647 0.137696 0.889272 0.130671
H2    H     H_    0.429171 0.862457 0.110877 0.119986
H3    H     H_    0.929361 0.637844 0.610717 0.130671
H4    H     H_    0.070822 0.362312 0.389133 0.119997
H5    H     H_    0.407494 0.018686 0.867679 0.097484
H6    H     H_    0.592401 0.981123 0.132456 0.092744
H7    H     H_    0.092510 0.518756 0.632315 0.097489
H8    H     H_    0.907594 0.481050 0.367549 0.092743
H9    H     H_    0.288651 0.849066 0.953661 0.100616
H10   H     H_    0.711170 0.151144 0.046395 0.114098
H11   H     H_    0.211346 0.348991 0.546344 0.100614
H12   H     H_    0.788834 0.651221 0.453600 0.114105
H13   H     H_    0.653706 0.165080 0.949575 0.121506
H14   H     H_    0.346087 0.835160 0.050525 0.110651
H15   H     H_    0.846301 0.665209 0.550416 0.121507
H16   H     H_    0.153907 0.335035 0.449484 0.110655
H17   H     H_    0.483439 0.076640 0.877359 0.127848
H18   H     H_    0.516405 0.923461 0.122804 0.120614
H19   H     H_    0.016567 0.576764 0.622632 0.127847
H20   H     H_    0.983588 0.423340 0.377204 0.120614
C45   C     C_R   0.623977 0.881278 0.358736 -0.242760
C46   C     C_R   0.364775 0.118843 0.626028 -0.239264
C47   C     C_R   0.876029 0.381277 0.141275 -0.242950
C48   C     C_R   0.135225 0.618839 0.873972 -0.239218
H21   H     H_    0.635959 0.756719 0.338855 0.140332
H22   H     H_    0.346210 0.243534 0.637013 0.139139
H23   H     H_    0.864030 0.256728 0.161144 0.140201
H24   H     H_    0.153791 0.743535 0.862989 0.139170
C49   C     C_R   0.586950 0.864571 0.393936 0.487221
C50   C     C_R   0.399632 0.135416 0.587963 0.486532
C51   C     C_R   0.913067 0.364565 0.106084 0.487345
C52   C     C_R   0.100371 0.635410 0.912038 0.486496
C53   C     C_R   0.571741 0.022668 0.422828 -0.083336
C54   C     C_R   0.426218 0.977234 0.574240 -0.083379
C55   C     C_R   0.928264 0.522659 0.077181 -0.083164
C56   C     C_R   0.073790 0.477228 0.925771 -0.083401
C57   C     C_R   0.592869 0.195862 0.412796 -0.203392
C58   C     C_R   0.415196 0.804358 0.597772 -0.203433
C59   C     C_R   0.907127 0.695848 0.087198 -0.203550
C60   C     C_R   0.084815 0.304349 0.902245 -0.203391
H25   H     H_    0.582164 0.319947 0.433983 0.205861
H26   H     H_    0.434689 0.680272 0.588273 0.205626
H27   H     H_    0.917826 0.819928 0.066001 0.205871
H28   H     H_    0.065326 0.180261 0.911751 0.205622
C61   C     C_R   0.628616 0.211903 0.376101 -0.157054
C62   C     C_R   0.379222 0.788467 0.634204 -0.160099
C63   C     C_R   0.871381 0.711894 0.123893 -0.157266
C64   C     C_R   0.120786 0.288459 0.865808 -0.160050
H29   H     H_    0.644011 0.347589 0.369932 0.149718
H30   H     H_    0.371837 0.652765 0.651050 0.151229
H31   H     H_    0.855981 0.847578 0.130054 0.149643
H32   H     H_    0.128172 0.152756 0.848966 0.151247
C65   C     C_R   0.645063 0.054433 0.349006 -0.115148
C66   C     C_R   0.353621 0.945784 0.649096 -0.115251
C67   C     C_R   0.854939 0.554432 0.150996 -0.114969
C68   C     C_R   0.146382 0.445779 0.850907 -0.115291
N1    N     N_R   0.514640 0.166393 0.482966 -0.287417
N2    N     N_R   0.484199 0.833140 0.515242 -0.287267
N3    N     N_R   0.985334 0.666390 0.016999 -0.287424
N4    N     N_R   0.015849 0.333136 0.984820 -0.287254
N5    N     N_R   0.480832 0.156096 0.518240 -0.210606
N6    N     N_R   0.518013 0.843433 0.479956 -0.210858
N7    N     N_R   0.019143 0.656094 0.981725 -0.210633
N8    N     N_R   0.982036 0.343429 0.020107 -0.210656
C69   C     C_R   0.464626 0.989376 0.535125 0.515067
C70   C     C_R   0.533960 0.010197 0.462746 0.515042
C71   C     C_R   0.035385 0.489372 0.964888 0.514998
C72   C     C_R   0.966051 0.510193 0.037266 0.515238
O21   O     O_3   0.567914 0.690946 0.402634 -0.545281
C73   C     C_3   0.532890 0.641143 0.350793 -0.244711
H33   H     H_    0.551676 0.616800 0.312176 0.119917
H34   H     H_    0.502808 0.747572 0.339216 0.131092
H35   H     H_    0.514583 0.509271 0.359734 0.178221
O22   O     O_3   0.409498 0.308933 0.566987 -0.544928
C74   C     C_3   0.369391 0.360477 0.520656 -0.243083
H36   H     H_    0.334675 0.387856 0.538334 0.116058
H37   H     H_    0.362222 0.253702 0.484578 0.130915
H38   H     H_    0.379592 0.491138 0.500158 0.178745
O23   O     O_3   0.932119 0.190967 0.097372 -0.545194
C75   C     C_3   0.966839 0.140387 0.149390 -0.244998
H39   H     H_    0.947713 0.114461 0.187626 0.120195
H40   H     H_    0.996775 0.247072 0.161607 0.130686
H41   H     H_    0.985396 0.009182 0.140326 0.178357
O24   O     O_3   0.090512 0.808931 0.933013 -0.544957
C76   C     C_3   0.130579 0.860271 0.979421 -0.242996
H42   H     H_    0.165364 0.887256 0.961844 0.115987
H43   H     H_    0.137612 0.753549 0.015522 0.131033
H44   H     H_    0.120414 0.991099 0.999851 0.178737

loop_
_geom_bond_atom_site_label_1
_geom_bond_atom_site_label_2
_ccdc_geom_bond_type
N1    C70   A    
O17   V3    S    
C74   H38   S    
C51   C55   A    
O1    C5    A    
C56   C71   S    
O19   V1    S    
C9    C21   A    
C16   H16   S    
O3    C7    A    
O23   C75   S    
C10   C18   A    
C75   H41   S    
O1    V3    S    
O15   V3    S    
C25   C33   A    
C33   C38   A    
C5    C12   S    
C53   C70   S    
C52   O24   S    
O7    C3    A    
C6    C11   S    
C38   H18   S    
C35   C40   A    
C26   C30   A    
C58   C62   A    
C36   C39   A    
C40   C44   A    
C57   C61   A    
C75   H40   S    
C23   H8    S    
C14   C18   A    
N7    C71   A    
C48   C68   A    
C58   H26   S    
O4    C8    A    
C25   C29   A    
C44   H4    S    
N2    N6    A    
C74   H36   S    
C48   H24   S    
C1    C68   S    
O13   V1    S    
O2    V4    S    
O3    V1    S    
C57   H25   S    
C28   C36   A    
C1    O15   A    
C52   C56   A    
C15   C31   A    
C4    C65   S    
N2    C69   A    
C2    O16   A    
C16   C32   A    
O2    C6    A    
C54   C58   A    
C10   C22   A    
C76   H43   S    
C11   C19   A    
C16   C20   A    
C43   H3    S    
N8    C72   A    
C13   C29   A    
C34   C37   A    
O11   C7    A    
C11   C23   A    
C35   C36   A    
O12   C8    A    
C47   C67   A    
C14   H14   S    
C45   H21   S    
C46   C66   A    
C24   H7    S    
C13   H13   S    
N6    C70   A    
O10   V2    S    
N4    N8    A    
C49   O21   S    
C46   H22   S    
O5    V1    S    
C53   C57   A    
C39   C43   A    
O7    V3    S    
C38   C42   A    
C26   C34   A    
C63   C67   A    
C75   H39   S    
C2    C67   S    
N4    C71   A    
C17   H10   S    
O18   V4    S    
C15   C19   A    
C19   H12   S    
C50   C54   A    
O4    V2    S    
C64   H32   S    
C45   C49   A    
C21   H6    S    
O8    V4    S    
C55   C72   S    
O5    C1    A    
C37   C41   A    
C31   C43   A    
C14   C30   A    
C21   C25   A    
O8    C4    A    
C7    C10   S    
O9    C5    A    
N3    C72   A    
C76   H44   S    
C59   C63   A    
C62   H30   S    
C37   H17   S    
C61   H29   S    
O6    V2    S    
C63   H31   S    
N1    N5    A    
O14   V2    S    
N5    C69   A    
C12   C20   A    
C3    C66   S    
C27   C35   A    
C56   C60   A    
C29   C41   A    
C48   C52   A    
O16   V4    S    
O9    V1    S    
C74   H37   S    
C51   O23   S    
C3    O13   A    
C64   C68   A    
C39   H19   S    
C59   H27   S    
C20   H11   S    
C73   H35   S    
O6    C2    A    
C23   C27   A    
O11   V3    S    
C73   H34   S    
O12   V4    S    
O21   C73   S    
C22   C26   A    
C8    C9    S    
C9    C17   A    
O10   C6    A    
N3    N7    A    
O20   V2    S    
C54   C69   S    
C15   H15   S    
C32   C44   A    
C60   C64   A    
C33   C34   A    
C42   H2    S    
C45   C65   A    
C41   H1    S    
C46   C50   A    
C12   C24   A    
C27   C31   A    
C13   C17   A    
C49   C53   A    
C73   H33   S    
C47   H23   S    
C62   C66   A    
C60   H28   S    
C24   C28   A    
C61   C65   A    
O24   C76   S    
C18   H9    S    
C4    O14   A    
O22   C74   S    
C55   C59   A    
C47   C51   A    
C76   H42   S    
C30   C42   A    
C40   H20   S    
C22   H5    S    
C50   O22   S    
C28   C32   A    
