data_mof_unit_46161.cif
_audit_creation_date              2012-12-11T17:06:30-0500
_audit_creation_method            fapswitch 2.2
_symmetry_space_group_name_H-M    P1
_symmetry_Int_Tables_number       1
_space_group_crystal_system       triclinic
_cell_length_a                    6.960049
_cell_length_b                    14.522324
_cell_length_c                    15.965116
_cell_angle_alpha                 90.489319
_cell_angle_beta                  90.041852
_cell_angle_gamma                 89.99812
_cell_volume                      1613.63216955

loop_
_atom_site_label
_atom_site_type_symbol
_atom_type_description
_atom_site_fract_x
_atom_site_fract_y
_atom_site_fract_z
_atom_type_partial_charge
O1    O     O_R   0.494400 0.415450 0.412630 -0.537427
O2    O     O_R   0.823940 0.405730 0.586760 -0.544059
O3    O     O_R   0.994240 0.584550 0.587370 -0.536445
C1    C     C_R   0.655220 0.383618 0.615327 0.697537
O4    O     O_R   0.824110 0.404430 0.413240 -0.544114
O5    O     O_R   0.994420 0.583240 0.412620 -0.539803
C2    C     C_R   0.655303 0.382192 0.384278 0.692137
O6    O     O_R   0.494230 0.416760 0.587380 -0.537260
O7    O     O_3   0.660800 0.558670 0.500000 -0.367659
V1    V     V_3+5 0.935650 0.489120 0.500000 1.386799
O8    O     O_R   0.324140 0.594270 0.413240 -0.538982
C3    C     C_R   0.155077 0.615885 0.384074 0.694713
O9    O     O_R   0.323960 0.595570 0.586760 -0.541397
C4    C     C_R   0.155258 0.617577 0.615612 0.687284
V2    V     V_3+5 0.435660 0.510880 0.500000 1.398076
O10   O     O_3   0.160640 0.441330 0.500000 -0.373133
C5    C     C_3   0.059123 0.666723 0.772951 -0.170262
C6    C     C_3   0.230966 0.717390 0.813293 0.001764
H1    H     H_    0.999370 0.599649 0.793299 0.111174
C7    C     C_3   0.121123 0.808746 0.810416 -0.045818
C8    C     C_3   0.947879 0.759347 0.769642 -0.116027
C9    C     C_3   0.033784 0.778569 0.681857 -0.131904
C10   C     C_3   0.206988 0.828530 0.723332 -0.156096
C11   C     C_3   0.318885 0.736104 0.726515 -0.149953
C12   C     C_3   0.145080 0.686955 0.685961 -0.017113
H2    H     H_    0.795084 0.769174 0.787528 0.118074
H3    H     H_    0.952071 0.803545 0.626800 0.100178
H4    H     H_    0.267343 0.895548 0.703211 0.101656
H5    H     H_    0.471851 0.726096 0.708960 0.110824
C13   C     C_R   0.273408 0.814772 0.238979 0.093775
C14   C     C_R   0.118641 0.814923 0.182775 -0.106760
C15   C     C_R   0.966804 0.753355 0.198636 -0.169316
H6    H     H_    0.844173 0.750912 0.157175 0.140560
C16   C     C_R   0.977806 0.689754 0.264703 -0.174755
H7    H     H_    0.862717 0.640533 0.272289 0.129648
C17   C     C_R   0.141338 0.685490 0.316748 -0.110783
C18   C     C_R   0.284764 0.751560 0.304104 0.100191
C19   C     C_3   0.495143 0.738466 0.291759 -0.408007
C20   C     C_3   0.482887 0.807675 0.221148 -0.395178
H8    H     H_    0.530071 0.667586 0.269830 0.171273
H9    H     H_    0.580186 0.763664 0.346273 0.172658
H10   H     H_    0.511448 0.777168 0.158279 0.185510
H11   H     H_    0.560125 0.873070 0.234976 0.163404
C21   C     C_R   0.493743 0.316150 0.741611 0.108506
C22   C     C_R   0.647715 0.317322 0.685168 -0.113476
C23   C     C_R   0.799045 0.254866 0.699040 -0.181367
H12   H     H_    0.921242 0.253351 0.657362 0.132107
C24   C     C_R   0.787764 0.189135 0.763166 -0.179254
H13   H     H_    0.902310 0.139334 0.769298 0.125890
C25   C     C_R   0.624464 0.183702 0.815042 -0.111876
C26   C     C_R   0.482182 0.250856 0.804845 0.108343
C27   C     C_3   0.271172 0.239384 0.792921 -0.409811
C28   C     C_3   0.283678 0.310991 0.724327 -0.399864
H14   H     H_    0.187922 0.263144 0.848426 0.179430
H15   H     H_    0.234005 0.169498 0.769093 0.163077
H16   H     H_    0.208509 0.376350 0.740348 0.170226
H17   H     H_    0.252874 0.282886 0.660747 0.168678
C29   C     C_R   0.493124 0.315558 0.256595 0.105656
C30   C     C_R   0.647355 0.316176 0.313064 -0.112823
C31   C     C_R   0.798954 0.254164 0.297368 -0.180106
H18   H     H_    0.921331 0.252236 0.338971 0.132092
C32   C     C_R   0.787865 0.189462 0.231298 -0.178758
H19   H     H_    0.902606 0.139882 0.223822 0.126349
C33   C     C_R   0.624541 0.184624 0.179141 -0.111339
C34   C     C_R   0.481713 0.251267 0.191442 0.108437
C35   C     C_3   0.270967 0.239057 0.203209 -0.409792
C36   C     C_3   0.283271 0.309504 0.273895 -0.399460
H20   H     H_    0.234764 0.168687 0.224995 0.164240
H21   H     H_    0.187014 0.263544 0.148492 0.179236
H22   H     H_    0.253395 0.280241 0.336662 0.168431
H23   H     H_    0.207181 0.374907 0.259902 0.171589
O11   O     O_R   0.771650 0.079500 0.908680 -0.540401
O12   O     O_R   0.441690 0.091800 0.082800 -0.540724
O13   O     O_R   0.271460 0.912980 0.083410 -0.535118
C37   C     C_R   0.610734 0.113906 0.111916 0.692238
O14   O     O_R   0.441930 0.090510 0.909280 -0.541304
O15   O     O_R   0.271690 0.911670 0.908660 -0.536140
C38   C     C_R   0.610930 0.112584 0.880668 0.694808
O16   O     O_R   0.771410 0.080810 0.083440 -0.540771
O17   O     O_3   0.605100 0.937580 0.996050 -0.364628
V3    V     V_3+5 0.330220 0.007110 0.996030 1.410126
O18   O     O_R   0.941980 0.900620 0.909250 -0.540925
C39   C     C_R   0.110728 0.878488 0.880533 0.686061
O19   O     O_R   0.941740 0.901920 0.082770 -0.544507
C40   C     C_R   0.110586 0.880008 0.111669 0.698997
V4    V     V_3+5 0.830220 0.985300 0.996000 1.408660
O20   O     O_3   0.105210 0.054870 0.996020 -0.371619
C41   C     C_1   0.339800 0.683868 0.885608 0.264387
N1    N     N_1   0.425691 0.657581 0.942691 -0.368486

loop_
_geom_bond_atom_site_label_1
_geom_bond_atom_site_label_2
_ccdc_geom_bond_type
C35   H20   S    
C8    H2    S    
C14   C40   S    
C1    O6    A    
C22   C23   A    
C21   C22   A    
C32   H19   S    
C6    C11   S    
C17   C18   A    
O19   V4    S    
O5    C3    A    
C19   C20   S    
C35   H21   S    
O15   C39   A    
V2    O10   S    
C31   C32   A    
C16   H7    S    
O12   V3    S    
C11   H5    S    
C32   C33   A    
O8    V2    S    
C21   C28   S    
C9    C12   S    
O17   V4    S    
C10   C11   S    
O1    V2    S    
C3    C17   S    
O7    V1    S    
C6    C7    S    
C27   H15   S    
C24   C25   A    
C35   C36   S    
C30   C31   A    
O13   C40   A    
C8    C9    S    
O12   C37   A    
C25   C38   S    
C2    C30   S    
C27   H14   S    
C25   C26   A    
C20   H10   S    
C1    C22   S    
C23   C24   A    
C26   C27   S    
C11   C12   S    
C19   H9    S    
O4    C2    A    
C28   H17   S    
V4    O20   S    
C20   H11   S    
C29   C30   A    
O18   V4    S    
C5    C8    S    
C13   C18   A    
C31   H18   S    
C15   C16   A    
O2    C1    A    
C18   C19   S    
C29   C34   A    
C14   C15   A    
C7    C10   S    
O15   V3    S    
C7    C8    S    
C5    C6    S    
C10   H4    S    
O19   C40   A    
V3    O20   S    
O3    C4    A    
C21   C26   A    
C24   H13   S    
O18   C39   A    
O6    V2    S    
C9    H3    S    
O9    V2    S    
O13   V3    S    
O2    V1    S    
C27   C28   S    
C28   H16   S    
C23   H12   S    
O1    C2    A    
O14   C38   A    
O17   V3    S    
O14   V3    S    
O5    V1    S    
O11   V4    S    
O8    C3    A    
C36   H22   S    
C5    C12   S    
C15   H6    S    
O7    V2    S    
O4    V1    S    
O3    V1    S    
V1    O10   S    
C33   C34   A    
C19   H8    S    
C13   C14   A    
C5    H1    S    
C33   C37   S    
C13   C20   S    
C36   H23   S    
C4    C12   S    
C6    C41   S    
C29   C36   S    
C41   N1    T    
C16   C17   A    
C34   C35   S    
C7    C39   S    
O11   C38   A    
C9    C10   S    
O9    C4    A    
C37   O16   A    
O16   V4    S    
