data_mof_unit_9398.cif
_audit_creation_date              2012-12-10T17:05:41-0500
_audit_creation_method            fapswitch 2.2
_symmetry_space_group_name_H-M    P1
_symmetry_Int_Tables_number       1
_space_group_crystal_system       triclinic
_cell_length_a                    15.89001
_cell_length_b                    11.055832
_cell_length_c                    9.825582
_cell_angle_alpha                 111.482442
_cell_angle_beta                  97.726381
_cell_angle_gamma                 91.104126
_cell_volume                      1587.23611757

loop_
_atom_site_label
_atom_site_type_symbol
_atom_type_description
_atom_site_fract_x
_atom_site_fract_y
_atom_site_fract_z
_atom_type_partial_charge
C1    C     C_R   0.493839 0.253976 0.440186 0.867515
C2    C     C_3   0.950994 0.374746 0.535233 0.087891
C3    C     C_3   0.914865 0.483424 0.482100 0.201602
C4    C     C_3   0.958737 0.615708 0.595643 -0.552942
C5    C     C_3   0.056740 0.613042 0.612394 -0.490899
C6    C     C_1   0.823298 0.490150 0.487547 -0.016005
C7    C     C_1   0.175332 0.493910 0.500536 0.013019
C8    C     C_1   0.251045 0.497680 0.503676 -0.184804
C9    C     C_2   0.491258 0.114456 0.406212 -0.384012
C10   C     C_2   0.499457 0.070833 0.516482 -0.134528
C11   C     C_2   0.510690 0.886914 0.596541 0.087235
C12   C     C_R   0.340375 0.499947 0.501621 0.824177
C13   C     C_2   0.499746 0.931950 0.486433 -0.185876
C14   C     C_2   0.507472 0.510627 0.081219 -0.073783
C15   C     C_2   0.492409 0.489546 0.918843 -0.069183
C16   C     C_R   0.506193 0.746268 0.560119 0.776554
C17   C     C_R   0.659579 0.499683 0.498182 0.828036
C18   C     C_3   0.046441 0.362937 0.512878 0.064890
C19   C     C_3   0.037852 0.490661 0.339985 0.022266
C20   C     C_3   0.937757 0.466919 0.324294 0.049486
C21   C     C_1   0.748477 0.495489 0.493005 -0.200897
C22   C     C_3   0.082507 0.487985 0.492212 0.218977
Cu1   Cu    Cu3+1 0.514650 0.521810 0.644910 0.937336
Cu2   Cu    Cu3+1 0.485350 0.478190 0.355090 0.940525
H1    H     H_    0.947012 0.407751 0.655497 0.154511
H2    H     H_    0.939138 0.696340 0.558739 0.186519
H3    H     H_    0.489599 0.865132 0.371435 0.152651
H4    H     H_    0.506195 0.138763 0.630596 0.216903
H5    H     H_    0.483562 0.047539 0.291445 0.154552
H6    H     H_    0.442674 0.417385 0.846204 0.162680
H7    H     H_    0.556983 0.583146 0.153957 0.155380
H8    H     H_    0.583902 0.621767 0.934019 0.188243
H9    H     H_    0.047304 0.280951 0.407389 0.132065
H10   H     H_    0.416717 0.377216 0.065709 0.195020
H11   H     H_    0.048158 0.593635 0.349051 0.106667
H12   H     H_    0.909086 0.546209 0.293093 0.100795
H13   H     H_    0.081945 0.621266 0.725981 0.201434
H14   H     H_    0.084342 0.701835 0.601526 0.175965
H15   H     H_    0.938502 0.637817 0.705995 0.190778
N1    N     N_2   0.463320 0.445430 0.137380 -0.280568
N2    N     N_2   0.536720 0.554500 0.862620 -0.286541
O1    O     O_R   0.507820 0.332330 0.577400 -0.579190
O2    O     O_R   0.483070 0.295500 0.332660 -0.572595
O3    O     O_R   0.391820 0.518430 0.622420 -0.575194
O4    O     O_R   0.367070 0.481600 0.377680 -0.561638
O5    O     O_R   0.516930 0.704500 0.667340 -0.572742
O6    O     O_R   0.492180 0.667670 0.422600 -0.592363
O7    O     O_R   0.632930 0.518400 0.622320 -0.567987
O8    O     O_R   0.608180 0.481570 0.377580 -0.575428
N3    N     N_2   0.900610 0.250409 0.458560 -0.421435
H16   H     H_    0.914223 0.193701 0.355637 0.277511
C23   C     C_3   0.882107 0.176757 0.547466 -0.742671
H17   H     H_    0.837682 0.090796 0.478870 0.231750
H18   H     H_    0.850985 0.237548 0.641745 0.238014
H19   H     H_    0.941459 0.142314 0.589650 0.220165
N4    N     N_2   0.098007 0.323875 0.622984 -0.431853
H20   H     H_    0.082363 0.229782 0.613155 0.250113
C24   C     C_3   0.121335 0.412630 0.775164 -0.691215
H21   H     H_    0.150070 0.358222 0.842835 0.219476
H22   H     H_    0.065041 0.457537 0.823185 0.206241
H23   H     H_    0.170701 0.488015 0.782887 0.238993
N5    N     N_2   0.525148 0.973747 0.747974 -0.429695
H24   H     H_    0.495685 0.941101 0.816779 0.263096
C25   C     C_3   0.613750 0.016512 0.806422 -0.700022
H25   H     H_    0.618918 0.089071 0.921279 0.229012
H26   H     H_    0.641632 0.063409 0.738501 0.237842
H27   H     H_    0.650507 0.932356 0.807932 0.223649
N6    N     N_2   0.076288 0.417127 0.208846 -0.425721
H28   H     H_    0.055471 0.438864 0.116892 0.239141
C26   C     C_3   0.098820 0.283743 0.174639 -0.684065
H29   H     H_    0.126371 0.250453 0.070044 0.215078
H30   H     H_    0.042285 0.217021 0.158601 0.220406
H31   H     H_    0.148334 0.276650 0.261598 0.235799
N7    N     N_2   0.904421 0.342715 0.206110 -0.424862
H32   H     H_    0.928998 0.327968 0.110027 0.268887
C27   C     C_3   0.812671 0.316772 0.168036 -0.701244
H33   H     H_    0.796490 0.237000 0.057629 0.210518
H34   H     H_    0.781600 0.404626 0.163212 0.225920
H35   H     H_    0.786672 0.282288 0.247553 0.264678

loop_
_geom_bond_atom_site_label_1
_geom_bond_atom_site_label_2
_ccdc_geom_bond_type
C5    H13   S    
C2    C18   S    
C19   C20   S    
C27   H35   S    
C14   H7    S    
C11   N5    S    
C7    C8    T    
Cu1   O1    S    
N7    C27   S    
H10   N1    S    
Cu2   O4    S    
C27   H34   S    
C24   H22   S    
N4    H20   S    
N5    C25   S    
C2    N3    S    
C1    O2    A    
C5    C22   S    
N6    H28   S    
N3    C23   S    
H8    N2    S    
C17   O7    A    
C26   H29   S    
C9    C10   D    
C23   H19   S    
C9    H5    S    
C3    C6    S    
C24   H23   S    
Cu1   O5    S    
C5    H14   S    
C16   O6    A    
C23   H18   S    
N7    H32   S    
C25   H27   S    
C3    C20   S    
C19   C22   S    
C1    C9    S    
C27   H33   S    
C15   N2    D    
C16   O5    A    
C12   O4    A    
C24   H21   S    
C6    C21   T    
C17   C21   S    
Cu1   O3    S    
C25   H26   S    
N5    H24   S    
C11   C16   S    
C4    H15   S    
C8    C12   S    
C26   H31   S    
N3    H16   S    
C20   N7    S    
C19   N6    S    
C17   O8    A    
C3    C4    S    
C23   H17   S    
C15   H6    S    
C10   H4    S    
Cu2   O8    S    
Cu1   O7    S    
C18   C22   S    
Cu2   O6    S    
C4    C5    S    
C10   C13   S    
C4    H2    S    
C18   N4    S    
C7    C22   S    
Cu1   N2    S    
C25   H25   S    
C2    C3    S    
C12   O3    A    
C19   H11   S    
C11   C13   D    
Cu2   N1    S    
N4    C24   S    
C2    H1    S    
C18   H9    S    
Cu1   Cu2   S    
C14   N1    D    
C20   H12   S    
C1    O1    A    
N6    C26   S    
Cu2   O2    S    
C14   C15   S    
C13   H3    S    
C26   H30   S    
