data_mof_unit_43583.cif
_audit_creation_date              2012-12-10T19:11:31-0500
_audit_creation_method            fapswitch 2.2
_symmetry_space_group_name_H-M    P1
_symmetry_Int_Tables_number       1
_space_group_crystal_system       triclinic
_cell_length_a                    7.784307
_cell_length_b                    9.097083
_cell_length_c                    17.38337
_cell_angle_alpha                 89.99932
_cell_angle_beta                  86.08405
_cell_angle_gamma                 89.99965
_cell_volume                      1228.12043143

loop_
_atom_site_label
_atom_site_type_symbol
_atom_type_description
_atom_site_fract_x
_atom_site_fract_y
_atom_site_fract_z
_atom_type_partial_charge
C1    C     C_R   0.499999 0.779976 0.500004 0.849510
C2    C     C_R   0.500001 0.220025 0.499997 0.846383
C3    C     C_1   0.499999 0.934635 0.500002 -0.175455
C4    C     C_1   0.500000 0.065367 0.500001 -0.176548
C5    C     C_R   0.478061 0.498075 0.650267 0.815429
C6    C     C_R   0.522061 0.501767 0.349740 0.815542
C7    C     C_R   0.467696 0.489112 0.734379 -0.097027
C8    C     C_R   0.533788 0.508612 0.265587 -0.095459
C9    C     C_R   0.619765 0.487465 0.773004 -0.195085
C10   C     C_R   0.383254 0.521350 0.226292 -0.199310
C11   C     C_R   0.612783 0.477476 0.852554 -0.238503
C12   C     C_R   0.393119 0.530997 0.146598 -0.231239
C13   C     C_R   0.453468 0.469087 0.895222 0.082235
C14   C     C_R   0.553474 0.524858 0.104697 0.073505
C15   C     C_R   0.300108 0.463499 0.856842 0.531091
C16   C     C_R   0.705422 0.511795 0.143467 0.522521
C17   C     C_R   0.307980 0.477529 0.776425 -0.279753
C18   C     C_R   0.694770 0.506274 0.224100 -0.281098
C19   C     C_2   0.445981 0.463541 0.979747 -0.197228
C20   C     C_2   0.563166 0.531183 0.020344 -0.186484
Cu1   Cu    Cu3+1 0.330920 0.500000 0.500000 0.999653
Cu2   Cu    Cu3+1 0.669080 0.500000 0.500000 0.999578
H1    H     H_    0.275145 0.545094 0.117863 0.188469
H2    H     H_    0.732851 0.474973 0.880292 0.180068
H3    H     H_    0.744899 0.493923 0.741841 0.174020
H4    H     H_    0.257595 0.525776 0.257091 0.174221
H5    H     H_    0.812244 0.499820 0.253932 0.167082
H6    H     H_    0.189496 0.479205 0.747183 0.166604
H7    H     H_    0.670554 0.590070 0.991652 0.196026
H8    H     H_    0.339839 0.404533 0.009304 0.172629
N1    N     N_1   0.923170 0.500000 0.500010 -0.053907
N2    N     N_1   0.076830 0.500000 0.499990 -0.053852
O1    O     O_R   0.357240 0.711600 0.500000 -0.576862
O2    O     O_R   0.642760 0.288400 0.500000 -0.578074
O3    O     O_R   0.642760 0.711600 0.500000 -0.576721
O4    O     O_R   0.357240 0.288400 0.500000 -0.578046
O5    O     O_R   0.340660 0.500000 0.613590 -0.589257
O6    O     O_R   0.659340 0.500000 0.386410 -0.589498
O7    O     O_R   0.626230 0.500000 0.613600 -0.590641
O8    O     O_R   0.373770 0.500000 0.386400 -0.590224
O9    O     O_3   0.142468 0.456862 0.898614 -0.579580
C21   C     C_3   0.070423 0.316404 0.888748 -0.381041
H9    H     H_    0.952719 0.306254 0.928062 0.198990
H10   H     H_    0.160217 0.227394 0.904150 0.162149
H11   H     H_    0.031411 0.301209 0.828906 0.171395
O10   O     O_3   0.864045 0.510185 0.102368 -0.581302
C22   C     C_3   0.932391 0.366764 0.104424 -0.338249
H12   H     H_    0.841357 0.283902 0.083252 0.160891
H13   H     H_    0.968780 0.337715 0.163278 0.159454
H14   H     H_    0.051142 0.362418 0.065606 0.202996

loop_
_geom_bond_atom_site_label_1
_geom_bond_atom_site_label_2
_ccdc_geom_bond_type
C2    C4    S    
C5    C7    S    
C5    O5    A    
C11   C13   A    
O9    C21   S    
C19   C20   D    
C10   H4    S    
C13   C15   A    
C9    H3    S    
C22   H13   S    
Cu1   O4    S    
Cu1   Cu2   S    
Cu2   O3    S    
C9    C11   A    
C12   H1    S    
C1    O3    A    
Cu1   O8    S    
C21   H10   S    
Cu2   O7    S    
C10   C12   A    
C16   C18   A    
C12   C14   A    
C22   H14   S    
C6    O8    A    
C20   H7    S    
C5    O7    A    
Cu2   O2    S    
Cu1   N2    S    
C14   C16   A    
Cu1   O1    S    
C21   H9    S    
C13   C19   S    
C2    O4    A    
C3    C4    T    
Cu2   O6    S    
C22   H12   S    
C7    C9    A    
C11   H2    S    
Cu1   O5    S    
C15   O9    S    
C14   C20   S    
C8    C10   A    
Cu2   N1    S    
C16   O10   S    
C1    C3    S    
C15   C17   A    
O10   C22   S    
C6    C8    S    
C17   H6    S    
C2    O2    A    
C19   H8    S    
C6    O6    A    
N1    N2    T    
C8    C18   A    
C18   H5    S    
C1    O1    A    
C7    C17   A    
C21   H11   S    
