data_mof_unit_42068.cif
_audit_creation_date              2012-12-10T18:13:29-0500
_audit_creation_method            fapswitch 2.2
_symmetry_space_group_name_H-M    P1
_symmetry_Int_Tables_number       1
_space_group_crystal_system       triclinic
_cell_length_a                    12.575306
_cell_length_b                    13.115197
_cell_length_c                    16.771937
_cell_angle_alpha                 91.249798
_cell_angle_beta                  97.955317
_cell_angle_gamma                 97.929156
_cell_volume                      2710.98322745

loop_
_atom_site_label
_atom_site_type_symbol
_atom_type_description
_atom_site_fract_x
_atom_site_fract_y
_atom_site_fract_z
_atom_type_partial_charge
C1    C     C_R   0.560656 0.691792 0.514843 0.851514
C2    C     C_R   0.620501 0.538473 0.241616 -0.254810
C3    C     C_R   0.590927 0.615620 0.859030 -0.172029
C4    C     C_R   0.587182 0.581618 0.779472 -0.161429
C5    C     C_R   0.393689 0.527052 0.768202 -0.210625
C6    C     C_R   0.394384 0.556066 0.848836 -0.016507
C7    C     C_R   0.494488 0.600432 0.894996 -0.181876
C8    C     C_2   0.546684 0.522267 0.017513 -0.205050
C9    C     C_2   0.505595 0.602576 0.983545 0.512384
C10   C     C_R   0.489906 0.535869 0.734838 -0.067894
C11   C     C_R   0.282400 0.062194 0.545216 -0.166686
C12   C     C_R   0.512907 0.495271 0.349424 0.935616
C13   C     C_R   0.401144 0.199462 0.495564 -0.050402
C14   C     C_R   0.709736 0.844961 0.526473 -0.026149
C15   C     C_R   0.734419 0.950253 0.516039 -0.150824
C16   C     C_R   0.654133 0.013215 0.511358 -0.203226
C17   C     C_R   0.547081 0.973613 0.522663 0.087522
C18   C     C_R   0.524421 0.869864 0.542407 0.080852
C19   C     C_R   0.462674 0.034905 0.517732 0.084077
C20   C     C_R   0.363121 0.998144 0.545134 0.156705
C21   C     C_R   0.347332 0.899546 0.574469 -0.243205
C22   C     C_R   0.427021 0.836246 0.573431 -0.172397
C23   C     C_R   0.439252 0.308503 0.491373 0.909814
C24   C     C_R   0.475312 0.132627 0.486813 -0.238600
C25   C     C_R   0.302447 0.163813 0.522238 -0.194845
C26   C     C_R   0.600453 0.802577 0.531715 -0.200320
C27   C     C_R   0.893913 0.335063 0.602176 -0.114579
C28   C     C_R   0.209726 0.627496 0.405016 0.029871
C29   C     C_R   0.106030 0.651277 0.382341 -0.207865
C30   C     C_R   0.020169 0.599791 0.416351 -0.196618
C31   C     C_R   0.038315 0.524859 0.474347 0.019374
C32   C     C_R   0.144954 0.501916 0.493712 0.248900
C33   C     C_R   0.955249 0.471587 0.513162 -0.021816
C34   C     C_R   0.488095 0.507267 0.650615 0.841954
C35   C     C_R   0.978134 0.390908 0.566056 0.108239
C36   C     C_R   0.084918 0.370915 0.583596 -0.220250
C37   C     C_R   0.166371 0.425717 0.548165 -0.224112
C38   C     C_R   0.850064 0.496937 0.502607 0.001472
C39   C     C_R   0.792129 0.366620 0.589482 -0.030771
C40   C     C_R   0.522085 0.492857 0.264180 -0.131242
C41   C     C_R   0.436119 0.447758 0.205505 -0.065648
C42   C     C_R   0.448904 0.456095 0.124649 -0.138556
C43   C     C_R   0.545639 0.505214 0.102436 0.104054
C44   C     C_R   0.634304 0.544141 0.160832 -0.002491
H1    H     H_    0.243625 0.215214 0.528921 0.161709
H2    H     H_    0.273314 0.871207 0.598113 0.162866
H3    H     H_    0.206464 0.035372 0.566759 0.165344
H4    H     H_    0.545225 0.160710 0.458683 0.154612
H5    H     H_    0.680220 0.093939 0.504235 0.147436
H6    H     H_    0.816921 0.984489 0.511903 0.194928
H7    H     H_    0.412903 0.761689 0.599489 0.177340
H8    H     H_    0.725111 0.326221 0.615617 0.172857
H9    H     H_    0.660796 0.591874 0.751853 0.193698
H10   H     H_    0.107966 0.315033 0.626692 0.192124
H11   H     H_    0.825539 0.557478 0.465064 0.134137
H12   H     H_    0.277021 0.666489 0.378516 0.148003
H13   H     H_    0.940940 0.619215 0.395088 0.170762
H14   H     H_    0.092049 0.708715 0.338170 0.174243
H15   H     H_    0.245736 0.406306 0.564627 0.205272
H16   H     H_    0.318734 0.492444 0.731928 0.189292
H17   H     H_    0.686553 0.570784 0.287637 0.192913
H18   H     H_    0.572026 0.462758 0.981155 0.143885
H19   H     H_    0.383215 0.424021 0.078315 0.207429
N1    N     N_R   0.774070 0.445420 0.541180 -0.108852
N2    N     N_R   0.226730 0.554050 0.459240 -0.133532
O1    O     O_R   0.631480 0.627510 0.519670 -0.582392
O2    O     O_R   0.455770 0.662400 0.493360 -0.622227
O3    O     O_R   0.598240 0.480510 0.398910 -0.622985
O4    O     O_R   0.422540 0.515400 0.372600 -0.591611
O5    O     O_R   0.544230 0.337600 0.506640 -0.625400
O6    O     O_R   0.368520 0.372490 0.480330 -0.617604
O7    O     O_R   0.577460 0.484600 0.627400 -0.597332
O8    O     O_R   0.401760 0.519490 0.601090 -0.647984
Zn1   Zn    Zn3+2 0.617320 0.476700 0.517570 0.983059
Zn2   Zn    Zn3+2 0.382680 0.523300 0.482430 0.950409
C45   C     C_2   0.334691 0.388605 0.226168 0.924065
O9    O     O_2   0.248932 0.388867 0.181768 -0.589500
O10   O     O_R   0.337491 0.329533 0.294645 -0.807181
H20   H     H_    0.263348 0.292629 0.301909 0.350714
C46   C     C_2   0.290322 0.531745 0.882563 0.876614
O11   O     O_2   0.289647 0.520781 0.954662 -0.612878
O12   O     O_R   0.191826 0.519312 0.830639 -0.793354
H21   H     H_    0.126758 0.502364 0.860027 0.373753
C47   C     C_2   0.802208 0.785330 0.536380 0.924882
O13   O     O_2   0.813038 0.727327 0.592132 -0.600139
O14   O     O_R   0.881765 0.801883 0.485706 -0.814093
H22   H     H_    0.944087 0.761545 0.501420 0.339552
C48   C     C_2   0.906053 0.242303 0.650069 0.890560
O15   O     O_2   0.961165 0.178754 0.630331 -0.643589
O16   O     O_R   0.848990 0.224812 0.715508 -0.785809
H23   H     H_    0.861668 0.158214 0.742438 0.358389
O17   O     O_3   0.472290 0.677013 0.032004 -0.612776
C49   C     C_3   0.423023 0.752997 0.987830 0.112271
H24   H     H_    0.340796 0.720025 0.957989 0.176851
H25   H     H_    0.471696 0.785757 0.941577 0.111074
C50   C     C_3   0.411680 0.840600 0.046187 -0.317993
H26   H     H_    0.362307 0.809683 0.092674 0.244294
H27   H     H_    0.493374 0.874443 0.076943 0.235990
C51   C     C_3   0.357476 0.924883 0.002451 -0.911454
H28   H     H_    0.406594 0.958300 0.956681 0.266157
H29   H     H_    0.350466 0.987157 0.046531 0.275260
H30   H     H_    0.274869 0.893085 0.972345 0.276840
C52   C     C_2   0.741012 0.591418 0.140125 0.954844
O18   O     O_2   0.768641 0.570359 0.075387 -0.575713
O19   O     O_R   0.811879 0.658061 0.196112 -0.803575
H31   H     H_    0.882381 0.684338 0.175623 0.362454
C53   C     C_2   0.699354 0.656834 0.904847 0.997124
O20   O     O_2   0.778671 0.617546 0.893006 -0.521693
O21   O     O_R   0.714043 0.740220 0.960473 -0.735108
H32   H     H_    0.648019 0.776186 0.959517 0.299243

loop_
_geom_bond_atom_site_label_1
_geom_bond_atom_site_label_2
_ccdc_geom_bond_type
C12   O4    A    
C30   H13   S    
C49   H24   S    
C25   H1    S    
C4    H9    S    
C53   O21   S    
C41   C42   A    
C11   H3    S    
C35   C36   A    
C18   C26   A    
C8    C43   S    
C14   C47   S    
C28   H12   S    
C39   N1    A    
C12   O3    A    
C28   C29   A    
C45   O10   S    
C3    C7    A    
C5    C6    A    
C33   C35   A    
C11   C25   A    
O3    Zn1   S    
C15   C16   A    
O1    Zn1   S    
C50   C51   S    
C13   C23   S    
C15   H6    S    
C17   C19   A    
C47   O13   D    
C52   O19   S    
C38   H11   S    
C19   C20   A    
C2    C44   A    
C16   C17   A    
C50   H27   S    
O5    Zn1   S    
C53   O20   D    
C31   C33   A    
C2    H17   S    
C48   O15   D    
C39   H8    S    
C49   H25   S    
C18   C22   A    
C21   C22   A    
O8    Zn2   S    
C23   O5    A    
C13   C25   A    
C9    O17   S    
C44   C52   S    
C1    O1    A    
C38   N1    A    
C11   C20   A    
C24   H4    S    
C23   O6    A    
C45   O9    D    
C46   O12   S    
C27   C39   A    
O14   H22   S    
C8    C9    D    
C27   C35   A    
C28   N2    A    
C14   C26   A    
C13   C24   A    
C12   C40   S    
C43   C44   A    
C29   C30   A    
C6    C46   S    
C31   C32   A    
C50   H26   S    
C20   C21   A    
C17   C18   A    
C10   C34   S    
C32   C37   A    
C16   H5    S    
C37   H15   S    
O7    Zn1   S    
C40   C41   A    
C51   H29   S    
C48   O16   S    
C49   C50   S    
C1    C26   S    
O2    Zn2   S    
C42   C43   A    
C4    C10   A    
C3    C4    A    
C34   O7    A    
C21   H2    S    
C7    C9    S    
C36   C37   A    
C5    H16   S    
O10   H20   S    
C47   O14   S    
C46   O11   D    
C6    C7    A    
O19   H31   S    
C33   C38   A    
N2    Zn2   S    
C51   H28   S    
C3    C53   S    
C19   C24   A    
C5    C10   A    
O21   H32   S    
C41   C45   S    
O6    Zn2   S    
O16   H23   S    
C30   C31   A    
O17   C49   S    
C1    O2    A    
O4    Zn2   S    
C27   C48   S    
C36   H10   S    
C34   O8    A    
C2    C40   A    
C51   H30   S    
C29   H14   S    
O12   H21   S    
C52   O18   D    
N1    Zn1   S    
C14   C15   A    
C32   N2    A    
C42   H19   S    
C8    H18   S    
C22   H7    S    
