data_mof_unit_39389.cif
_audit_creation_date              2012-12-10T19:00:13-0500
_audit_creation_method            fapswitch 2.2
_symmetry_space_group_name_H-M    P1
_symmetry_Int_Tables_number       1
_space_group_crystal_system       triclinic
_cell_length_a                    9.624335
_cell_length_b                    10.884097
_cell_length_c                    13.29626
_cell_angle_alpha                 91.860451
_cell_angle_beta                  73.23705
_cell_angle_gamma                 89.968067
_cell_volume                      1332.85190857

loop_
_atom_site_label
_atom_site_type_symbol
_atom_type_description
_atom_site_fract_x
_atom_site_fract_y
_atom_site_fract_z
_atom_type_partial_charge
C1    C     C_R   0.502085 0.737125 0.496555 0.880562
C2    C     C_R   0.438409 0.520407 0.979632 0.091617
C3    C     C_R   0.429023 0.464376 0.883306 -0.203482
C4    C     C_R   0.516563 0.456554 0.039436 -0.081557
C5    C     C_R   0.552002 0.329282 0.016228 -0.199553
C6    C     C_R   0.520052 0.271533 0.929400 0.657565
C7    C     C_R   0.462613 0.337195 0.862769 0.101056
C8    C     C_R   0.564566 0.515460 0.119874 0.621511
C9    C     C_R   0.638962 0.320889 0.171430 0.074971
C10   C     C_R   0.381472 0.536332 0.812386 -0.246684
C11   C     C_R   0.376615 0.937404 0.522598 -0.127772
C12   C     C_R   0.422916 0.506150 0.699664 0.836488
C13   C     C_R   0.506839 0.870554 0.494727 -0.108152
C14   C     C_R   0.640363 0.935316 0.471149 0.096407
C15   C     C_R   0.639286 0.063960 0.473730 0.155072
C16   C     C_R   0.505895 0.129340 0.496910 -0.119023
C17   C     C_R   0.376481 0.064350 0.522971 -0.168919
C18   C     C_3   0.252484 0.069914 0.476642 0.985191
C19   C     C_3   0.251993 0.930715 0.476217 1.006894
C20   C     C_R   0.952891 0.421327 0.434330 0.122895
C21   C     C_R   0.896837 0.565696 0.574388 0.244010
C22   C     C_R   0.043652 0.565490 0.574389 0.275940
C23   C     C_R   0.501615 0.262708 0.497563 0.842903
C24   C     C_R   0.099671 0.421737 0.434174 0.134513
C25   C     C_3   0.151518 0.415474 0.317340 0.329098
C26   C     C_3   0.994301 0.413930 0.317286 0.354357
C27   C     C_R   0.576834 0.493905 0.300015 0.917431
C28   C     C_R   0.616597 0.262776 0.081950 0.140148
C29   C     C_R   0.611566 0.447077 0.190970 -0.186957
C30   C     C_R   0.324250 0.654296 0.842908 0.611207
C31   C     C_R   0.308551 0.701281 0.943590 0.030932
C32   C     C_R   0.362375 0.634607 0.013737 0.097316
Cu1   Cu    Cu3+1 0.359330 0.500020 0.500010 1.066788
Cu2   Cu    Cu3+1 0.640670 0.499980 0.499990 0.980133
H1    H     H_    0.214781 0.330580 0.284397 0.171559
H2    H     H_    0.959619 0.494715 0.281112 0.133611
N1    N     N_R   0.852320 0.499070 0.499340 -0.255005
N2    N     N_R   0.148230 0.499110 0.499340 -0.205321
O1    O     O_R   0.381190 0.680360 0.500000 -0.536310
O2    O     O_R   0.618780 0.680320 0.499990 -0.637443
O3    O     O_R   0.323230 0.500000 0.650990 -0.592805
O4    O     O_R   0.560820 0.499960 0.650980 -0.607101
O5    O     O_R   0.381220 0.319680 0.500010 -0.552729
O6    O     O_R   0.618810 0.319640 0.500000 -0.538404
O7    O     O_R   0.439180 0.500040 0.349020 -0.510100
O8    O     O_R   0.676770 0.500000 0.349010 -0.578868
N3    N     N_3   0.680516 0.249400 0.246929 -0.506053
H3    H     H_    0.600159 0.183971 0.274293 0.242391
H4    H     H_    0.776491 0.201969 0.208365 0.300075
N4    N     N_3   0.775275 0.127395 0.447102 -0.476706
H5    H     H_    0.832140 0.103551 0.499926 0.287430
H6    H     H_    0.836007 0.098359 0.371468 0.286679
F1    F     F_    0.129713 0.124402 0.544864 -0.637991
F2    F     F_    0.289898 0.117730 0.377173 -0.678340
F3    F     F_    0.128002 0.883064 0.543872 -0.632119
F4    F     F_    0.288452 0.875713 0.376469 -0.629275
N5    N     N_3   0.797018 0.632212 0.659808 -0.524729
H7    H     H_    0.722863 0.683833 0.635462 0.268015
H8    H     H_    0.746652 0.571407 0.718037 0.241399
N6    N     N_3   0.075665 0.632206 0.659281 -0.470657
H9    H     H_    0.167230 0.685545 0.632849 0.335154
H10   H     H_    0.084493 0.571109 0.716023 0.242822
F5    F     F_    0.217912 0.522660 0.277737 -0.651784
F6    F     F_    0.544996 0.149659 0.905938 -0.651530
F7    F     F_    0.958239 0.302013 0.280541 -0.665552
N7    N     N_3   0.653537 0.134486 0.064170 -0.541855
H11   H     H_    0.559635 0.083696 0.069748 0.295649
H12   H     H_    0.729116 0.120955 0.990376 0.291374
F8    F     F_    0.576285 0.639391 0.127047 -0.651594
F9    F     F_    0.287587 0.726743 0.773074 -0.651242
N8    N     N_3   0.323930 0.676187 0.121719 -0.400228
H13   H     H_    0.210781 0.679910 0.150595 0.252133
H14   H     H_    0.362589 0.765345 0.126180 0.282926
N9    N     N_3   0.240495 0.819632 0.972476 -0.476579
H15   H     H_    0.313360 0.878723 0.994076 0.253327
H16   H     H_    0.148476 0.810862 0.036685 0.223645
N10   N     N_3   0.424702 0.266903 0.781471 -0.493928
H17   H     H_    0.501158 0.281163 0.709456 0.229429
H18   H     H_    0.320092 0.290438 0.779782 0.229447
N11   N     N_3   0.779581 0.874674 0.436952 -0.553350
H19   H     H_    0.799705 0.829713 0.499565 0.277920
H20   H     H_    0.783330 0.813559 0.373887 0.249707

loop_
_geom_bond_atom_site_label_1
_geom_bond_atom_site_label_2
_ccdc_geom_bond_type
C19   F4    S    
N7    H12   S    
C27   C29   S    
Cu2   N1    S    
Cu1   O7    S    
C2    C4    A    
Cu2   O4    S    
C4    C8    A    
N3    H4    S    
N10   H17   S    
C11   C19   S    
C8    F8    S    
Cu1   O1    S    
N9    H16   S    
Cu2   O2    S    
C8    C29   A    
N6    H10   S    
C3    C7    A    
C22   N6    S    
C30   C31   A    
N5    H8    S    
C15   C16   A    
C22   N2    A    
C23   O5    A    
C2    C32   A    
C18   C19   S    
C25   F5    S    
C15   N4    S    
C6    F6    S    
C12   O4    A    
C1    O2    A    
C31   C32   A    
C16   C17   A    
C24   N2    A    
Cu2   O8    S    
C14   N11   S    
C18   F1    S    
C9    C29   A    
C7    N10   S    
C27   O7    A    
N7    H11   S    
C13   C14   A    
C30   F9    S    
N4    H5    S    
C32   N8    S    
N10   H18   S    
N9    H15   S    
Cu1   O5    S    
C20   C24   A    
Cu2   O6    S    
C24   C25   S    
N11   H20   S    
N8    H14   S    
C1    O1    A    
C4    C5    A    
C31   N9    S    
C25   C26   S    
C23   O6    A    
N6    H9    S    
C28   N7    S    
C21   N5    S    
C12   O3    A    
C5    C28   A    
C10   C30   A    
N4    H6    S    
N3    H3    S    
C17   C18   S    
C10   C12   S    
C25   H1    S    
C27   O8    A    
C26   H2    S    
C9    N3    S    
C16   C23   S    
C1    C13   S    
C19   F3    S    
C11   C17   A    
C26   F7    S    
N11   H19   S    
C6    C7    A    
Cu1   N2    S    
Cu1   O3    S    
C2    C3    A    
N8    H13   S    
C3    C10   A    
C20   N1    A    
C11   C13   A    
N5    H7    S    
C5    C6    A    
C20   C26   S    
Cu1   Cu2   S    
C18   F2    S    
C21   N1    A    
C14   C15   A    
C21   C22   A    
C9    C28   A    
