data_mof_unit_16233.cif
_audit_creation_date              2012-12-11T14:30:06-0500
_audit_creation_method            fapswitch 2.2
_symmetry_space_group_name_H-M    P1
_symmetry_Int_Tables_number       1
_space_group_crystal_system       triclinic
_cell_length_a                    13.615758
_cell_length_b                    13.615695
_cell_length_c                    26.485649
_cell_angle_alpha                 89.999462
_cell_angle_beta                  90.000228
_cell_angle_gamma                 120.0003
_cell_volume                      4252.27728328

loop_
_atom_site_label
_atom_site_type_symbol
_atom_type_description
_atom_site_fract_x
_atom_site_fract_y
_atom_site_fract_z
_atom_type_partial_charge
C1    C     C_R   0.559469 0.456392 0.820807 0.553970
C2    C     C_R   0.896942 0.440543 0.679199 0.553957
C3    C     C_R   0.543609 0.103081 0.820809 0.553974
C4    C     C_R   0.559460 0.456398 0.679198 0.553963
C5    C     C_R   0.896919 0.440528 0.820809 0.553974
C6    C     C_R   0.543602 0.103065 0.679198 0.553967
C7    C     C_R   0.456388 0.559472 0.320810 0.553983
C8    C     C_R   0.440537 0.896935 0.179197 0.553963
C9    C     C_R   0.103088 0.543612 0.320812 0.553986
C10   C     C_R   0.456397 0.559464 0.179196 0.553974
C11   C     C_R   0.440527 0.896917 0.320809 0.553974
C12   C     C_R   0.103063 0.543602 0.179197 0.553964
C13   C     C_R   0.996627 0.499754 0.973499 -0.016795
C14   C     C_R   0.503036 0.003191 0.526535 -0.016804
C15   C     C_R   0.500230 0.496889 0.973493 -0.016797
C16   C     C_R   0.996873 0.499886 0.526545 -0.016802
C17   C     C_R   0.503119 0.003368 0.973498 -0.016796
C18   C     C_R   0.500125 0.496967 0.526539 -0.016806
C19   C     C_R   0.499740 0.996607 0.473503 -0.016795
C20   C     C_R   0.003206 0.503046 0.026531 -0.016807
C21   C     C_R   0.496838 0.500261 0.473508 -0.016799
C22   C     C_R   0.499830 0.996786 0.026530 -0.016806
C23   C     C_R   0.003457 0.503169 0.473513 -0.016797
C24   C     C_R   0.496938 0.500178 0.026525 -0.016805
C25   C     C_R   0.980790 0.669077 0.974614 0.051620
C26   C     C_R   0.688158 0.018953 0.525414 0.051676
C27   C     C_R   0.330907 0.311726 0.974612 0.051644
C28   C     C_R   0.981081 0.669231 0.525416 0.051682
C29   C     C_R   0.688277 0.019204 0.974615 0.051619
C30   C     C_R   0.330766 0.311838 0.525419 0.051667
C31   C     C_R   0.669034 0.980719 0.474622 0.051660
C32   C     C_R   0.019019 0.688194 0.025407 0.051662
C33   C     C_R   0.311654 0.330964 0.474626 0.051634
C34   C     C_R   0.669162 0.980968 0.025407 0.051652
C35   C     C_R   0.019314 0.688341 0.474623 0.051635
C36   C     C_R   0.311791 0.330840 0.025404 0.051653
C37   C     C_R   0.946757 0.559719 0.896815 -0.145493
C38   C     C_R   0.612882 0.053057 0.603214 -0.145460
C39   C     C_R   0.440267 0.387048 0.896811 -0.145486
C40   C     C_R   0.946988 0.559862 0.603221 -0.145423
C41   C     C_R   0.612954 0.053241 0.896815 -0.145505
C42   C     C_R   0.440151 0.387115 0.603219 -0.145434
C43   C     C_R   0.559694 0.946724 0.396821 -0.145497
C44   C     C_R   0.053063 0.612892 0.103213 -0.145428
C45   C     C_R   0.387004 0.440308 0.396824 -0.145499
C46   C     C_R   0.559808 0.946915 0.103210 -0.145448
C47   C     C_R   0.053321 0.612992 0.396827 -0.145513
C48   C     C_R   0.387093 0.440202 0.103206 -0.145456
C49   C     C_R   0.041944 0.521429 0.130692 0.011980
C50   C     C_R   0.479427 0.957955 0.369334 0.011985
C51   C     C_R   0.478562 0.520526 0.130687 0.011985
C52   C     C_R   0.042073 0.521486 0.369343 0.011987
C53   C     C_R   0.479476 0.958047 0.130690 0.011975
C54   C     C_R   0.478511 0.520567 0.369338 0.011988
C55   C     C_R   0.521426 0.041944 0.630693 0.011991
C56   C     C_R   0.957965 0.479435 0.869331 0.011993
C57   C     C_R   0.520502 0.478573 0.630697 0.011990
C58   C     C_R   0.521467 0.042032 0.869331 0.011988
C59   C     C_R   0.958083 0.479505 0.630701 0.011990
C60   C     C_R   0.520554 0.478537 0.869327 0.011992
C61   C     C_R   0.976524 0.578056 0.948013 0.020205
C62   C     C_R   0.601424 0.023248 0.552020 0.020200
C63   C     C_R   0.421926 0.398482 0.948009 0.020210
C64   C     C_R   0.976807 0.578215 0.552027 0.020225
C65   C     C_R   0.601523 0.023470 0.948013 0.020205
C66   C     C_R   0.421794 0.398576 0.552025 0.020218
C67   C     C_R   0.578028 0.976482 0.448019 0.020212
C68   C     C_R   0.023274 0.601441 0.052016 0.020225
C69   C     C_R   0.398423 0.421973 0.448023 0.020209
C70   C     C_R   0.578150 0.976707 0.052014 0.020219
C71   C     C_R   0.023574 0.601577 0.448026 0.020196
C72   C     C_R   0.398541 0.421858 0.052010 0.020213
C73   C     C_R   0.009222 0.423402 0.892312 0.201704
C74   C     C_R   0.414135 0.990710 0.607719 0.201750
C75   C     C_R   0.576587 0.585829 0.892306 0.201701
C76   C     C_R   0.009323 0.423452 0.607730 0.201767
C77   C     C_R   0.414177 0.990773 0.892311 0.201706
C78   C     C_R   0.576555 0.585865 0.607722 0.201760
C79   C     C_R   0.423398 0.009217 0.392314 0.201667
C80   C     C_R   0.990708 0.414136 0.107716 0.201727
C81   C     C_R   0.585801 0.576585 0.392320 0.201681
C82   C     C_R   0.423424 0.009292 0.107715 0.201732
C83   C     C_R   0.990812 0.414197 0.392328 0.201665
C84   C     C_R   0.585854 0.576576 0.107710 0.201723
C85   C     C_R   0.010595 0.419013 0.946160 0.010026
C86   C     C_R   0.408365 0.989314 0.553873 0.010050
C87   C     C_R   0.580976 0.591594 0.946154 0.010027
C88   C     C_R   0.010737 0.419085 0.553886 0.010066
C89   C     C_R   0.408413 0.989402 0.946159 0.010033
C90   C     C_R   0.580925 0.591637 0.553877 0.010060
C91   C     C_R   0.419010 0.010595 0.446163 0.010018
C92   C     C_R   0.989311 0.408366 0.053870 0.010040
C93   C     C_R   0.591562 0.580982 0.446168 0.010020
C94   C     C_R   0.419048 0.010687 0.053869 0.010039
C95   C     C_R   0.989453 0.408442 0.446177 0.010012
C96   C     C_R   0.591624 0.580954 0.053864 0.010038
C97   C     C_R   0.985299 0.318278 0.026027 0.155312
C98   C     C_R   0.332999 0.014721 0.474012 0.155327
C99   C     C_R   0.681717 0.667024 0.026021 0.155317
C100  C     C_R   0.985310 0.318298 0.474028 0.155314
C101  C     C_R   0.332978 0.014704 0.026025 0.155312
C102  C     C_R   0.681703 0.666996 0.474014 0.155311
C103  C     C_R   0.318291 0.985329 0.526034 0.155324
C104  C     C_R   0.014687 0.332982 0.974005 0.155309
C105  C     C_R   0.667021 0.681706 0.526037 0.155304
C106  C     C_R   0.318291 0.985312 0.974003 0.155306
C107  C     C_R   0.014705 0.332984 0.526050 0.155308
C108  C     C_R   0.667014 0.681714 0.973998 0.155306
Cr1   Cr    Cr6+3 0.487630 0.241180 0.750000 1.111399
Cr2   Cr    Cr6+3 0.753550 0.512370 0.750000 1.111401
Cr3   Cr    Cr6+3 0.758820 0.246450 0.750000 1.111396
Cr4   Cr    Cr6+3 0.241180 0.487630 0.250000 1.111393
Cr5   Cr    Cr6+3 0.512370 0.753550 0.250000 1.111387
Cr6   Cr    Cr6+3 0.246450 0.758820 0.250000 1.111392
H1    H     H_    0.086870 0.693166 0.122390 0.154771
H2    H     H_    0.606122 0.912871 0.377647 0.154740
H3    H     H_    0.306818 0.393746 0.122383 0.154768
H4    H     H_    0.087169 0.693271 0.377650 0.154739
H5    H     H_    0.606267 0.913100 0.122386 0.154773
H6    H     H_    0.306722 0.393883 0.377650 0.154743
H7    H     H_    0.693154 0.086869 0.622392 0.154760
H8    H     H_    0.912917 0.606158 0.877640 0.154747
H9    H     H_    0.393690 0.306839 0.622395 0.154773
H10   H     H_    0.693229 0.087079 0.877639 0.154748
H11   H     H_    0.913175 0.606326 0.622396 0.154776
H12   H     H_    0.393830 0.306766 0.877637 0.154746
O1    O     O_R   0.460870 0.120930 0.805240 -0.457795
O2    O     O_R   0.660060 0.539130 0.694760 -0.457775
O3    O     O_R   0.879070 0.339940 0.805240 -0.457803
O4    O     O_R   0.460870 0.120930 0.694760 -0.457778
O5    O     O_R   0.660060 0.539130 0.805240 -0.457800
O6    O     O_R   0.879070 0.339940 0.694760 -0.457788
O7    O     O_R   0.120930 0.460870 0.305240 -0.457799
O8    O     O_R   0.539130 0.660060 0.194760 -0.457780
O9    O     O_R   0.339940 0.879070 0.305240 -0.457801
O10   O     O_R   0.120930 0.460870 0.194760 -0.457780
O11   O     O_R   0.539130 0.660060 0.305240 -0.457799
O12   O     O_R   0.339940 0.879070 0.194760 -0.457773
O13   O     O_R   0.498910 0.350470 0.801870 -0.506718
O14   O     O_R   0.851560 0.501090 0.698130 -0.506707
O15   O     O_R   0.649530 0.148440 0.801870 -0.506717
O16   O     O_R   0.498910 0.350470 0.698130 -0.506711
O17   O     O_R   0.851560 0.501090 0.801870 -0.506716
O18   O     O_R   0.649530 0.148440 0.698130 -0.506707
O19   O     O_R   0.350470 0.498910 0.301870 -0.506718
O20   O     O_R   0.501090 0.851560 0.198130 -0.506707
O21   O     O_R   0.148440 0.649530 0.301870 -0.506717
O22   O     O_R   0.350470 0.498910 0.198130 -0.506704
O23   O     O_R   0.501090 0.851560 0.301870 -0.506718
O24   O     O_R   0.148440 0.649530 0.198130 -0.506704
O25   O     O_3   0.666667 0.333333 0.750000 -0.335102
O26   O     O_3   0.333333 0.666667 0.250000 -0.335112
C109  C     C_3   0.063240 0.799720 0.051464 -0.299239
H13   H     H_    0.055644 0.863308 0.029421 0.237271
H14   H     H_    0.019812 0.791276 0.087901 0.212671
H15   H     H_    0.153519 0.830240 0.059926 0.156692
C110  C     C_3   0.736419 0.936616 0.448537 -0.299286
H16   H     H_    0.807609 0.944209 0.470578 0.237226
H17   H     H_    0.676716 0.846348 0.440035 0.156589
H18   H     H_    0.771408 0.980127 0.412118 0.212688
C111  C     C_3   0.200281 0.263502 0.051472 -0.299232
H19   H     H_    0.136686 0.192312 0.029429 0.237275
H20   H     H_    0.208745 0.228520 0.087902 0.212693
H21   H     H_    0.169751 0.323245 0.059943 0.156696
C112  C     C_3   0.063371 0.799818 0.448528 -0.299288
H22   H     H_    0.055765 0.863416 0.470565 0.237238
H23   H     H_    0.153640 0.830407 0.440019 0.156611
H24   H     H_    0.019845 0.791262 0.412110 0.212679
C113  C     C_3   0.736489 0.936776 0.051469 -0.299245
H25   H     H_    0.807676 0.944372 0.029424 0.237268
H26   H     H_    0.771477 0.980215 0.087900 0.212688
H27   H     H_    0.676741 0.846501 0.059937 0.156691
C114  C     C_3   0.200168 0.263579 0.448541 -0.299300
H28   H     H_    0.136573 0.192392 0.470585 0.237228
H29   H     H_    0.169606 0.323281 0.440037 0.156571
H30   H     H_    0.208689 0.228594 0.412123 0.212684
C115  C     C_3   0.799673 0.063124 0.551480 -0.299173
H31   H     H_    0.863262 0.055466 0.529458 0.237303
H32   H     H_    0.830237 0.153425 0.559921 0.156812
H33   H     H_    0.791178 0.019711 0.587928 0.212640
C116  C     C_3   0.936702 0.736472 0.948529 -0.299270
H34   H     H_    0.944311 0.807671 0.970570 0.237254
H35   H     H_    0.980201 0.771443 0.912108 0.212689
H36   H     H_    0.846432 0.676775 0.940034 0.156654
C117  C     C_3   0.263448 0.200317 0.551478 -0.299207
H37   H     H_    0.192249 0.136725 0.529438 0.237283
H38   H     H_    0.323206 0.169794 0.559932 0.156752
H39   H     H_    0.228483 0.208760 0.587916 0.212680
C118  C     C_3   0.799761 0.063314 0.948533 -0.299275
H40   H     H_    0.863352 0.055712 0.970573 0.237253
H41   H     H_    0.791238 0.019825 0.912110 0.212681
H42   H     H_    0.830326 0.153585 0.940040 0.156633
C119  C     C_3   0.936851 0.736532 0.551469 -0.299209
H43   H     H_    0.944441 0.807718 0.529425 0.237276
H44   H     H_    0.846573 0.676758 0.559922 0.156737
H45   H     H_    0.980257 0.771516 0.587906 0.212691
C120  C     C_3   0.263529 0.200233 0.948531 -0.299263
H46   H     H_    0.192334 0.136633 0.970572 0.237257
H47   H     H_    0.228554 0.208744 0.912108 0.212689
H48   H     H_    0.323244 0.169679 0.940041 0.156641
Br1   Br    Br    0.898991 0.287857 0.152109 -0.307648
Br2   Br    Br    0.388829 0.100920 0.347918 -0.307574
Br3   Br    Br    0.712129 0.611123 0.152101 -0.307646
Br4   Br    Br    0.899089 0.287914 0.347938 -0.307595
Br5   Br    Br    0.388830 0.100986 0.152112 -0.307628
Br6   Br    Br    0.712072 0.611101 0.347932 -0.307588
Br7   Br    Br    0.287860 0.898979 0.652108 -0.307654
Br8   Br    Br    0.100997 0.388913 0.847929 -0.307607
Br9   Br    Br    0.611086 0.712139 0.652113 -0.307649
Br10  Br    Br    0.287904 0.899023 0.847921 -0.307595
Br11  Br    Br    0.101103 0.388981 0.652116 -0.307659
Br12  Br    Br    0.611120 0.712103 0.847915 -0.307589
Br13  Br    Br    0.944999 0.178144 0.057998 -0.532444
Br14  Br    Br    0.233279 0.055198 0.442063 -0.532456
Br15  Br    Br    0.821857 0.766847 0.057991 -0.532413
Br16  Br    Br    0.944798 0.178094 0.442083 -0.532481
Br17  Br    Br    0.233152 0.055009 0.057993 -0.532454
Br18  Br    Br    0.821887 0.766721 0.442055 -0.532480
Br19  Br    Br    0.178170 0.945061 0.558009 -0.532463
Br20  Br    Br    0.055097 0.233225 0.942039 -0.532452
Br21  Br    Br    0.766891 0.821816 0.558018 -0.532500
Br22  Br    Br    0.178129 0.944905 0.942039 -0.532487
Br23  Br    Br    0.054920 0.233106 0.558038 -0.532467
Br24  Br    Br    0.766776 0.821883 0.942035 -0.532444

loop_
_geom_bond_atom_site_label_1
_geom_bond_atom_site_label_2
_ccdc_geom_bond_type
C44   C49   A    
C110  H16   S    
C82   C94   A    
C52   C83   A    
C18   C21   A    
C113  H26   S    
C113  H25   S    
C5    C56   S    
C3    O15   A    
Cr6   O26   S    
Cr4   O7    S    
C6    O4    A    
C103  Br19  S    
C50   C79   A    
C26   C115  S    
C117  H38   S    
C111  H19   S    
C116  H34   S    
C78   C90   A    
C120  H48   S    
C31   C67   A    
C99   C108  A    
C20   C92   A    
C77   C89   A    
C112  H22   S    
C21   C93   A    
Cr3   O3    S    
C9    O21   A    
C41   H10   S    
Cr1   O1    S    
Cr1   O25   S    
C48   C72   A    
C41   C58   A    
C54   C81   A    
C11   O9    A    
C24   C96   A    
C4    O16   A    
C108  Br24  S    
C3    O1    A    
C5    O17   A    
C86   C103  A    
C98   C103  A    
C14   C62   A    
C96   C99   A    
C110  H18   S    
Cr4   O19   S    
C102  C105  A    
C8    O12   A    
C84   C96   A    
C102  Br18  S    
C118  H41   S    
C104  Br20  S    
C58   C77   A    
C55   C74   A    
C11   O23   A    
C48   C51   A    
C38   C55   A    
C94   C101  A    
C84   Br3   S    
C119  H44   S    
C27   C120  S    
C4    C57   S    
C42   H9    S    
C2    O6    A    
Cr6   O9    S    
Cr4   O26   S    
C19   C67   A    
Cr1   O16   S    
C32   C109  S    
C109  H14   S    
Cr2   O2    S    
C33   C114  S    
C76   C88   A    
C79   C91   A    
C1    O13   A    
C33   C69   A    
C32   C68   A    
C79   Br2   S    
C25   C32   A    
C116  H35   S    
C98   Br14  S    
C35   C71   A    
C26   C31   A    
C110  H17   S    
C40   C59   A    
C97   Br13  S    
C22   C94   A    
Cr5   O26   S    
C120  H46   S    
C9    C52   S    
Cr4   O10   S    
C6    C55   S    
C10   C51   S    
C14   C19   A    
C42   C57   A    
C111  H20   S    
C25   C116  S    
C92   C97   A    
C12   C49   S    
C107  Br23  S    
C74   Br7   S    
C114  H29   S    
C24   C72   A    
C16   C88   A    
C75   Br12  S    
C87   C108  A    
C45   C69   A    
C18   C90   A    
C30   C117  S    
C12   O24   A    
C42   C66   A    
C14   C86   A    
Cr2   O25   S    
C1    C60   S    
C7    O11   A    
C88   C107  A    
C4    O2    A    
C2    C59   S    
C117  H39   S    
C41   C65   A    
C115  H32   S    
C114  H28   S    
C29   C34   A    
C44   H1    S    
C118  H40   S    
Cr4   O22   S    
C21   C69   A    
C53   C82   A    
C47   H4    S    
Cr5   O20   S    
C80   C92   A    
C118  H42   S    
C43   C67   A    
C20   C68   A    
Cr5   O23   S    
C43   H2    S    
C81   C93   A    
C80   Br1   S    
C115  H33   S    
C83   C95   A    
C28   C119  S    
C17   C89   A    
Cr2   O5    S    
C25   C61   A    
C31   C110  S    
C74   C86   A    
C109  H15   S    
C85   C104  A    
C78   Br9   S    
C47   C71   A    
C30   C66   A    
C34   C113  S    
C27   C63   A    
C37   C56   A    
C29   C65   A    
C39   C60   A    
C77   Br10  S    
C45   H6    S    
C75   C87   A    
C15   C24   A    
C73   Br8   S    
C45   C54   A    
C115  H31   S    
C112  H24   S    
Cr5   O8    S    
C36   C111  S    
C113  H27   S    
Cr5   O11   S    
C5    O3    A    
C44   C68   A    
C18   C66   A    
Cr6   O24   S    
C6    O18   A    
Cr3   O18   S    
C111  H21   S    
C76   Br11  S    
C15   C87   A    
C73   C85   A    
C114  H30   S    
C101  C106  A    
C28   C35   A    
C34   C70   A    
C100  Br16  S    
C100  C107  A    
C56   C73   A    
C116  H36   S    
C30   C33   A    
C95   C100  A    
C93   C102  A    
C57   C78   A    
C13   C20   A    
C8    O20   A    
C10   O8    A    
C90   C105  A    
C83   Br4   S    
C1    O5    A    
Cr3   O25   S    
C8    C53   S    
Cr6   O21   S    
C37   C61   A    
C43   C50   A    
C28   C64   A    
C48   H3    S    
C27   C36   A    
C16   C23   A    
C39   C63   A    
C60   C75   A    
C17   C65   A    
C17   C22   A    
C40   C64   A    
C49   C80   A    
C97   C104  A    
Cr1   O13   S    
C89   C106  A    
C2    O14   A    
C120  H47   S    
C26   C62   A    
C11   C50   S    
C119  H45   S    
C117  H37   S    
C106  Br22  S    
C99   Br15  S    
C105  Br21  S    
C40   H11   S    
C59   C76   A    
C46   C53   A    
Cr2   O14   S    
C35   C112  S    
C23   C95   A    
C46   H5    S    
C29   C118  S    
Cr6   O12   S    
C91   C98   A    
Cr2   O17   S    
C46   C70   A    
C38   H7    S    
C19   C91   A    
Cr3   O15   S    
C37   H8    S    
C3    C58   S    
C101  Br17  S    
Cr3   O6    S    
C13   C61   A    
C23   C71   A    
C112  H23   S    
C119  H43   S    
C12   O10   A    
C13   C85   A    
Cr1   O4    S    
C39   H12   S    
C15   C63   A    
C47   C52   A    
C16   C64   A    
C7    C54   S    
C38   C62   A    
C109  H13   S    
C51   C84   A    
C22   C70   A    
C82   Br5   S    
C36   C72   A    
C10   O22   A    
C81   Br6   S    
C7    O19   A    
C9    O7    A    
