data_mof_unit_26222.cif
_audit_creation_date              2012-12-10T16:56:28-0500
_audit_creation_method            fapswitch 2.2
_symmetry_space_group_name_H-M    P1
_symmetry_Int_Tables_number       1
_space_group_crystal_system       triclinic
_cell_length_a                    7.861709
_cell_length_b                    8.559282
_cell_length_c                    15.684596
_cell_angle_alpha                 91.676046
_cell_angle_beta                  86.840617
_cell_angle_gamma                 93.067062
_cell_volume                      1051.94582899

loop_
_atom_site_label
_atom_site_type_symbol
_atom_type_description
_atom_site_fract_x
_atom_site_fract_y
_atom_site_fract_z
_atom_type_partial_charge
Br1   Br    Br    0.859856 0.429035 0.082461 -0.435234
Br2   Br    Br    0.140144 0.570965 0.917539 -0.435234
Br3   Br    Br    0.038488 0.315303 0.395364 -0.313246
Br4   Br    Br    0.961512 0.684697 0.604636 -0.313246
C1    C     C_R   0.544941 0.794115 0.497908 0.946869
C2    C     C_3   0.385337 0.386419 0.023573 -0.076615
C3    C     C_1   0.513728 0.501062 0.750245 -0.076043
C4    C     C_1   0.486272 0.498937 0.249755 -0.076044
C5    C     C_3   0.349705 0.527017 0.969480 0.288930
C6    C     C_3   0.650294 0.472983 0.030520 0.288930
C7    C     C_3   0.516245 0.501721 0.916575 0.054615
C8    C     C_3   0.483755 0.498280 0.083425 0.054615
C9    C     C_1   0.520141 0.501473 0.825421 0.109353
C10   C     C_1   0.479859 0.498527 0.174579 0.109354
C11   C     C_2   0.742429 0.742266 0.951426 0.530145
C12   C     C_R   0.455059 0.205885 0.502092 0.946869
C13   C     C_2   0.257570 0.257734 0.048574 0.530145
C14   C     C_R   0.503733 0.500450 0.661622 0.879522
C15   C     C_R   0.496267 0.499550 0.338378 0.879522
C16   C     C_2   0.568656 0.957505 0.496703 -0.336663
C17   C     C_2   0.431344 0.042495 0.503297 -0.336663
C18   C     C_3   0.448096 0.640481 0.030397 -0.321284
C19   C     C_3   0.551904 0.359519 0.969603 -0.321284
C20   C     C_3   0.614663 0.613580 0.976427 -0.076615
H1    H     H_    0.404091 0.754194 0.056606 0.190683
H2    H     H_    0.595909 0.245806 0.943393 0.190683
H3    H     H_    0.698845 0.007330 0.490381 0.209021
H4    H     H_    0.301155 0.992670 0.509618 0.209021
H5    H     H_    0.806479 0.810820 0.000543 0.084364
H6    H     H_    0.193521 0.189180 0.999457 0.084364
N1    N     N_2   0.950320 0.457950 0.477300 0.073318
N2    N     N_2   0.049680 0.542050 0.522700 0.073318
O1    O     O_R   0.389250 0.738570 0.505570 -0.607783
O2    O     O_2   0.225145 0.229056 0.123639 -0.513268
O3    O     O_R   0.610750 0.261430 0.494430 -0.607783
O4    O     O_R   0.678390 0.711630 0.491020 -0.596202
O5    O     O_R   0.321610 0.288370 0.508980 -0.596202
O6    O     O_R   0.355460 0.513480 0.630490 -0.586277
O7    O     O_R   0.644540 0.486520 0.369510 -0.586277
O8    O     O_R   0.644600 0.486540 0.615950 -0.588218
O9    O     O_R   0.355400 0.513460 0.384050 -0.588218
O10   O     O_2   0.774855 0.770944 0.876361 -0.513268
Zn1   Zn    Zn3+2 0.306940 0.517990 0.509710 1.084015
Zn2   Zn    Zn3+2 0.693060 0.482010 0.490290 1.084015

loop_
_geom_bond_atom_site_label_1
_geom_bond_atom_site_label_2
_ccdc_geom_bond_type
O5    Zn1   S    
C12   C17   S    
O3    Zn2   S    
C16   H3    S    
C6    C19   S    
C7    C9    S    
O9    Zn1   S    
N1    N2    D    
C3    C9    T    
C12   O5    A    
C3    C14   S    
C2    C5    S    
C14   O6    A    
O6    Zn1   S    
C1    C16   S    
Br3   N1    S    
C13   H6    S    
C5    C7    S    
Br4   N2    S    
C6    C8    S    
C2    C19   S    
C15   O7    A    
C7    C19   S    
C11   C20   S    
N2    Zn1   S    
C8    C10   S    
C11   H5    S    
C12   O3    A    
C2    C8    S    
C18   C20   S    
C5    C18   S    
O4    Zn2   S    
C4    C15   S    
N1    Zn2   S    
O7    Zn2   S    
O1    Zn1   S    
C1    O4    A    
C8    C18   S    
C7    C20   S    
O8    Zn2   S    
C16   C17   D    
C13   O2    D    
C19   H2    S    
C2    C13   S    
C14   O8    A    
C4    C10   T    
C6    C20   S    
Br2   C5    S    
C17   H4    S    
Br1   C6    S    
C15   O9    A    
C11   O10   D    
C18   H1    S    
C1    O1    A    
