data_mof_unit_24165.cif
_audit_creation_date              2012-12-10T18:31:11-0500
_audit_creation_method            fapswitch 2.2
_symmetry_space_group_name_H-M    P1
_symmetry_Int_Tables_number       1
_space_group_crystal_system       triclinic
_cell_length_a                    13.681648
_cell_length_b                    14.928252
_cell_length_c                    15.253079
_cell_angle_alpha                 99.08229
_cell_angle_beta                  92.867832
_cell_angle_gamma                 98.491516
_cell_volume                      3033.96379154

loop_
_atom_site_label
_atom_site_type_symbol
_atom_type_description
_atom_site_fract_x
_atom_site_fract_y
_atom_site_fract_z
_atom_type_partial_charge
C1    C     C_R   0.515330 0.558676 0.663450 0.854852
C2    C     C_R   0.486247 0.395879 0.912033 -0.262285
C3    C     C_R   0.555584 0.668383 0.040448 0.107350
C4    C     C_R   0.446828 0.329108 0.960838 0.082767
C5    C     C_R   0.336279 0.166244 0.615539 -0.296555
C6    C     C_R   0.662480 0.827625 0.376525 -0.309260
C7    C     C_R   0.372259 0.255891 0.606821 -0.020916
C8    C     C_R   0.631007 0.740976 0.395787 0.000514
C9    C     C_R   0.490530 0.205962 0.509945 -0.054159
C10   C     C_R   0.502268 0.793849 0.477518 -0.063480
C11   C     C_R   0.465197 0.115328 0.523891 -0.035184
C12   C     C_R   0.484553 0.441537 0.336911 0.852954
C13   C     C_R   0.525502 0.881426 0.454415 -0.020324
C14   C     C_R   0.379119 0.094480 0.569632 0.140667
C15   C     C_R   0.613049 0.900247 0.410129 0.122026
C16   C     C_R   0.318733 0.514157 0.497328 0.891257
C17   C     C_R   0.681233 0.485944 0.502963 0.886061
C18   C     C_R   0.517250 0.044665 0.487608 -0.026192
C19   C     C_R   0.470283 0.952178 0.482209 -0.021869
C20   C     C_R   0.371368 0.933892 0.508403 0.023142
C21   C     C_R   0.615193 0.062684 0.458435 0.044920
C22   C     C_R   0.331592 0.003571 0.560512 0.084288
C23   C     C_R   0.551433 0.556727 0.905136 -0.007392
C24   C     C_R   0.655382 0.991367 0.408539 0.102749
C25   C     C_1   0.781383 0.476213 0.504155 -0.227767
C26   C     C_1   0.219113 0.525455 0.500955 -0.214210
C27   C     C_2   0.968832 0.461753 0.507344 0.091125
C28   C     C_2   0.032697 0.540595 0.510477 0.078094
C29   C     C_1   0.134871 0.535159 0.505134 -0.055761
C30   C     C_1   0.866091 0.467300 0.505679 -0.036714
C31   C     C_R   0.535236 0.597051 0.759249 -0.160113
C32   C     C_R   0.477626 0.401827 0.241964 -0.172695
C33   C     C_R   0.536124 0.714631 0.891563 0.082256
C34   C     C_R   0.514466 0.432504 0.096663 0.013330
C35   C     C_R   0.401103 0.294020 0.110520 0.073180
C36   C     C_R   0.519036 0.686825 0.797666 0.018671
C37   C     C_R   0.404606 0.326083 0.203184 0.048681
C38   C     C_R   0.569345 0.539837 0.814761 0.010502
C39   C     C_R   0.543261 0.443940 0.187799 0.018639
C40   C     C_3   0.001456 0.634805 0.516103 -0.399077
C41   C     C_3   0.967491 0.652461 0.423857 -0.333646
C42   C     C_3   0.932714 0.745622 0.429745 -0.878462
C43   C     C_3   0.003417 0.368315 0.500403 -0.414130
C44   C     C_3   0.920839 0.288193 0.506797 -0.338044
C45   C     C_R   0.549777 0.648340 0.946252 0.088804
C46   C     C_3   0.961789 0.197996 0.502591 -0.873270
C47   C     C_3   0.649126 0.487288 0.224147 -0.380920
C48   C     C_3   0.726391 0.442318 0.170538 -0.339292
C49   C     C_3   0.831108 0.476918 0.213547 -0.913575
C50   C     C_3   0.639679 0.472922 0.781171 -0.358724
C51   C     C_3   0.736339 0.488443 0.841166 -0.357302
C52   C     C_3   0.809856 0.428826 0.801047 -0.893613
C53   C     C_3   0.327854 0.280168 0.257661 -0.359322
C54   C     C_3   0.360171 0.194480 0.286746 -0.303595
C55   C     C_3   0.286865 0.152525 0.346947 -0.865793
C56   C     C_R   0.454777 0.349239 0.055199 0.056112
C57   C     C_3   0.485638 0.754277 0.741607 -0.392301
C58   C     C_3   0.574698 0.815755 0.712494 -0.309978
C59   C     C_3   0.549158 0.909507 0.700670 -0.909277
C60   C     C_R   0.529922 0.484491 0.954228 0.048741
C61   C     C_R   0.537392 0.504370 0.047576 0.055134
C62   C     C_R   0.551366 0.596773 0.089551 -0.292256
H1    H     H_    0.272793 0.153473 0.654014 0.168573
H2    H     H_    0.993959 0.801662 0.458433 0.264259
H3    H     H_    0.908704 0.756396 0.362077 0.243162
H4    H     H_    0.029752 0.650507 0.379814 0.226077
H5    H     H_    0.905239 0.598354 0.393428 0.229168
H6    H     H_    0.941365 0.641280 0.562059 0.203309
H7    H     H_    0.064901 0.688721 0.544971 0.197463
H8    H     H_    0.994990 0.180980 0.438245 0.259661
H9    H     H_    0.019009 0.203105 0.558221 0.259814
H10   H     H_    0.900889 0.141665 0.508317 0.270380
H11   H     H_    0.885575 0.302169 0.570629 0.231759
H12   H     H_    0.727879 0.837789 0.339940 0.160766
H13   H     H_    0.863475 0.280679 0.450753 0.224411
H14   H     H_    0.037038 0.353737 0.435804 0.202991
H15   H     H_    0.061660 0.371948 0.554985 0.207525
H16   H     H_    0.295622 0.808894 0.522849 0.174265
H17   H     H_    0.329143 0.814901 0.416216 0.201434
H18   H     H_    0.665827 0.175380 0.556103 0.200099
H19   H     H_    0.685667 0.191429 0.447834 0.166658
H20   H     H_    0.502678 0.764246 0.126217 0.186292
H21   H     H_    0.627657 0.774323 0.130811 0.178285
H22   H     H_    0.339894 0.254333 0.871246 0.180906
H23   H     H_    0.546256 0.614485 0.160489 0.159152
H24   H     H_    0.448627 0.213259 0.872619 0.190148
H25   H     H_    0.848725 0.552769 0.219155 0.262621
H26   H     H_    0.838207 0.457814 0.280823 0.259554
H27   H     H_    0.885332 0.445162 0.172005 0.254604
H28   H     H_    0.710452 0.366495 0.166622 0.222964
H29   H     H_    0.723051 0.458104 0.101747 0.226669
H30   H     H_    0.663222 0.562298 0.225151 0.192550
H31   H     H_    0.662603 0.477488 0.294147 0.200617
H32   H     H_    0.777375 0.354966 0.792417 0.263107
H33   H     H_    0.829766 0.446447 0.735408 0.262309
H34   H     H_    0.470174 0.380751 0.840696 0.154034
H35   H     H_    0.878409 0.440796 0.846192 0.252085
H36   H     H_    0.770817 0.561854 0.849719 0.224919
H37   H     H_    0.720809 0.471158 0.907827 0.228693
H38   H     H_    0.604230 0.400345 0.774138 0.201624
H39   H     H_    0.661652 0.483357 0.713943 0.207963
H40   H     H_    0.282391 0.202592 0.408185 0.273894
H41   H     H_    0.212096 0.132188 0.311384 0.253814
H42   H     H_    0.311785 0.090461 0.366431 0.254505
H43   H     H_    0.364999 0.142179 0.227285 0.224017
H44   H     H_    0.434668 0.212431 0.322877 0.227857
H45   H     H_    0.446621 0.778143 0.522539 0.136747
H46   H     H_    0.312232 0.328905 0.316131 0.199287
H47   H     H_    0.255468 0.260269 0.217695 0.197999
H48   H     H_    0.479301 0.901249 0.658140 0.265110
H49   H     H_    0.539774 0.950094 0.766428 0.256172
H50   H     H_    0.609733 0.947738 0.668997 0.262181
H51   H     H_    0.639322 0.826820 0.762235 0.213750
H52   H     H_    0.598383 0.781963 0.648753 0.245967
H53   H     H_    0.435549 0.718841 0.683114 0.195484
H54   H     H_    0.437295 0.797222 0.779451 0.189098
H55   H     H_    0.578823 0.853376 0.902880 0.195843
H56   H     H_    0.540886 0.224452 0.461650 0.130951
H57   H     H_    0.458369 0.820280 0.924554 0.178343
H58   H     H_    0.376212 0.162824 0.042825 0.208725
H59   H     H_    0.280699 0.224620 0.030955 0.203752
H60   H     H_    0.242934 0.933507 0.637496 0.180110
H61   H     H_    0.183787 0.955984 0.544883 0.208188
H62   H     H_    0.770624 0.080330 0.370750 0.200971
H63   H     H_    0.729826 0.986174 0.297463 0.165451
H64   H     H_    0.670001 0.684903 0.372307 0.138380
H65   H     H_    0.337616 0.311839 0.638688 0.137402
H66   H     H_    0.868909 0.748307 0.471863 0.266991
N1    N     N_R   0.445040 0.272490 0.551770 -0.095379
N2    N     N_3   0.746106 0.009987 0.365616 -0.462030
N3    N     N_R   0.554960 0.727510 0.448230 -0.100246
N4    N     N_3   0.304906 0.850239 0.473675 -0.474885
N5    N     N_3   0.682750 0.145600 0.493125 -0.475797
N6    N     N_3   0.563459 0.760487 0.087611 -0.433883
N7    N     N_3   0.398017 0.242446 0.912885 -0.491929
N8    N     N_3   0.531043 0.807386 0.932047 -0.436307
N9    N     N_3   0.335482 0.210618 0.074751 -0.474998
N10   N     N_3   0.237684 0.983263 0.597061 -0.476725
O1    O     O_R   0.527700 0.614770 0.606110 -0.614327
O2    O     O_R   0.472300 0.385230 0.393890 -0.610066
O3    O     O_R   0.492440 0.468680 0.639380 -0.611320
O4    O     O_R   0.507560 0.531320 0.360620 -0.605938
O5    O     O_R   0.379820 0.583550 0.480950 -0.611584
O6    O     O_R   0.620180 0.416450 0.519050 -0.615861
O7    O     O_R   0.344560 0.437460 0.514220 -0.613925
O8    O     O_R   0.655440 0.562540 0.485780 -0.615404
Zn1   Zn    Zn3+2 0.523550 0.597550 0.477790 0.915769
Zn2   Zn    Zn3+2 0.476450 0.402450 0.522210 0.913611

loop_
_geom_bond_atom_site_label_1
_geom_bond_atom_site_label_2
_ccdc_geom_bond_type
H22   N7    S    
C34   C56   A    
C23   C45   A    
C18   C21   A    
C33   C45   A    
C47   H30   S    
C49   H25   S    
C19   C20   A    
C33   N8    S    
O6    Zn2   S    
O2    Zn2   S    
C57   H53   S    
C11   C18   A    
C53   C54   S    
O5    Zn1   S    
C55   H40   S    
O1    Zn1   S    
C17   O6    A    
C28   C29   S    
C35   C37   A    
C11   C14   A    
C2    C60   A    
C28   C40   S    
C55   H41   S    
C52   H35   S    
C1    C31   S    
C33   C36   A    
C5    H1    S    
C52   H33   S    
C18   C19   A    
C41   C42   S    
C32   C39   A    
H59   N9    S    
H16   N4    S    
C10   N3    A    
H21   N6    S    
O3    Zn2   S    
C59   H50   S    
C6    C15   A    
H63   N2    S    
N1    Zn2   S    
C48   H29   S    
C42   H3    S    
C59   H49   S    
C12   O2    A    
N3    Zn1   S    
C46   H10   S    
C1    O1    A    
C42   H66   S    
C37   C53   S    
C51   H36   S    
C48   H28   S    
C12   C32   S    
C27   C30   S    
C51   H37   S    
C9    H56   S    
C49   H26   S    
C10   H45   S    
C44   H11   S    
C20   N4    S    
C7    N1    A    
C21   N5    S    
C44   C46   S    
C6    H12   S    
C57   H54   S    
C16   C26   S    
C23   C60   A    
C62   H23   S    
C46   H9    S    
C40   H7    S    
C54   H44   S    
C51   C52   S    
C16   O5    A    
H60   N10   S    
C41   H5    S    
C36   C57   S    
C5    C7    A    
C13   C19   A    
C6    C8    A    
C58   C59   S    
C55   H42   S    
C3    C45   A    
C34   C61   A    
H18   N5    S    
C34   C39   A    
C60   C61   A    
H20   N6    S    
C44   H13   S    
C2    C4    A    
C43   C44   S    
C27   C43   S    
C58   H51   S    
C47   C48   S    
H61   N10   S    
C8    N3    A    
C50   C51   S    
C47   H31   S    
H62   N2    S    
C16   O7    A    
C32   C37   A    
C52   H32   S    
C9    C11   A    
C5    C14   A    
C26   C29   T    
C4    N7    S    
C8    H64   S    
C15   C24   A    
C20   C22   A    
C13   C15   A    
C42   H2    S    
O7    Zn2   S    
C39   C47   S    
O8    Zn1   S    
C3    C62   A    
C53   H47   S    
C25   C30   T    
C54   C55   S    
C48   C49   S    
C54   H43   S    
C35   C56   A    
O4    Zn1   S    
C49   H27   S    
C10   C13   A    
C59   H48   S    
H19   N5    S    
C41   H4    S    
C38   C50   S    
C9    N1    A    
C43   H15   S    
C23   C38   A    
C22   N10   S    
C50   H38   S    
H57   N8    S    
C31   C38   A    
C3    N6    S    
C17   C25   S    
C14   C22   A    
C2    H34   S    
C17   O8    A    
C35   N9    S    
C53   H46   S    
C57   C58   S    
H17   N4    S    
C12   O4    A    
C61   C62   A    
C46   H8    S    
C1    O3    A    
C24   N2    S    
H24   N7    S    
C50   H39   S    
C40   H6    S    
C21   C24   A    
C27   C28   D    
C58   H52   S    
C31   C36   A    
C43   H14   S    
C40   C41   S    
H58   N9    S    
C7    H65   S    
H55   N8    S    
C4    C56   A    
