data_mof_unit_27180.cif
_audit_creation_date              2012-10-26T19:53:29-0400
_audit_creation_method            fapswitch 2.2
_symmetry_space_group_name_H-M    P1
_symmetry_Int_Tables_number       1
_space_group_crystal_system       triclinic
_cell_length_a                    9.091288
_cell_length_b                    7.812631
_cell_length_c                    10.683317
_cell_angle_alpha                 90.477732
_cell_angle_beta                  89.993685
_cell_angle_gamma                 89.986577
_cell_volume                      758.776255843

loop_
_atom_site_label
_atom_site_type_symbol
_atom_type_description
_atom_site_fract_x
_atom_site_fract_y
_atom_site_fract_z
_atom_type_partial_charge
C1    C     C_R   0.220134 0.500011 0.499984 0.554026
C2    C     C_3   0.631465 0.445194 0.043299 -0.152243
C3    C     C_3   0.502536 0.500770 0.877281 -0.045602
C4    C     C_3   0.497464 0.499230 0.122719 -0.045602
C5    C     C_1   0.065402 0.500015 0.499992 0.012644
C6    C     C_1   0.934598 0.499985 0.500008 0.012644
C7    C     C_R   0.779866 0.499989 0.500016 0.554026
C8    C     C_R   0.497911 0.499541 0.258958 0.580369
C9    C     C_R   0.502089 0.500458 0.741042 0.580369
C10   C     C_3   0.473908 0.658212 0.041857 0.244926
C11   C     C_3   0.526092 0.341788 0.958143 0.244926
C12   C     C_3   0.606503 0.604688 0.961309 0.223289
C13   C     C_3   0.393497 0.395312 0.038691 0.223289
C14   C     C_3   0.368535 0.554806 0.956701 -0.152243
Cl1   Cl    Cl    0.432807 0.866358 0.100922 -0.370479
Cl2   Cl    Cl    0.567193 0.133641 0.899078 -0.370479
Cl3   Cl    Cl    0.750482 0.740345 0.908083 -0.425266
Cl4   Cl    Cl    0.249517 0.259655 0.091917 -0.425266
Cu1   Cu    Cu3+1 0.500000 0.669080 0.500000 1.163832
Cu2   Cu    Cu3+1 0.500000 0.330920 0.500000 1.163832
H1    H     H_    0.261501 0.599939 0.919354 0.186303
H2    H     H_    0.738499 0.400061 0.080646 0.186303
N1    N     N_1   0.500000 0.076820 0.500000 -0.036757
N2    N     N_1   0.500000 0.923180 0.500000 -0.036757
O1    O     O_R   0.288390 0.642760 0.500000 -0.500624
O2    O     O_R   0.711610 0.357240 0.500000 -0.500624
O3    O     O_R   0.711610 0.642760 0.500000 -0.492500
O4    O     O_R   0.288390 0.357240 0.500000 -0.492500
O5    O     O_R   0.499960 0.642760 0.316850 -0.469307
O6    O     O_R   0.500040 0.357240 0.683150 -0.469307
O7    O     O_R   0.500040 0.642760 0.683150 -0.472612
O8    O     O_R   0.499960 0.357240 0.316850 -0.472612

loop_
_geom_bond_atom_site_label_1
_geom_bond_atom_site_label_2
_ccdc_geom_bond_type
C12   Cl3   S    
C2    H2    S    
C1    O4    A    
C2    C4    S    
N1    N2    T    
C6    C7    S    
C3    C9    S    
C3    C14   S    
Cu1   O3    S    
C11   Cl2   S    
Cu1   Cu2   S    
Cu2   N1    S    
C4    C8    S    
C2    C12   S    
Cu1   N2    S    
Cu1   O7    S    
Cu2   O6    S    
C13   C14   S    
C1    O1    A    
C11   C13   S    
C7    O2    A    
C10   C12   S    
C13   Cl4   S    
C1    C5    S    
C8    O5    A    
C9    O6    A    
C14   H1    S    
C10   Cl1   S    
C10   C14   S    
C5    C6    T    
Cu1   O1    S    
C3    C11   S    
C9    O7    A    
C4    C10   S    
Cu1   O5    S    
C7    O3    A    
Cu2   O8    S    
C4    C13   S    
C2    C11   S    
C3    C12   S    
Cu2   O4    S    
Cu2   O2    S    
C8    O8    A    
