data_mof_unit_32095.cif
_audit_creation_date              2012-10-26T19:46:06-0400
_audit_creation_method            fapswitch 2.2
_symmetry_space_group_name_H-M    P1
_symmetry_Int_Tables_number       1
_space_group_crystal_system       triclinic
_cell_length_a                    10.835107
_cell_length_b                    9.515581
_cell_length_c                    15.903217
_cell_angle_alpha                 89.985024
_cell_angle_beta                  90.148949
_cell_angle_gamma                 89.999298
_cell_volume                      1639.65326253

loop_
_atom_site_label
_atom_site_type_symbol
_atom_type_description
_atom_site_fract_x
_atom_site_fract_y
_atom_site_fract_z
_atom_type_partial_charge
C1    C     C_R   0.262055 0.500000 0.499991 0.548025
C2    C     C_R   0.936159 0.627709 0.500249 -0.143247
C3    C     C_R   0.871796 0.499999 0.500227 0.018726
C4    C     C_R   0.128214 0.500001 0.500072 0.018976
C5    C     C_R   0.421938 0.074447 0.448668 0.010809
C6    C     C_R   0.421938 0.925600 0.448667 0.010791
C7    C     C_R   0.500004 0.500023 0.340192 0.551827
C8    C     C_R   0.578069 0.925550 0.551417 0.010109
C9    C     C_R   0.578068 0.074403 0.551418 0.009908
C10   C     C_R   0.737952 0.500000 0.500124 0.547371
C11   C     C_R   0.500144 0.499983 0.659802 0.550935
C12   C     C_3   0.644510 0.506484 0.953244 0.072431
C13   C     C_3   0.423427 0.623742 0.049331 -0.210951
C14   C     C_3   0.453052 0.359002 0.049098 -0.207833
C15   C     C_3   0.435670 0.366788 0.952291 -0.099621
C16   C     C_3   0.426932 0.628153 0.951322 -0.099065
C17   C     C_1   0.501545 0.499955 0.749275 -0.055878
C18   C     C_3   0.503608 0.500925 0.083143 0.029179
C19   C     C_3   0.506293 0.500426 0.917113 0.130932
C20   C     C_3   0.456253 0.223315 0.908728 -0.432018
C21   C     C_3   0.457090 0.776610 0.917420 -0.424722
C22   C     C_3   0.721224 0.629948 0.915989 -0.390936
C23   C     C_3   0.637523 0.522259 0.051386 -0.174388
C24   C     C_3   0.718630 0.371120 0.931877 -0.385097
C25   C     C_1   0.503391 0.500000 0.824692 -0.073259
C26   C     C_1   0.501909 0.500417 0.175214 -0.084497
C27   C     C_1   0.500828 0.500134 0.250651 -0.038548
C28   C     C_R   0.063853 0.372291 0.500125 -0.143084
C29   C     C_R   0.063850 0.627710 0.500147 -0.143027
C30   C     C_R   0.936162 0.372290 0.500227 -0.143130
Cu1   Cu    Cu3+1 0.500020 0.640660 0.500000 0.932328
Cu2   Cu    Cu3+1 0.500020 0.359340 0.500000 0.932039
H1    H     H_    0.330300 0.611121 0.929234 0.115959
H2    H     H_    0.700310 0.446694 0.083627 0.105927
H3    H     H_    0.111879 0.272442 0.500072 0.125820
H4    H     H_    0.111873 0.727560 0.500111 0.125876
H5    H     H_    0.888143 0.272438 0.500267 0.125956
H6    H     H_    0.888138 0.727561 0.500308 0.125914
H7    H     H_    0.359366 0.130581 0.407545 0.105978
H8    H     H_    0.359368 0.869502 0.407544 0.105924
H9    H     H_    0.382935 0.149241 0.929217 0.118249
H10   H     H_    0.448751 0.232652 0.839398 0.147809
H11   H     H_    0.544501 0.172249 0.924641 0.129476
H12   H     H_    0.335137 0.384194 0.941443 0.118765
H13   H     H_    0.370926 0.839755 0.913852 0.118305
H14   H     H_    0.519744 0.835971 0.959577 0.122687
H15   H     H_    0.496711 0.772996 0.853236 0.148747
H16   H     H_    0.691949 0.733451 0.939281 0.119767
H17   H     H_    0.819625 0.622126 0.935335 0.112036
H18   H     H_    0.718328 0.630019 0.846219 0.135267
H19   H     H_    0.703053 0.337956 0.865766 0.137485
H20   H     H_    0.819528 0.386862 0.940326 0.111891
H21   H     H_    0.696320 0.283928 0.975233 0.115186
H22   H     H_    0.640595 0.869413 0.592574 0.104541
H23   H     H_    0.640592 0.130503 0.592575 0.104806
H24   H     H_    0.326352 0.609553 0.070523 0.102690
H25   H     H_    0.362820 0.334146 0.078986 0.104766
H26   H     H_    0.517771 0.272910 0.066461 0.124297
H27   H     H_    0.456001 0.724381 0.077262 0.122147
H28   H     H_    0.669763 0.628076 0.071752 0.109136
N1    N     N_R   0.500030 0.852070 0.500020 -0.222639
N2    N     N_R   0.500030 0.147930 0.500020 -0.222727
O1    O     O_R   0.319660 0.618740 0.500000 -0.509131
O2    O     O_R   0.319660 0.381260 0.500000 -0.509285
O3    O     O_R   0.500020 0.618840 0.379440 -0.496733
O4    O     O_R   0.500020 0.381160 0.379440 -0.496621
O5    O     O_R   0.680370 0.618830 0.500010 -0.509287
O6    O     O_R   0.680370 0.381170 0.500010 -0.509117
O7    O     O_R   0.500010 0.618730 0.620560 -0.497175
O8    O     O_R   0.500010 0.381270 0.620560 -0.497775

loop_
_geom_bond_atom_site_label_1
_geom_bond_atom_site_label_2
_ccdc_geom_bond_type
C24   H20   S    
C3    C30   A    
C20   H10   S    
C11   O7    A    
C16   C21   S    
C13   H27   S    
C10   O6    A    
C16   H1    S    
C7    O3    A    
C14   C18   S    
C22   H16   S    
C4    C29   A    
C18   C26   S    
Cu2   O6    S    
C8    N1    A    
C22   H18   S    
C13   H24   S    
C17   C25   T    
C2    H6    S    
C1    C4    S    
C24   H19   S    
C28   C30   A    
C2    C3    A    
C11   O8    A    
Cu2   N2    S    
C3    C10   S    
C10   O5    A    
C7    O4    A    
Cu1   O5    S    
C29   H4    S    
C26   C27   T    
C15   C20   S    
C13   C18   S    
C2    C29   A    
C14   H26   S    
C5    C6    A    
C1    O1    A    
C6    N1    A    
C15   H12   S    
C4    C28   A    
C12   C19   S    
C5    N2    A    
C20   H9    S    
C21   H13   S    
C5    H7    S    
C9    N2    A    
C16   C19   S    
C23   H28   S    
C19   C25   S    
C12   C22   S    
C6    H8    S    
C9    H23   S    
C8    H22   S    
C18   C23   S    
C1    O2    A    
Cu1   O1    S    
Cu1   O7    S    
C20   H11   S    
C7    C27   S    
Cu2   O2    S    
Cu2   O4    S    
C21   H14   S    
C13   C16   S    
C22   H17   S    
C12   C23   S    
Cu1   O3    S    
C14   H25   S    
Cu1   N1    S    
C14   C15   S    
C11   C17   S    
C23   H2    S    
Cu2   O8    S    
C24   H21   S    
C15   C19   S    
C28   H3    S    
Cu1   Cu2   S    
C12   C24   S    
C30   H5    S    
C8    C9    A    
C21   H15   S    
