data_mof_unit_68311.cif
_audit_creation_date              2012-12-10T18:59:59-0500
_audit_creation_method            fapswitch 2.2
_symmetry_space_group_name_H-M    P1
_symmetry_Int_Tables_number       1
_space_group_crystal_system       triclinic
_cell_length_a                    10.667191
_cell_length_b                    10.788617
_cell_length_c                    9.913132
_cell_angle_alpha                 89.306412
_cell_angle_beta                  91.198034
_cell_angle_gamma                 90.977437
_cell_volume                      1140.35112491

loop_
_atom_site_label
_atom_site_type_symbol
_atom_type_description
_atom_site_fract_x
_atom_site_fract_y
_atom_site_fract_z
_atom_type_partial_charge
C1    C     C_R   0.502299 0.260101 0.501424 0.927023
C2    C     C_R   0.497718 0.739900 0.498576 0.926957
C3    C     C_R   0.871941 0.496807 0.504428 -0.106163
C4    C     C_R   0.128061 0.503113 0.495561 -0.106164
C5    C     C_R   0.940299 0.420397 0.593626 -0.000703
C6    C     C_R   0.059701 0.579492 0.406343 -0.000732
C7    C     C_R   0.492221 0.067818 0.380167 -0.231025
C8    C     C_R   0.507876 0.932186 0.619826 -0.231409
C9    C     C_R   0.486740 0.941262 0.374475 0.449681
C10   C     C_R   0.513356 0.058742 0.625517 0.449525
C11   C     C_R   0.496253 0.872495 0.495983 -0.213269
C12   C     C_R   0.503817 0.127508 0.504012 -0.213047
C13   C     C_R   0.574572 0.581432 0.073027 0.536103
C14   C     C_R   0.425420 0.418574 0.926972 0.535836
C15   C     C_R   0.572852 0.583696 0.929141 -0.165459
C16   C     C_R   0.427144 0.416307 0.070860 -0.165681
C17   C     C_R   0.260523 0.503889 0.498359 0.883324
C18   C     C_R   0.739476 0.496083 0.501641 0.883160
C19   C     C_R   0.148702 0.883760 0.241732 0.007713
C20   C     C_R   0.851618 0.116247 0.758737 0.007765
C21   C     C_R   0.124212 0.793481 0.341437 -0.183809
C22   C     C_R   0.876159 0.206384 0.658893 -0.183946
C23   C     C_R   0.115797 0.667895 0.309092 0.026773
C24   C     C_R   0.884211 0.332050 0.690952 0.026770
C25   C     C_R   0.135294 0.630900 0.176614 -0.096194
C26   C     C_R   0.864376 0.369248 0.823294 -0.095924
C27   C     C_R   0.161819 0.718752 0.074832 -0.039810
C28   C     C_R   0.837813 0.281539 0.925205 -0.039707
C29   C     C_R   0.167083 0.846275 0.107182 0.325095
C30   C     C_R   0.832821 0.153955 0.893133 0.325192
C31   C     C_R   0.931113 0.575846 0.412812 -0.125359
C32   C     C_R   0.068892 0.424045 0.587149 -0.125427
H1    H     H_    0.105095 0.821000 0.443698 0.209536
H2    H     H_    0.895570 0.178713 0.556756 0.209432
H3    H     H_    0.125341 0.533472 0.152349 0.192433
H4    H     H_    0.874095 0.466736 0.847366 0.192185
H5    H     H_    0.876971 0.636536 0.347205 0.224152
H6    H     H_    0.123043 0.363371 0.652761 0.224171
H7    H     H_    0.486426 0.119305 0.286106 0.241610
H8    H     H_    0.513670 0.880699 0.713886 0.241692
N1    N     N_R   0.499970 0.499970 0.857200 -0.201106
N2    N     N_R   0.500030 0.500030 0.142800 -0.201136
O1    O     O_R   0.499990 0.316750 0.614620 -0.534565
O2    O     O_R   0.500010 0.683250 0.385380 -0.534567
O3    O     O_R   0.499990 0.316780 0.385290 -0.663868
O4    O     O_R   0.500010 0.683220 0.614710 -0.663749
O5    O     O_R   0.316760 0.500000 0.614660 -0.562775
O6    O     O_R   0.683240 0.500000 0.385340 -0.562873
O7    O     O_R   0.316760 0.500020 0.385330 -0.662816
O8    O     O_R   0.683240 0.499980 0.614670 -0.662905
Zn1   Zn    Zn3+2 0.500000 0.499980 0.653120 1.015079
Zn2   Zn    Zn3+2 0.500000 0.500020 0.346880 1.015014
Cl1   Cl    Cl    0.194910 0.958755 0.979193 -0.528824
Cl2   Cl    Cl    0.804933 0.041673 0.021322 -0.529253
C33   C     C_2   0.647490 0.679690 0.857725 0.524151
H9    H     H_    0.696514 0.659301 0.767293 0.089166
O9    O     O_2   0.653645 0.785665 0.899309 -0.492823
C34   C     C_2   0.352502 0.320317 0.142279 0.524275
H10   H     H_    0.303463 0.340716 0.232700 0.089166
O10   O     O_2   0.346356 0.214335 0.100708 -0.492533
C35   C     C_2   0.150784 0.016784 0.278869 0.490807
H11   H     H_    0.155096 0.088797 0.202069 0.152101
O11   O     O_2   0.147043 0.048024 0.396716 -0.578017
C36   C     C_2   0.849980 0.983148 0.721948 0.490790
H12   H     H_    0.845014 0.911302 0.798879 0.152449
O12   O     O_2   0.854884 0.951644 0.604258 -0.578063
C37   C     C_2   0.179563 0.676455 0.934551 0.427574
H13   H     H_    0.212059 0.740131 0.856940 0.134468
O13   O     O_2   0.157155 0.569126 0.903233 -0.570906
C38   C     C_2   0.819787 0.324046 0.065358 0.427119
H14   H     H_    0.786891 0.260537 0.142942 0.134430
O14   O     O_2   0.842441 0.431350 0.096606 -0.570928
Cl3   Cl    Cl    0.464621 0.879120 0.211765 -0.464076
Cl4   Cl    Cl    0.535482 0.120891 0.788221 -0.464303
Cl5   Cl    Cl    0.682114 0.676353 0.163069 -0.434446
Cl6   Cl    Cl    0.317876 0.323657 0.836928 -0.434357

loop_
_geom_bond_atom_site_label_1
_geom_bond_atom_site_label_2
_ccdc_geom_bond_type
C33   H9    S    
C27   C29   A    
C1    O3    A    
C20   C30   A    
C2    O4    A    
C30   Cl2   S    
C19   C21   A    
C24   C26   A    
C21   H1    S    
C34   O10   D    
C3    C18   S    
C35   O11   D    
C1    O1    A    
C13   Cl5   S    
C2    O2    A    
C38   H14   S    
C32   H6    S    
C5    C32   A    
O2    Zn2   S    
C6    C31   A    
C15   C33   S    
C1    C12   S    
C9    Cl3   S    
C2    C11   S    
C13   N2    A    
C21   C23   A    
C7    C12   A    
C22   H2    S    
C37   H13   S    
C15   N1    A    
C4    C6    A    
C17   O7    A    
O5    Zn1   S    
O3    Zn2   S    
C34   H10   S    
O4    Zn1   S    
C31   H5    S    
C37   O13   D    
C36   O12   D    
C20   C36   S    
O7    Zn2   S    
O8    Zn1   S    
C16   C34   S    
C3    C31   A    
C9    C11   A    
C4    C32   A    
C10   C12   A    
C25   H3    S    
C14   N1    A    
C4    C17   S    
C26   H4    S    
C20   C22   A    
C33   O9    D    
C22   C24   A    
C19   C29   A    
C16   N2    A    
C18   O8    A    
C7    C9    A    
C14   Cl6   S    
C28   C38   S    
C17   O5    A    
C3    C5    A    
C18   O6    A    
C25   C27   A    
C26   C28   A    
C36   H12   S    
C13   C15   A    
C10   Cl4   S    
O1    Zn1   S    
C5    C24   S    
C29   Cl1   S    
C19   C35   S    
C8    C11   A    
C6    C23   S    
C28   C30   A    
C14   C16   A    
C23   C25   A    
C35   H11   S    
C27   C37   S    
O6    Zn2   S    
C8    C10   A    
C7    H7    S    
C38   O14   D    
C8    H8    S    
N1    Zn1   S    
N2    Zn2   S    
