data_mof_unit_37720.cif
_audit_creation_date              2012-12-11T15:34:19-0500
_audit_creation_method            fapswitch 2.2
_symmetry_space_group_name_H-M    P1
_symmetry_Int_Tables_number       1
_space_group_crystal_system       triclinic
_cell_length_a                    15.152074
_cell_length_b                    15.205495
_cell_length_c                    34.732345
_cell_angle_alpha                 90.426659
_cell_angle_beta                  90.065046
_cell_angle_gamma                 60.331635
_cell_volume                      6952.88596414

loop_
_atom_site_label
_atom_site_type_symbol
_atom_type_description
_atom_site_fract_x
_atom_site_fract_y
_atom_site_fract_z
_atom_type_partial_charge
C1    C     C_R   0.300096 0.608600 0.555241 0.543731
C2    C     C_R   0.676538 0.676898 0.665021 -0.000352
C3    C     C_R   0.250383 0.662408 0.270049 0.131943
C4    C     C_R   0.164029 0.680800 0.291534 0.053749
C5    C     C_R   0.074058 0.699415 0.273072 0.102600
C6    C     C_R   0.072692 0.689673 0.232802 0.044508
C7    C     C_R   0.159877 0.671551 0.210879 0.043946
C8    C     C_R   0.205725 0.571602 0.349582 -0.001126
C9    C     C_R   0.237072 0.554729 0.388203 0.049898
C10   C     C_R   0.182324 0.734255 0.396676 0.133731
C11   C     C_R   0.155180 0.751426 0.357525 0.153180
C12   C     C_R   0.172329 0.668646 0.333673 -0.006646
C13   C     C_R   0.591410 0.748471 0.644372 0.000592
C14   C     C_R   0.235996 0.633781 0.410755 -0.005786
C15   C     C_R   0.735952 0.026993 0.943425 0.571902
C16   C     C_R   0.745071 0.723375 0.944836 0.554449
C17   C     C_R   0.040826 0.732919 0.949165 0.530602
C18   C     C_R   0.721838 0.041331 0.052188 0.565335
C19   C     C_R   0.735002 0.734731 0.055252 0.519724
C20   C     C_R   0.031776 0.743455 0.056683 0.536744
C21   C     C_R   0.574571 0.723712 0.606521 0.099965
C22   C     C_R   0.693557 0.672423 0.784884 0.339072
C23   C     C_R   0.679263 0.681943 0.707248 0.324026
C24   C     C_R   0.746338 0.595542 0.850048 0.149029
C25   C     C_R   0.753780 0.606681 0.890082 0.101574
C26   C     C_R   0.638780 0.788873 0.884392 0.111355
C27   C     C_R   0.630894 0.776895 0.844344 -0.004502
C28   C     C_R   0.691537 0.681547 0.827062 -0.007645
C29   C     C_R   0.612104 0.588623 0.555187 0.566551
C30   C     C_R   0.709578 0.704968 0.906776 0.001414
C31   C     C_R   0.727379 0.074488 0.904938 0.008599
C32   C     C_R   0.635675 0.117210 0.883668 0.137738
C33   C     C_R   0.637833 0.128075 0.843494 0.146955
C34   C     C_R   0.731897 0.093141 0.824372 0.009093
C35   C     C_R   0.822361 0.057780 0.845698 -0.035785
C36   C     C_R   0.817174 0.060696 0.886221 -0.053676
C37   C     C_R   0.749599 0.178075 0.765383 0.178941
C38   C     C_R   0.749491 0.186069 0.725048 0.161113
C39   C     C_R   0.724027 0.124856 0.701810 0.005170
C40   C     C_R   0.590399 0.299592 0.553007 0.598947
C41   C     C_R   0.712486 0.046548 0.718777 -0.007471
C42   C     C_R   0.719607 0.035623 0.758776 -0.119945
C43   C     C_R   0.734196 0.102567 0.782124 0.036952
C44   C     C_R   0.587417 0.227975 0.655344 0.144359
C45   C     C_R   0.557233 0.268951 0.618876 -0.108831
C46   C     C_R   0.728718 0.162958 0.593657 0.019646
C47   C     C_R   0.760990 0.122940 0.631001 0.137098
C48   C     C_R   0.690472 0.156848 0.661866 0.069341
C49   C     C_R   0.626773 0.240192 0.588427 -0.032716
C50   C     C_R   0.104076 0.692272 0.913893 -0.023476
C51   C     C_R   0.298625 0.610696 0.446343 0.539854
C52   C     C_R   0.122218 0.758659 0.891805 -0.121452
C53   C     C_R   0.153437 0.736859 0.853425 0.014268
C54   C     C_R   0.165463 0.646761 0.836657 0.035256
C55   C     C_R   0.163927 0.571998 0.860134 0.186795
C56   C     C_R   0.135095 0.594121 0.899251 0.140848
C57   C     C_R   0.274435 0.583839 0.777694 0.088904
C58   C     C_R   0.286015 0.580477 0.737376 0.023055
C59   C     C_R   0.198382 0.623568 0.713748 -0.037411
C60   C     C_R   0.099757 0.670387 0.730191 -0.047765
C61   C     C_R   0.088625 0.674476 0.770725 0.004343
C62   C     C_R   0.608868 0.591511 0.445852 0.560044
C63   C     C_R   0.176459 0.633212 0.794291 0.004115
C64   C     C_R   0.206786 0.710653 0.654264 0.135228
C65   C     C_R   0.212706 0.714803 0.613866 0.128720
C66   C     C_R   0.229351 0.547187 0.608469 0.132125
C67   C     C_R   0.215137 0.546442 0.648379 0.175227
C68   C     C_R   0.209032 0.625896 0.671441 0.029189
C69   C     C_R   0.240813 0.626310 0.591732 -0.009493
C70   C     C_R   0.699846 0.718220 0.093183 -0.038333
C71   C     C_R   0.595409 0.756540 0.101552 0.086851
C72   C     C_R   0.564783 0.748752 0.139461 0.057070
C73   C     C_R   0.588730 0.300626 0.444389 0.580950
C74   C     C_R   0.639624 0.702281 0.168468 0.065541
C75   C     C_R   0.743605 0.655096 0.159072 0.141150
C76   C     C_R   0.773329 0.665013 0.122059 0.003263
C77   C     C_R   0.620375 0.619253 0.227895 0.036077
C78   C     C_R   0.623853 0.614164 0.268503 0.059847
C79   C     C_R   0.632892 0.688382 0.290249 -0.030610
C80   C     C_R   0.635457 0.768922 0.271641 0.129436
C81   C     C_R   0.613783 0.783287 0.231998 0.140831
C82   C     C_R   0.614083 0.705238 0.209767 0.055454
C83   C     C_R   0.553844 0.748841 0.355503 0.138791
C84   C     C_R   0.641092 0.626483 0.590584 0.014667
C85   C     C_R   0.549722 0.726088 0.394533 0.126881
C86   C     C_R   0.721334 0.580059 0.389708 0.103431
C87   C     C_R   0.727553 0.605509 0.350957 0.005561
C88   C     C_R   0.638816 0.681576 0.332964 -0.045121
C89   C     C_R   0.628689 0.634532 0.410287 -0.003304
C90   C     C_R   0.695277 0.109701 0.086652 -0.041375
C91   C     C_R   0.765489 0.138412 0.100715 -0.010397
C92   C     C_R   0.762621 0.164391 0.139900 0.130643
C93   C     C_R   0.687309 0.166922 0.164324 0.098956
C94   C     C_R   0.606945 0.155446 0.148862 0.009371
C95   C     C_R   0.735374 0.564028 0.609512 0.106346
C96   C     C_R   0.608532 0.131624 0.109385 -0.039987
C97   C     C_R   0.615227 0.270088 0.225102 0.052833
C98   C     C_R   0.610507 0.272747 0.265654 0.121338
C99   C     C_R   0.679527 0.187193 0.287165 0.114866
C100  C     C_R   0.758152 0.101125 0.268291 0.063961
C101  C     C_R   0.768465 0.104093 0.228026 0.110216
C102  C     C_R   0.691914 0.182901 0.206396 0.104429
C103  C     C_R   0.738190 0.205085 0.353074 0.007779
C104  C     C_R   0.716046 0.227973 0.392016 -0.194652
C105  C     C_R   0.565037 0.212014 0.386742 0.089779
C106  C     C_R   0.754315 0.592532 0.645991 0.143776
C107  C     C_R   0.585607 0.187363 0.347163 0.031141
C108  C     C_R   0.668792 0.191362 0.329695 0.082492
C109  C     C_R   0.625543 0.241765 0.408017 0.023594
C110  C     C_R   0.098494 0.706741 0.091070 0.001905
C111  C     C_R   0.124152 0.612560 0.107759 0.114166
C112  C     C_R   0.146549 0.599046 0.147581 0.157375
C113  C     C_R   0.153645 0.675535 0.168501 0.077600
C114  C     C_R   0.153243 0.756833 0.149134 0.130002
C115  C     C_R   0.128390 0.770957 0.110164 0.096015
C116  C     C_R   0.248620 0.659952 0.229557 0.164578
Cr1   Cr    Cr6+3 0.421670 0.426920 0.499620 1.001236
Cr2   Cr    Cr6+3 0.427030 0.651190 0.500980 1.014244
Cr3   Cr    Cr6+3 0.651280 0.421870 0.499380 1.043370
Cr4   Cr    Cr6+3 0.910810 0.908010 0.001130 1.082482
Cr5   Cr    Cr6+3 0.682800 0.909890 0.998370 1.004839
Cr6   Cr    Cr6+3 0.908370 0.682300 0.002180 1.025901
H1    H     H_    0.710876 0.976118 0.772134 0.125360
H2    H     H_    0.479167 0.328140 0.614842 0.161343
H3    H     H_    0.106476 0.830767 0.903856 0.169307
H4    H     H_    0.766919 0.242135 0.409548 0.113844
N1    N     N_R   0.626670 0.652107 0.766543 -0.209525
N2    N     N_R   0.620276 0.656055 0.728322 -0.251492
N3    N     N_R   0.746052 0.702560 0.725576 -0.205808
N4    N     N_R   0.752100 0.699010 0.763845 -0.278451
O1    O     O_R   0.502070 0.323090 0.541280 -0.525785
O2    O     O_R   0.520720 0.641670 0.461580 -0.470983
O3    O     O_R   0.674120 0.502090 0.457500 -0.492047
O4    O     O_R   0.640110 0.338380 0.459630 -0.498759
O5    O     O_3   0.499990 0.499990 0.499990 -0.262038
O6    O     O_R   0.017640 0.822070 0.960410 -0.525858
O7    O     O_R   0.822000 0.989470 0.960340 -0.441761
O8    O     O_R   0.666920 0.007430 0.955290 -0.523546
O9    O     O_R   0.694410 0.812480 0.959650 -0.468464
O10   O     O_R   0.831550 0.656950 0.958960 -0.527265
O11   O     O_R   0.998590 0.685540 0.963930 -0.490727
O12   O     O_R   0.338340 0.520690 0.539540 -0.512030
O13   O     O_R   0.008220 0.831200 0.045060 -0.523749
O14   O     O_R   0.813270 0.997930 0.038810 -0.455948
O15   O     O_R   0.657500 0.016560 0.039940 -0.533374
O16   O     O_R   0.685680 0.820940 0.038120 -0.503145
O17   O     O_R   0.822130 0.666070 0.043610 -0.497797
O18   O     O_R   0.989860 0.694000 0.042400 -0.476867
O19   O     O_3   0.833990 0.833400 0.000560 -0.261392
O20   O     O_R   0.324760 0.674070 0.543580 -0.493151
O21   O     O_R   0.522400 0.640310 0.540110 -0.479836
O22   O     O_R   0.675940 0.500630 0.542210 -0.485970
O23   O     O_R   0.641790 0.337020 0.538150 -0.471954
O24   O     O_R   0.500260 0.324550 0.456580 -0.487257
O25   O     O_R   0.336660 0.522040 0.461020 -0.504294
O26   O     O_R   0.322940 0.675540 0.458880 -0.513942
N5    N     N_2   0.809363 0.470572 0.592594 -0.480401
H5    H     H_    0.881527 0.460705 0.590539 0.236675
C117  C     C_3   0.807460 0.381827 0.606358 -0.266448
H6    H     H_    0.837779 0.363534 0.635974 0.125582
H7    H     H_    0.728860 0.393914 0.606150 0.169127
H8    H     H_    0.855242 0.316382 0.587271 0.133755
C118  C     C_2   0.904224 0.054039 0.908470 0.245297
H9    H     H_    0.981710 0.001113 0.900194 0.112262
O27   O     O_2   0.889441 0.111123 0.935670 -0.470079
N6    N     N_2   0.863816 0.047082 0.637278 -0.524035
H10   H     H_    0.874926 0.993312 0.657506 0.294972
C119  C     C_3   0.936371 0.082718 0.639518 -0.353406
H11   H     H_    0.958922 0.082427 0.669864 0.152902
H12   H     H_    0.905045 0.160476 0.627986 0.131075
H13   H     H_    0.005040 0.031353 0.622580 0.140373
N7    N     N_2   0.770178 0.259846 0.708463 -0.499011
H14   H     H_    0.746293 0.282922 0.680722 0.243755
C120  C     C_3   0.867613 0.250904 0.717927 -0.280874
H15   H     H_    0.907302 0.252031 0.691308 0.093176
H16   H     H_    0.918169 0.179201 0.733206 0.172160
H17   H     H_    0.855431 0.315238 0.736717 0.171897
N8    N     N_2   0.761722 0.249362 0.788522 -0.511758
H18   H     H_    0.801998 0.222659 0.813636 0.243606
C121  C     C_3   0.670639 0.345956 0.793662 -0.296430
H19   H     H_    0.690969 0.402219 0.804539 0.175448
H20   H     H_    0.620762 0.338535 0.815124 0.130574
H21   H     H_    0.629830 0.374205 0.765956 0.179561
N9    N     N_2   0.544375 0.179854 0.822838 -0.517154
H22   H     H_    0.546998 0.216385 0.798388 0.229984
C122  C     C_3   0.492043 0.123376 0.816349 -0.263075
H23   H     H_    0.538269 0.056873 0.797547 0.132165
H24   H     H_    0.418519 0.172529 0.801851 0.139262
H25   H     H_    0.475691 0.098144 0.843949 0.204254
C123  C     C_2   0.690266 0.975968 0.696404 0.270076
H26   H     H_    0.672888 0.924092 0.711519 0.121341
O28   O     O_2   0.692432 0.973100 0.661279 -0.476519
N10   N     N_2   0.513916 0.264255 0.685650 -0.485410
H27   H     H_    0.540930 0.262417 0.713036 0.242417
C124  C     C_3   0.441822 0.228171 0.683957 -0.271243
H28   H     H_    0.386536 0.262054 0.708009 0.123473
H29   H     H_    0.481729 0.144501 0.686756 0.168843
H30   H     H_    0.399270 0.250329 0.656395 0.185451
C125  C     C_2   0.921596 0.022577 0.825704 0.236570
H31   H     H_    0.977343 0.040254 0.837397 0.124861
O29   O     O_2   0.942283 0.972748 0.795991 -0.461938
N11   N     N_2   0.490815 0.794806 0.584379 -0.493847
H32   H     H_    0.490705 0.861242 0.578646 0.290400
C126  C     C_3   0.393040 0.808315 0.595491 -0.229091
H33   H     H_    0.364372 0.855206 0.621993 0.165609
H34   H     H_    0.398372 0.733864 0.600738 0.196181
H35   H     H_    0.338161 0.847129 0.571890 0.160720
C127  C     C_2   0.800933 0.119687 0.560589 0.234842
H36   H     H_    0.881917 0.074495 0.565476 0.120044
O30   O     O_2   0.770948 0.130197 0.527399 -0.513788
N12   N     N_2   0.141647 0.516415 0.923790 -0.526469
H37   H     H_    0.160735 0.519738 0.952073 0.244761
C128  C     C_3   0.065970 0.485704 0.918424 -0.267229
H38   H     H_    0.025272 0.494391 0.945979 0.156059
H39   H     H_    0.104060 0.404805 0.909675 0.137518
H40   H     H_    0.009400 0.531566 0.896085 0.164068
N13   N     N_2   0.218969 0.459438 0.665412 -0.485253
H41   H     H_    0.255008 0.439174 0.691677 0.264056
C129  C     C_3   0.124610 0.457415 0.665173 -0.318228
H42   H     H_    0.139110 0.381630 0.674349 0.138715
H43   H     H_    0.091531 0.471671 0.635869 0.168589
H44   H     H_    0.069528 0.514706 0.685581 0.130412
C130  C     C_2   0.390803 0.536898 0.721017 0.230147
H45   H     H_    0.452095 0.531392 0.738888 0.148503
O31   O     O_2   0.410942 0.505294 0.687967 -0.514250
N14   N     N_2   0.362156 0.535045 0.801624 -0.535558
H46   H     H_    0.356210 0.567426 0.828358 0.258374
C131  C     C_3   0.408385 0.425864 0.802596 -0.299423
H47   H     H_    0.450470 0.396747 0.829982 0.152274
H48   H     H_    0.461618 0.391762 0.778058 0.129323
H49   H     H_    0.350818 0.401196 0.800483 0.186426
C132  C     C_2   0.169753 0.810328 0.830772 0.267142
H50   H     H_    0.184534 0.799776 0.800062 0.129467
O32   O     O_2   0.168493 0.883242 0.846318 -0.528102
C133  C     C_2   0.009232 0.720467 0.704320 0.199209
H51   H     H_    0.012533 0.692226 0.675298 0.117783
O33   O     O_2   0.931925 0.796960 0.714281 -0.498519
C134  C     C_2   0.985146 0.716172 0.787968 0.282953
H52   H     H_    0.928291 0.705089 0.773235 0.160674
O34   O     O_2   0.961613 0.763873 0.818200 -0.492878
N15   N     N_2   0.208280 0.787444 0.677573 -0.535683
H53   H     H_    0.260039 0.761418 0.699793 0.264547
C135  C     C_3   0.110552 0.871012 0.688589 -0.298189
H54   H     H_    0.089699 0.859084 0.717946 0.195018
H55   H     H_    0.050633 0.879943 0.668014 0.176139
H56   H     H_    0.115458 0.941375 0.689024 0.141650
N16   N     N_2   0.804429 0.517813 0.912813 -0.524891
H57   H     H_    0.872134 0.504207 0.924636 0.267178
C136  C     C_3   0.739829 0.500825 0.938727 -0.286760
H58   H     H_    0.709440 0.559516 0.961793 0.146967
H59   H     H_    0.784490 0.425413 0.952251 0.175271
H60   H     H_    0.675808 0.502089 0.922608 0.150507
N17   N     N_2   0.191321 0.807050 0.595563 -0.509527
H61   H     H_    0.191073 0.861756 0.613305 0.265886
C137  C     C_3   0.103916 0.848518 0.570355 -0.307766
H62   H     H_    0.095203 0.917904 0.556455 0.129591
H63   H     H_    0.033967 0.868526 0.587147 0.155797
H64   H     H_    0.113318 0.793546 0.547309 0.152434
N18   N     N_2   0.196968 0.473147 0.844923 -0.515383
H65   H     H_    0.235157 0.414260 0.863847 0.273910
C138  C     C_3   0.126993 0.461544 0.819823 -0.320751
H66   H     H_    0.121948 0.393876 0.828284 0.125152
H67   H     H_    0.155340 0.450419 0.789737 0.146437
H68   H     H_    0.049601 0.528595 0.821252 0.147267
N19   N     N_2   0.234045 0.465899 0.586200 -0.485561
H69   H     H_    0.305636 0.409907 0.578230 0.282659
C139  C     C_3   0.155140 0.493229 0.557649 -0.303351
H70   H     H_    0.159710 0.423479 0.545369 0.131409
H71   H     H_    0.163768 0.536858 0.533920 0.142128
H72   H     H_    0.079074 0.539436 0.571075 0.136237
N20   N     N_2   0.521532 0.797494 0.071596 -0.552066
H73   H     H_    0.546994 0.765472 0.044751 0.257387
C140  C     C_3   0.461620 0.906825 0.070686 -0.275117
H74   H     H_    0.509462 0.939846 0.062170 0.215408
H75   H     H_    0.426686 0.938113 0.099187 0.185465
H76   H     H_    0.399708 0.929647 0.049294 0.120754
C141  C     C_2   0.882622 0.626741 0.115312 0.345941
H77   H     H_    0.909250 0.679387 0.109059 0.145871
O35   O     O_2   0.942177 0.535980 0.115141 -0.527012
C142  C     C_2   0.824160 0.553276 0.328238 0.194282
H78   H     H_    0.823596 0.564490 0.297434 0.105474
O36   O     O_2   0.906486 0.500783 0.343323 -0.551829
N21   N     N_2   0.621206 0.532488 0.287410 -0.540872
H79   H     H_    0.579154 0.551006 0.312486 0.262678
C143  C     C_3   0.716900 0.438340 0.289269 -0.287350
H80   H     H_    0.739912 0.418583 0.319683 0.155607
H81   H     H_    0.778598 0.442165 0.273518 0.146073
H82   H     H_    0.708181 0.376952 0.275989 0.189177
C144  C     C_2   0.626384 0.532767 0.205243 0.209980
H83   H     H_    0.626698 0.470141 0.219739 0.153243
O37   O     O_2   0.631655 0.529258 0.170166 -0.540929
C145  C     C_2   0.455166 0.785982 0.147606 0.232193
H84   H     H_    0.402870 0.799678 0.124100 0.125499
O38   O     O_2   0.421216 0.802733 0.180335 -0.543893
N22   N     N_2   0.675483 0.824090 0.291478 -0.528045
H85   H     H_    0.715228 0.793092 0.316422 0.249023
C146  C     C_3   0.618155 0.932908 0.292291 -0.188954
H86   H     H_    0.609222 0.959255 0.322587 0.134317
H87   H     H_    0.541817 0.962629 0.279231 0.205947
H88   H     H_    0.661173 0.963059 0.276735 0.215420
N23   N     N_2   0.852696 0.539431 0.663055 -0.502498
H89   H     H_    0.913848 0.515787 0.644780 0.235032
C147  C     C_3   0.867586 0.471065 0.694288 -0.292475
H90   H     H_    0.930252 0.394206 0.686910 0.102525
H91   H     H_    0.797535 0.467289 0.700365 0.176255
H92   H     H_    0.889843 0.496999 0.720607 0.170403
N24   N     N_2   0.597205 0.873876 0.213839 -0.492857
H93   H     H_    0.539069 0.903247 0.194014 0.289490
C148  C     C_3   0.686632 0.876271 0.201250 -0.276769
H94   H     H_    0.674865 0.953028 0.206673 0.197779
H95   H     H_    0.699114 0.859709 0.169915 0.140117
H96   H     H_    0.754863 0.821288 0.217291 0.163838
N25   N     N_2   0.469093 0.835328 0.338618 -0.529265
H97   H     H_    0.460441 0.834026 0.309302 0.256899
C149  C     C_3   0.446193 0.934277 0.352912 -0.305510
H98   H     H_    0.426732 0.987875 0.328687 0.132997
H99   H     H_    0.511683 0.930735 0.368609 0.144724
H100  H     H_    0.378615 0.965649 0.371993 0.142423
N26   N     N_2   0.461350 0.789926 0.416857 -0.475250
H101  H     H_    0.393188 0.825740 0.402414 0.256048
C150  C     C_3   0.474041 0.851144 0.446152 -0.274568
H102  H     H_    0.486011 0.910461 0.432885 0.113094
H103  H     H_    0.539924 0.803749 0.464905 0.160560
H104  H     H_    0.404823 0.888336 0.464446 0.128716
N27   N     N_2   0.819752 0.604479 0.187841 -0.491100
H105  H     H_    0.806382 0.637333 0.214780 0.230166
C151  C     C_3   0.867583 0.495180 0.188487 -0.232574
H106  H     H_    0.839938 0.471017 0.213599 0.105980
H107  H     H_    0.950958 0.462549 0.191214 0.171067
H108  H     H_    0.851681 0.464660 0.161824 0.195735
N28   N     N_2   0.805994 0.498059 0.408004 -0.466387
H109  H     H_    0.869585 0.505525 0.411215 0.283446
C152  C     C_3   0.825723 0.397634 0.397409 -0.250920
H110  H     H_    0.874508 0.369552 0.371408 0.175502
H111  H     H_    0.753487 0.397808 0.391731 0.140415
H112  H     H_    0.865556 0.344943 0.421412 0.135745
C153  C     C_2   0.838321 0.147302 0.074510 0.256872
H113  H     H_    0.911423 0.133885 0.084846 0.089482
O39   O     O_2   0.815342 0.174020 0.041188 -0.468830
C154  C     C_2   0.519248 0.131169 0.091602 0.215867
H114  H     H_    0.494634 0.162244 0.063041 0.124024
O40   O     O_2   0.474357 0.094105 0.107995 -0.554559
C155  C     C_2   0.519318 0.157533 0.325179 0.178022
H115  H     H_    0.468921 0.137740 0.340047 0.097516
O41   O     O_2   0.520310 0.152518 0.290147 -0.511730
N29   N     N_2   0.536591 0.362511 0.284922 -0.554173
H116  H     H_    0.558719 0.380612 0.310480 0.250442
C156  C     C_3   0.433840 0.379473 0.285471 -0.261438
H117  H     H_    0.414030 0.367568 0.314966 0.146553
H118  H     H_    0.423006 0.329396 0.264862 0.215340
H119  H     H_    0.381137 0.457924 0.276751 0.179972
C157  C     C_2   0.539933 0.359371 0.202842 0.176787
H120  H     H_    0.475681 0.421011 0.217169 0.139515
O42   O     O_2   0.549513 0.367029 0.168346 -0.559047
C158  C     C_2   0.522956 0.848314 0.662985 0.239322
H121  H     H_    0.515130 0.854606 0.694073 0.112992
O43   O     O_2   0.478543 0.925704 0.644225 -0.515835
N30   N     N_2   0.835774 0.187692 0.155460 -0.514097
H122  H     H_    0.910804 0.136537 0.149563 0.240297
C159  C     C_3   0.809774 0.292856 0.154090 -0.262104
H123  H     H_    0.862577 0.301667 0.134414 0.130789
H124  H     H_    0.816590 0.318248 0.183422 0.157440
H125  H     H_    0.730972 0.342053 0.143700 0.236617
C160  C     C_2   0.829416 0.007496 0.289744 0.233113
H126  H     H_    0.899919 0.950858 0.276755 0.101258
O44   O     O_2   0.809115 0.990090 0.321796 -0.527623
N31   N     N_2   0.859784 0.033287 0.209150 -0.536260
H127  H     H_    0.924535 0.017700 0.224075 0.242697
C161  C     C_3   0.860610 0.945427 0.192977 -0.308574
H128  H     H_    0.932142 0.899226 0.176845 0.186117
H129  H     H_    0.797847 0.967424 0.172169 0.155386
H130  H     H_    0.854674 0.899965 0.216475 0.150542
C162  C     C_2   0.833431 0.199996 0.338812 0.205896
H131  H     H_    0.889134 0.196076 0.359429 0.097585
O45   O     O_2   0.851183 0.201658 0.304677 -0.551903
C163  C     C_2   0.519355 0.171518 0.173410 0.275095
H132  H     H_    0.442450 0.214886 0.162589 0.142150
O46   O     O_2   0.532070 0.135447 0.205548 -0.501571
N32   N     N_2   0.481500 0.210874 0.405143 -0.512092
H133  H     H_    0.415230 0.239266 0.389544 0.233758
C164  C     C_3   0.507823 0.118556 0.425507 -0.284420
H134  H     H_    0.537808 0.053480 0.405116 0.114938
H135  H     H_    0.439295 0.125696 0.440021 0.130613
H136  H     H_    0.566016 0.104269 0.447784 0.186158
N33   N     N_2   0.129062 0.532427 0.084345 -0.469622
H137  H     H_    0.129751 0.473215 0.098698 0.285245
C165  C     C_3   0.206761 0.495672 0.054740 -0.301633
H138  H     H_    0.201991 0.437070 0.037021 0.139758
H139  H     H_    0.283258 0.461434 0.068128 0.131829
H140  H     H_    0.196477 0.557676 0.035311 0.142271
N34   N     N_2   0.134583 0.850398 0.091085 -0.519295
H141  H     H_    0.067175 0.915843 0.085895 0.275680
C166  C     C_3   0.213402 0.819264 0.062203 -0.291553
H142  H     H_    0.217674 0.886278 0.052260 0.143695
H143  H     H_    0.197220 0.783922 0.037101 0.161188
H144  H     H_    0.288154 0.764296 0.074637 0.140824
N35   N     N_2   0.105549 0.852454 0.342634 -0.481664
H145  H     H_    0.068205 0.864991 0.316738 0.241535
C167  C     C_3   0.150863 0.915916 0.349067 -0.265777
H146  H     H_    0.163060 0.943358 0.321120 0.123781
H147  H     H_    0.225224 0.874976 0.363891 0.139125
H148  H     H_    0.098377 0.982646 0.366731 0.172166
N36   N     N_2   0.791982 0.497391 0.832826 -0.501070
H149  H     H_    0.785538 0.444443 0.849138 0.273187
C168  C     C_3   0.894632 0.460166 0.819352 -0.308611
H150  H     H_    0.921231 0.387137 0.803876 0.138532
H151  H     H_    0.945556 0.447654 0.844216 0.141453
H152  H     H_    0.898142 0.514568 0.799126 0.153736
N37   N     N_2   0.340893 0.644644 0.289210 -0.526610
H153  H     H_    0.361910 0.597226 0.312618 0.250968
C169  C     C_3   0.351065 0.733136 0.295697 -0.302732
H154  H     H_    0.354311 0.745543 0.327054 0.154208
H155  H     H_    0.287677 0.802238 0.282722 0.161074
H156  H     H_    0.422513 0.720213 0.282257 0.170096
N38   N     N_2   0.332231 0.656280 0.208534 -0.480372
H157  H     H_    0.380138 0.675797 0.222392 0.308243
C170  C     C_3   0.374012 0.595725 0.173978 -0.253874
H158  H     H_    0.355450 0.645093 0.148490 0.163784
H159  H     H_    0.347981 0.540387 0.169697 0.141801
H160  H     H_    0.457102 0.554049 0.175849 0.217612
N39   N     N_2   0.148904 0.516432 0.167807 -0.496443
H161  H     H_    0.095249 0.497237 0.159672 0.293489
C171  C     C_3   0.248247 0.430694 0.174995 -0.305526
H162  H     H_    0.240244 0.366088 0.185394 0.161360
H163  H     H_    0.287028 0.449622 0.197995 0.166029
H164  H     H_    0.294712 0.406987 0.148220 0.139453
N40   N     N_2   0.982796 0.733538 0.294799 -0.561471
H165  H     H_    0.969817 0.788100 0.315218 0.279665
C172  C     C_3   0.964830 0.655610 0.309851 -0.241731
H166  H     H_    0.008644 0.623810 0.336622 0.181403
H167  H     H_    0.984099 0.594240 0.288351 0.192438
H168  H     H_    0.883678 0.690119 0.317362 0.144294
C173  C     C_2   0.977801 0.700285 0.215121 0.228452
H169  H     H_    0.922955 0.693449 0.232837 0.133648
O47   O     O_2   0.957243 0.719294 0.181187 -0.577710
C174  C     C_2   0.211431 0.484474 0.326719 0.203430
H170  H     H_    0.232382 0.413150 0.340574 0.151710
O48   O     O_2   0.193393 0.489508 0.292328 -0.542904
N41   N     N_2   0.273126 0.455848 0.403125 -0.545738
H171  H     H_    0.348836 0.415844 0.410157 0.301638
C175  C     C_3   0.203171 0.443383 0.427723 -0.286593
H172  H     H_    0.236925 0.362574 0.435814 0.136895
H173  H     H_    0.130928 0.466299 0.412177 0.153522
H174  H     H_    0.186702 0.489876 0.454335 0.151712
N42   N     N_2   0.186793 0.819019 0.167949 -0.469577
H175  H     H_    0.229932 0.838889 0.151040 0.291322
C176  C     C_3   0.111827 0.903200 0.190199 -0.290796
H176  H     H_    0.148357 0.942051 0.204846 0.161605
H177  H     H_    0.079542 0.876125 0.212761 0.137444
H178  H     H_    0.051417 0.958124 0.170944 0.148084
N43   N     N_2   0.150953 0.819496 0.421651 -0.494837
H179  H     H_    0.207559 0.833460 0.430816 0.263025
C177  C     C_3   0.077517 0.832286 0.450883 -0.277431
H180  H     H_    0.051162 0.905675 0.466045 0.143360
H181  H     H_    0.111891 0.770529 0.472314 0.129174
H182  H     H_    0.010680 0.832808 0.437432 0.170417
N44   N     N_2   0.580795 0.886552 0.901675 -0.460390
H183  H     H_    0.570056 0.946739 0.884987 0.265997
C178  C     C_3   0.490502 0.902523 0.921942 -0.241234
H184  H     H_    0.434976 0.900624 0.901568 0.195810
H185  H     H_    0.454722 0.977437 0.936641 0.122460
H186  H     H_    0.510031 0.843332 0.944069 0.136219
C179  C     C_2   0.558977 0.863036 0.819980 0.213483
H187  H     H_    0.580449 0.871527 0.791042 0.111403
O49   O     O_2   0.473260 0.922420 0.831184 -0.530891
N45   N     N_2   0.539473 0.158485 0.902323 -0.502172
H188  H     H_    0.524514 0.107213 0.915769 0.265783
C180  C     C_3   0.509718 0.250102 0.924300 -0.283430
H189  H     H_    0.430309 0.281316 0.934550 0.138525
H190  H     H_    0.513400 0.307805 0.905958 0.158341
H191  H     H_    0.560048 0.234039 0.949659 0.152544

loop_
_geom_bond_atom_site_label_1
_geom_bond_atom_site_label_2
_ccdc_geom_bond_type
C13   C158  S    
N40   H165  S    
C137  H63   S    
N5    H5    S    
C9    N41   S    
C169  H155  S    
N44   H183  S    
C130  H45   S    
Cr4   O14   S    
C178  H184  S    
C165  H140  S    
C153  H113  S    
C39   C41   A    
N23   H89   S    
C121  H19   S    
C37   N8    S    
C105  N32   S    
N36   C168  S    
C106  N23   S    
C113  C114  A    
N35   C167  S    
C5    C6    A    
C166  H143  S    
C54   C63   S    
N20   H73   S    
C140  H76   S    
C34   C35   A    
C61   C63   A    
C110  C111  A    
C46   C47   A    
N7    C120  S    
C65   N17   S    
C50   C52   A    
C117  H7    S    
Cr6   O18   S    
C4    C12   S    
N10   H27   S    
C124  H30   S    
C83   C88   A    
C125  H31   S    
Cr3   O23   S    
C22   N4    A    
C115  N34   S    
C21   N11   S    
C131  H47   S    
C121  H20   S    
C114  C115  A    
C171  H164  S    
C128  H39   S    
C134  O34   D    
C136  H59   S    
N11   H32   S    
C179  H187  S    
Cr3   O4    S    
Cr6   O19   S    
C62   O2    A    
C33   C34   A    
C154  H114  S    
C147  H91   S    
C175  H174  S    
C64   N15   S    
C152  H110  S    
C177  H182  S    
C75   C76   A    
C176  H177  S    
C37   C38   A    
C147  H90   S    
C157  H120  S    
C132  O32   D    
C44   N10   S    
C13   C21   A    
C1    O20   A    
C94   C96   A    
C120  H17   S    
C29   C84   S    
C119  H11   S    
C180  H191  S    
C75   N27   S    
C164  H134  S    
C165  H138  S    
Cr1   O5    S    
C3    N37   S    
C174  H170  S    
C138  H67   S    
C152  H112  S    
C167  H147  S    
C118  O27   D    
C4    C5    A    
N18   C138  S    
C58   C130  S    
C6    C7    A    
C166  H142  S    
C145  O38   D    
Cr1   O12   S    
C143  H81   S    
C114  N42   S    
C168  H150  S    
C64   C65   A    
C22   N1    A    
C77   C82   A    
C156  H117  S    
Cr5   O19   S    
C87   C142  S    
N42   H175  S    
C78   N21   S    
C124  H28   S    
C98   C99   A    
C31   C36   A    
N15   C135  S    
C122  H23   S    
C131  H49   S    
C44   C48   A    
C23   N2    A    
N33   C165  S    
C26   C30   A    
N16   C136  S    
N26   C150  S    
C123  H26   S    
C32   N45   S    
C111  C112  A    
C97   C98   A    
N25   H97   S    
C35   C125  S    
N22   C146  S    
C53   C54   A    
C46   C127  S    
C99   C108  S    
C178  H185  S    
C51   O25   A    
Cr4   O19   S    
Cr2   O21   S    
C64   C68   A    
C3    C116  A    
N41   C175  S    
N17   H61   S    
C139  H72   S    
N25   C149  S    
C85   N26   S    
C16   C30   S    
C40   C49   S    
N9    H22   S    
Cr2   O20   S    
N15   H53   S    
N27   C151  S    
C120  H15   S    
C92   C93   A    
C1    O12   A    
C119  H13   S    
C47   C48   A    
N9    C122  S    
Cr1   O25   S    
C164  H136  S    
C107  C108  A    
C20   O18   A    
Cr2   O26   S    
C96   C154  S    
C150  H104  S    
C66   C67   A    
C141  H77   S    
N6    C119  S    
C146  H87   S    
C16   O10   A    
C60   C133  S    
C159  H123  S    
C170  H159  S    
C163  O46   D    
C42   H1    S    
C57   C63   A    
C152  H111  S    
C27   C179  S    
C148  H95   S    
C38   C39   A    
C166  H144  S    
C19   O16   A    
C142  H78   S    
C56   N12   S    
C10   C14   A    
C168  H152  S    
C91   C92   A    
C151  H107  S    
C9    C14   A    
N13   H41   S    
C2    C106  A    
C156  H119  S    
C50   C56   A    
C84   C95   A    
C7    C116  A    
C87   C88   A    
C95   C106  A    
C29   O21   A    
N29   C156  S    
C31   C32   A    
C8    C12   A    
C135  H56   S    
C33   N9    S    
C144  H83   S    
N30   C159  S    
N19   C139  S    
C66   N19   S    
C20   C110  S    
C158  O43   D    
C40   O1    A    
C150  H102  S    
N24   H93   S    
C155  O41   D    
C40   O23   A    
C101  N31   S    
C3    C4    A    
C161  H130  S    
C169  H154  S    
C52   C53   A    
C81   N24   S    
C164  H135  S    
N3    N4    A    
C172  H168  S    
Cr3   O22   S    
N34   C166  S    
C158  H121  S    
C105  C109  A    
C54   C55   A    
C83   N25   S    
C149  H100  S    
C95   N5    S    
C34   C43   S    
C24   C28   A    
C126  H34   S    
C165  H139  S    
C138  H68   S    
C139  H70   S    
C130  O31   D    
C38   N7    S    
C99   C100  A    
C92   N30   S    
Cr5   O9    S    
N37   H153  S    
Cr6   O10   S    
C71   C72   A    
N35   H145  S    
C129  H44   S    
C57   C58   A    
C103  C162  S    
C119  H12   S    
C100  C101  A    
C140  H75   S    
C120  H16   S    
C55   N18   S    
Cr1   O1    S    
Cr2   O2    S    
C10   C11   A    
C53   C132  S    
N43   H179  S    
C59   C60   A    
C73   O4    A    
N14   H46   S    
C2    C23   S    
Cr5   O16   S    
Cr6   O11   S    
C15   O7    A    
C159  H125  S    
C137  H62   S    
C124  H29   S    
C55   C56   A    
C101  C102  A    
C41   C42   A    
C8    C174  S    
C35   C36   A    
C97   C157  S    
C18   O15   A    
C131  H48   S    
C5    N40   S    
N32   H133  S    
C171  H163  S    
C128  H38   S    
N7    H14   S    
C180  H189  S    
C46   C49   A    
C26   C27   A    
N39   H161  S    
N11   C126  S    
C76   C141  S    
C61   C134  S    
C62   O3    A    
C154  O40   D    
C162  O45   D    
C175  H173  S    
C135  H54   S    
C62   C89   S    
C23   N3    A    
C17   O11   A    
C177  H181  S    
N36   H149  S    
C127  H36   S    
C173  O47   D    
C157  O42   D    
C73   O24   A    
C133  H51   S    
C70   C71   A    
C97   C102  A    
C98   N29   S    
C137  H64   S    
C149  H98   S    
N5    C117  S    
C22   C28   S    
C169  H156  S    
N44   C178  S    
C20   O13   A    
Cr4   O13   S    
C74   C82   S    
C79   C88   S    
C153  O39   D    
C174  O48   D    
C81   C82   A    
C147  H92   S    
N23   C147  S    
C176  H176  S    
C18   C90   S    
C67   N13   S    
C72   C74   A    
N22   H85   S    
C47   N6    S    
C85   C89   A    
C86   C87   A    
C58   C59   A    
C172  H166  S    
C90   C96   A    
Cr3   O5    S    
C67   C68   A    
C60   C61   A    
Cr4   O6    S    
C37   C43   A    
N28   H109  S    
C143  H80   S    
C105  C107  A    
C80   N22   S    
C117  H6    S    
C21   C84   A    
C45   C49   A    
C52   H3    S    
C156  H118  S    
C136  H58   S    
C117  H8    S    
N31   C161  S    
Cr6   O17   S    
C15   C31   S    
C83   C85   A    
N45   C180  S    
C42   C43   A    
C122  H24   S    
N1    N2    A    
C129  H42   S    
C107  C155  S    
C44   C45   A    
N40   C172  S    
N33   H137  S    
C128  H40   S    
C25   C30   A    
C134  H52   S    
C123  O28   D    
C94   C163  S    
C86   N28   S    
C86   C89   A    
C93   C102  S    
N8    C121  S    
C73   C109  S    
C32   C33   A    
C122  H25   S    
C18   O14   A    
C176  H178  S    
C151  H106  S    
C139  H71   S    
C90   C91   A    
C138  H66   S    
C65   C69   A    
C132  H50   S    
C160  O44   D    
C72   C145  S    
N27   H105  S    
C19   O17   A    
C100  C160  S    
N26   H101  S    
C26   N44   S    
C116  N38   S    
Cr1   O24   S    
C125  O29   D    
Cr4   O7    S    
C110  C115  A    
Cr2   O5    S    
C167  H146  S    
C39   C48   S    
N43   C177  S    
C167  H148  S    
C155  H115  S    
C93   C94   A    
N21   C143  S    
C146  H86   S    
C118  H9    S    
N41   H171  S    
C159  H124  S    
C170  H158  S    
N29   H116  S    
N34   H141  S    
C150  H103  S    
C148  H94   S    
C160  H126  S    
C11   N35   S    
Cr3   O3    S    
C41   C123  S    
C145  H84   S    
C142  O36   D    
C143  H82   S    
C168  H151  S    
C6    C173  S    
C77   C144  S    
C104  C109  A    
N32   C164  S    
C66   C69   A    
N42   C176  S    
C2    C13   A    
C103  C104  A    
C14   C51   S    
C8    C9    A    
N10   C124  S    
C24   N36   S    
C126  H35   S    
C103  C108  A    
N37   C169  S    
N19   H69   S    
C121  H21   S    
C77   C78   A    
C15   O8    A    
C1    C69   S    
N39   C171  S    
C133  O33   D    
C177  H180  S    
C112  N39   S    
C112  C113  A    
C172  H167  S    
C45   H2    S    
C178  H186  S    
C51   O26   A    
C149  H99   S    
C74   C75   A    
C24   C25   A    
C171  H162  S    
N17   C137  S    
C78   C79   A    
C135  H55   S    
N24   C148  S    
Cr5   O8    S    
N12   H37   S    
C59   C68   S    
C36   C118  S    
N31   H127  S    
N38   H157  S    
C17   O6    A    
N38   C170  S    
C140  H74   S    
C126  H33   S    
N28   C152  S    
C57   N14   S    
C25   N16   S    
C71   N20   S    
N12   C128  S    
C180  H190  S    
N14   C131  S    
C141  O35   D    
C70   C76   A    
N6    H10   S    
C146  H88   S    
Cr5   O15   S    
C16   O9    A    
N18   H65   S    
N21   H79   S    
C170  H160  S    
C163  H132  S    
C161  H128  S    
C148  H96   S    
N20   C140  S    
C111  N33   S    
C80   C81   A    
C17   C50   S    
C151  H108  S    
N16   H57   S    
N13   C129  S    
N45   H188  S    
C91   C153  S    
C7    C113  S    
C162  H131  S    
C29   O22   A    
C175  H172  S    
C144  O37   D    
C129  H43   S    
N30   H122  S    
C136  H60   S    
C79   C80   A    
C104  H4    S    
C127  O30   D    
C173  H169  S    
C27   C28   A    
C179  O49   D    
C19   C70   S    
C161  H129  S    
C10   N43   S    
C11   C12   A    
N8    H18   S    
