data_mof_unit_7831.cif
_audit_creation_date              2012-12-11T16:41:42-0500
_audit_creation_method            fapswitch 2.2
_symmetry_space_group_name_H-M    P1
_symmetry_Int_Tables_number       1
_space_group_crystal_system       triclinic
_cell_length_a                    8.276114
_cell_length_b                    17.368681
_cell_length_c                    18.801847
_cell_angle_alpha                 98.719056
_cell_angle_beta                  91.438478
_cell_angle_gamma                 96.250766
_cell_volume                      2653.17740649

loop_
_atom_site_label
_atom_site_type_symbol
_atom_type_description
_atom_site_fract_x
_atom_site_fract_y
_atom_site_fract_z
_atom_type_partial_charge
Ba1   Ba    Ba6+2 0.849550 0.533890 0.465080 1.629924
Ba2   Ba    Ba6+2 0.340280 0.466170 0.534930 1.628885
C1    C     C_3   0.677389 0.816765 0.285267 -0.369972
C2    C     C_R   0.898976 0.438695 0.098852 -0.086402
C3    C     C_R   0.758527 0.473397 0.962819 -0.115466
C4    C     C_3   0.113679 0.694445 0.268120 0.361508
C5    C     C_R   0.925521 0.490683 0.983221 0.021477
C6    C     C_R   0.702869 0.473207 0.891971 -0.111065
C7    C     C_R   0.813041 0.484365 0.838053 -0.028341
C8    C     C_R   0.975017 0.515347 0.859629 0.005580
C9    C     C_R   0.031210 0.519771 0.932832 0.027393
C10   C     C_R   0.767967 0.466104 0.763461 -0.014384
C11   C     C_R   0.878234 0.486725 0.712946 -0.288120
C12   C     C_3   0.643508 0.736783 0.308755 0.361793
C13   C     C_R   0.027280 0.530284 0.734193 0.054043
C14   C     C_R   0.079051 0.543587 0.808309 -0.040421
C15   C     C_R   0.149399 0.515177 0.075232 0.022281
C16   C     C_3   0.098355 0.719044 0.194216 -0.368889
C17   C     C_R   0.208203 0.512586 0.147127 -0.005353
C18   C     C_R   0.109494 0.473889 0.195083 -0.044783
C19   C     C_R   0.960616 0.432367 0.167329 -0.016547
C20   C     C_R   0.229811 0.584879 0.833284 -0.029955
C21   C     C_R   0.286610 0.588052 0.904215 -0.099622
C22   C     C_R   0.192381 0.552546 0.954787 0.009411
C23   C     C_3   0.478141 0.357387 0.312586 0.303600
C24   C     C_R   0.251618 0.550731 0.026600 0.019408
C25   C     C_R   0.412083 0.580850 0.050957 -0.109145
C26   C     C_R   0.367051 0.547487 0.170467 -0.032883
C27   C     C_R   0.467720 0.579522 0.121019 -0.096440
C28   C     C_3   0.221774 0.706205 0.619416 0.313220
C29   C     C_R   0.421003 0.549291 0.242607 -0.012431
C30   C     C_R   0.315802 0.518666 0.291187 -0.295624
C31   C     C_R   0.163691 0.477867 0.268667 0.058579
C32   C     C_R   0.411782 0.719065 0.469007 -0.298722
C33   C     C_R   0.557490 0.747800 0.508131 0.054883
C34   C     C_3   0.462933 0.338162 0.230801 -0.390968
C35   C     C_R   0.615384 0.829157 0.514620 0.005553
C36   C     C_R   0.528865 0.877771 0.476702 -0.000258
C37   C     C_R   0.378199 0.847971 0.441539 -0.153371
C38   C     C_R   0.317382 0.769369 0.440004 0.005966
C39   C     C_R   0.602034 0.160196 0.456114 -0.121042
C40   C     C_3   0.243473 0.795302 0.636340 -0.403145
C41   C     C_R   0.648635 0.241169 0.469727 0.032421
C42   C     C_R   0.904728 0.221385 0.523676 0.053843
C43   C     C_R   0.859563 0.139557 0.511389 -0.131723
C44   C     C_R   0.705669 0.108828 0.478635 -0.007444
C45   C     C_3   0.159820 0.262571 0.714379 0.359901
C46   C     C_1   0.645459 0.026847 0.475585 -0.005165
C47   C     C_1   0.591436 0.959067 0.475197 -0.007622
C48   C     C_R   0.796540 0.271150 0.505183 -0.285751
C49   C     C_3   0.965505 0.285489 0.361934 0.314310
C50   C     C_3   0.961198 0.198066 0.335169 -0.389345
C51   C     C_3   0.716760 0.645088 0.683107 0.314702
C52   C     C_3   0.729273 0.673037 0.763981 -0.393231
C53   C     C_3   0.069190 0.141351 0.773848 -0.178908
C54   C     C_3   0.197328 0.092276 0.739436 -0.414058
C55   C     C_3   0.681220 0.253666 0.706846 -0.215206
C56   C     C_3   0.121922 0.230377 0.784439 -0.209848
C57   C     C_3   0.575422 0.211731 0.642473 -0.390625
C58   C     C_3   0.709690 0.221207 0.874144 -0.249194
C59   C     C_3   0.569366 0.188649 0.916381 -0.416537
C60   C     C_3   0.761260 0.866254 0.563808 -0.168575
C61   C     C_3   0.707123 0.911871 0.633407 -0.453439
C62   C     C_3   0.577089 0.278947 0.770779 0.288044
C63   C     C_3   0.673046 0.295555 0.843793 -0.204291
C64   C     C_R   0.988471 0.482589 0.052687 0.007021
H1    H     H_    0.707065 0.738760 0.361885 0.083223
H2    H     H_    0.837087 0.630744 0.664628 0.007469
H3    H     H_    0.626212 0.592242 0.671624 0.072891
H4    H     H_    0.632553 0.862212 0.325553 0.072401
H5    H     H_    0.819610 0.725893 0.776599 0.122795
H6    H     H_    0.768407 0.626970 0.792918 0.063669
H7    H     H_    0.609003 0.687742 0.783340 0.117299
H8    H     H_    0.510212 0.724663 0.314029 -0.064367
H9    H     H_    0.614206 0.816464 0.232391 0.107916
H10   H     H_    0.363998 0.377888 0.333203 0.016309
H11   H     H_    0.580432 0.404319 0.327639 0.075838
H12   H     H_    0.336185 0.815057 0.680947 0.120111
H13   H     H_    0.355938 0.294109 0.214139 0.127688
H14   H     H_    0.447624 0.391480 0.206874 0.061784
H15   H     H_    0.574547 0.314244 0.209790 0.115468
H16   H     H_    0.810148 0.831602 0.280405 0.151527
H17   H     H_    0.139436 0.673871 0.152594 0.076624
H18   H     H_    0.272513 0.240670 0.693924 0.079732
H19   H     H_    0.175538 0.327743 0.726098 0.064443
H20   H     H_    0.229627 0.244914 0.822428 0.083605
H21   H     H_    0.022530 0.260886 0.810196 0.070075
H22   H     H_    0.490973 0.226634 0.775249 0.069874
H23   H     H_    0.283739 0.820949 0.588409 0.067927
H24   H     H_    0.600575 0.328834 0.883765 0.125274
H25   H     H_    0.035889 0.638007 0.267607 0.087966
H26   H     H_    0.790333 0.330867 0.837908 0.071018
H27   H     H_    0.841690 0.474551 0.656308 0.068431
H28   H     H_    0.573966 0.458942 0.879159 0.109439
H29   H     H_    0.887116 0.395834 0.198566 0.099287
H30   H     H_    0.308198 0.614269 0.798373 0.107421
H31   H     H_    0.591728 0.604162 0.135508 0.112165
H32   H     H_    0.357727 0.521892 0.346626 0.073196
H33   H     H_    0.668306 0.460325 0.001107 0.075257
H34   H     H_    0.126224 0.816870 0.652534 0.117993
H35   H     H_    0.782073 0.406180 0.081997 0.058294
H36   H     H_    0.405649 0.619358 0.917520 0.061891
H37   H     H_    0.242833 0.686236 0.278486 -0.066051
H38   H     H_    0.499672 0.605744 0.017019 0.072098
H39   H     H_    0.485031 0.137669 0.429558 0.072670
H40   H     H_    0.306964 0.886141 0.416524 0.081849
H41   H     H_    0.938582 0.100960 0.531128 0.080242
H42   H     H_    0.364925 0.657946 0.465881 0.070716
H43   H     H_    0.830044 0.333904 0.517114 0.067761
H44   H     H_    0.969719 0.726155 0.181255 0.146627
H45   H     H_    0.839634 0.300025 0.369162 0.008196
H46   H     H_    0.175014 0.775468 0.193319 0.109702
H47   H     H_    0.339452 0.685484 0.604366 0.010119
H48   H     H_    0.130876 0.688227 0.573890 0.071345
H49   H     H_    0.213196 0.101432 0.682773 0.142804
H50   H     H_    0.315321 0.107194 0.770303 0.114900
H51   H     H_    0.156599 0.029168 0.739206 0.119448
H52   H     H_    0.043730 0.124313 0.827451 0.098574
H53   H     H_    0.954581 0.126673 0.740264 0.136446
H54   H     H_    0.480018 0.168229 0.658004 0.104367
H55   H     H_    0.520788 0.254850 0.614463 0.179755
H56   H     H_    0.040068 0.300697 0.413115 0.032190
H57   H     H_    0.651816 0.177970 0.606094 0.127880
H58   H     H_    0.760962 0.303672 0.691753 0.085887
H59   H     H_    0.761525 0.211461 0.722081 0.114440
H60   H     H_    0.546511 0.232531 0.963415 0.131050
H61   H     H_    0.456484 0.173075 0.881858 0.126957
H62   H     H_    0.601400 0.135083 0.936418 0.127205
H63   H     H_    0.738318 0.174506 0.830819 0.108269
H64   H     H_    0.818687 0.236428 0.911469 0.124853
H65   H     H_    0.631164 0.871836 0.663200 0.147636
H66   H     H_    0.815736 0.938364 0.668045 0.122890
H67   H     H_    0.893971 0.182645 0.282144 0.125259
H68   H     H_    0.636246 0.959665 0.622098 0.137135
H69   H     H_    0.838428 0.823120 0.579164 0.148609
H70   H     H_    0.842189 0.906030 0.535636 0.112506
H71   H     H_    0.899282 0.163497 0.373221 0.070570
H72   H     H_    0.087151 0.182166 0.329331 0.122507
O1    O     O_2   0.878040 0.448040 0.325130 -0.478227
O2    O     O_2   0.238601 0.228661 0.559737 -0.517027
O3    O     O_3   0.032279 0.237143 0.663680 -0.647385
O4    O     O_3   0.126800 0.453980 0.414370 -0.486907
O5    O     O_3   0.569440 0.593820 0.536390 -0.484622
O6    O     O_2   0.359400 0.311980 0.465480 -0.458280
O7    O     O_3   0.505477 0.289276 0.339914 -0.644217
O8    O     O_2   0.449386 0.481390 0.755746 -0.479547
O9    O     O_3   0.475413 0.337834 0.760752 -0.623723
O10   O     O_3   0.651020 0.589120 0.368830 -0.480975
O11   O     O_2   0.753148 0.533124 0.242278 -0.492457
O12   O     O_3   0.668709 0.705907 0.649695 -0.640159
O13   O     O_3   0.034736 0.324914 0.309383 -0.644281
O14   O     O_3   0.701551 0.680094 0.257332 -0.603065
O15   O     O_2   0.830300 0.688050 0.534560 -0.473473
O16   O     O_3   0.068750 0.630380 0.404830 -0.482710
O17   O     O_2   0.984317 0.771434 0.453973 -0.496634
O18   O     O_3   0.062161 0.752745 0.319953 -0.595114
O19   O     O_2   0.311660 0.551990 0.674910 -0.457601
O20   O     O_3   0.062910 0.546080 0.585630 -0.493302
O21   O     O_3   0.538690 0.410940 0.631180 -0.459745
O22   O     O_3   0.169714 0.676482 0.681053 -0.642223
O23   O     O_3   0.620260 0.406250 0.463620 -0.477974
O24   O     O_3   0.120960 0.369680 0.595180 -0.472704
P1    P     P_3+3 0.048060 0.426210 0.336320 0.973790
P2    P     P_3+3 0.655920 0.678120 0.556130 0.974737
P3    P     P_3+3 0.109092 0.731478 0.405567 0.943037
P4    P     P_3+3 0.141640 0.573850 0.663690 0.975697
P5    P     P_3+3 0.081830 0.266199 0.581091 0.936482
P6    P     P_3+3 0.630879 0.587166 0.276592 0.934002
P7    P     P_3+3 0.532515 0.310329 0.433674 0.944743
P8    P     P_3+3 0.564383 0.421120 0.726767 0.931080

loop_
_geom_bond_atom_site_label_1
_geom_bond_atom_site_label_2
_ccdc_geom_bond_type
C57   H55   S    
C63   H26   S    
C53   C54   S    
C57   H54   S    
Ba2   O5    S    
O21   P8    S    
C53   H52   S    
C25   C27   A    
O16   P3    S    
Ba2   O6    S    
C54   H51   S    
C25   H38   S    
C17   C18   A    
C51   H3    S    
C56   H21   S    
Ba2   O24   S    
C35   C60   S    
C41   P7    S    
C36   C47   S    
C53   H53   S    
C43   C44   A    
C28   O22   S    
C10   C11   A    
C15   C64   A    
C35   C36   A    
C39   H39   S    
C32   C38   A    
C15   C24   A    
C12   H8    S    
C26   C27   A    
C33   C35   A    
C22   C24   A    
C32   C33   A    
C55   H59   S    
C36   C37   A    
C55   C57   S    
C21   H36   S    
C4    H25   S    
C9    C22   A    
Ba1   Ba2   S    
C60   H70   S    
C51   H2    S    
Ba1   O4    S    
C52   H5    S    
C3    H33   S    
Ba1   P2    S    
C6    C7    A    
C50   H72   S    
C39   C44   A    
C13   P4    S    
C59   H60   S    
O22   P4    S    
C1    H9    S    
C7    C8    A    
Ba2   P4    S    
Ba1   O1    S    
O9    P8    S    
Ba2   O20   S    
O23   P7    S    
O2    P5    D    
C49   O13   S    
C50   H67   S    
C39   C41   A    
O11   P6    D    
C56   H20   S    
Ba2   O23   S    
O14   P6    S    
C16   H17   S    
C44   C46   S    
C57   H57   S    
C63   H24   S    
C4    C16   S    
O7    P7    S    
O3    P5    S    
C13   C14   A    
O15   P2    D    
C49   C50   S    
C61   H68   S    
C1    H4    S    
C6    H28   S    
C34   H14   S    
C58   H64   S    
C37   C38   A    
C3    C5    A    
Ba2   O21   S    
C10   P8    S    
C19   H29   S    
C4    H37   S    
O6    P7    D    
C48   H43   S    
C49   H45   S    
C11   H27   S    
C58   C59   S    
C42   P5    S    
C60   H69   S    
O19   P4    D    
C5    C9    A    
C60   C61   S    
Ba1   O5    S    
C40   H34   S    
C52   H7    S    
C29   C30   A    
C34   H15   S    
C12   H1    S    
C2    H35   S    
C1    H16   S    
C55   H58   S    
C50   H71   S    
C54   H50   S    
C37   H40   S    
C59   H61   S    
C45   H18   S    
C29   P6    S    
Ba1   O15   S    
C17   C26   A    
C38   P3    S    
C1    C12   S    
C61   H66   S    
C18   C31   A    
C46   C47   T    
C58   C63   S    
C40   H12   S    
C61   H65   S    
O8    P8    D    
C62   O9    S    
C24   C25   A    
C51   O12   S    
Ba2   O4    S    
C23   H11   S    
C45   H19   S    
O5    P2    S    
O4    P1    S    
C42   C43   A    
O20   P4    S    
C55   C62   S    
C28   H48   S    
C42   C48   A    
Ba1   O20   S    
C14   C20   A    
C31   P1    S    
C23   C34   S    
C20   H30   S    
C26   C29   A    
C16   H44   S    
C16   H46   S    
C34   H13   S    
C58   H63   S    
C3    C6    A    
C41   C48   A    
C51   C52   S    
O12   P2    S    
C45   O3    S    
O13   P1    S    
C33   P2    S    
C27   H31   S    
C40   H23   S    
C32   H42   S    
C62   C63   S    
C23   H10   S    
C11   C13   A    
C8    C14   A    
C30   C31   A    
C45   C56   S    
C2    C64   A    
C2    C19   A    
O18   P3    S    
O17   P3    D    
Ba2   O19   S    
O10   P6    S    
O1    P1    D    
C15   C17   A    
C54   H49   S    
C30   H32   S    
C59   H62   S    
Ba1   O16   S    
C7    C10   A    
C8    C9    A    
C21   C22   A    
Ba1   O23   S    
O24   P5    S    
C52   H6    S    
C18   C19   A    
Ba1   P1    S    
C53   C56   S    
C12   O14   S    
C49   H56   S    
C20   C21   A    
C28   C40   S    
Ba1   O10   S    
C23   O7    S    
C62   H22   S    
C4    O18   S    
C43   H41   S    
C5    C64   A    
C28   H47   S    
