data_mof_unit_45660.cif
_audit_creation_date              2012-12-11T14:43:58-0500
_audit_creation_method            fapswitch 2.2
_symmetry_space_group_name_H-M    P1
_symmetry_Int_Tables_number       1
_space_group_crystal_system       triclinic
_cell_length_a                    18.986583
_cell_length_b                    10.897039
_cell_length_c                    18.793048
_cell_angle_alpha                 90.285142
_cell_angle_beta                  90.047252
_cell_angle_gamma                 89.65609
_cell_volume                      3888.11589358

loop_
_atom_site_label
_atom_site_type_symbol
_atom_type_description
_atom_site_fract_x
_atom_site_fract_y
_atom_site_fract_z
_atom_type_partial_charge
C1    C     C_R   0.712031 0.330666 0.138233 0.565076
C2    C     C_R   0.954896 0.983197 0.048245 -0.117506
C3    C     C_R   0.989733 0.767747 0.038108 -0.031676
C4    C     C_R   0.530006 0.053854 0.025599 0.146316
C5    C     C_R   0.533919 0.067245 0.952032 0.124809
C6    C     C_R   0.029921 0.553834 0.025647 0.146768
C7    C     C_R   0.033830 0.567226 0.952089 0.123816
C8    C     C_3   0.484540 0.862067 0.069071 -0.291765
C9    C     C_3   0.608562 0.999125 0.852221 -0.281998
C10   C     C_3   0.984500 0.362022 0.069143 -0.291760
C11   C     C_3   0.108608 0.499190 0.852396 -0.279496
C12   C     C_3   0.887915 0.986146 0.423156 -0.373925
C13   C     C_R   0.466878 0.498687 0.975896 -0.126184
C14   C     C_3   0.152600 0.131167 0.547935 -0.373960
C15   C     C_3   0.311659 0.293706 0.395477 -0.375666
C16   C     C_3   0.609957 0.504756 0.577915 -0.369775
C17   C     C_3   0.476739 0.926630 0.425869 -0.364784
C18   C     C_3   0.527616 0.931872 0.572120 -0.370007
C19   C     C_3   0.920712 0.476090 0.392989 -0.361257
C20   C     C_3   0.945589 0.423423 0.546430 -0.377207
C21   C     C_R   0.454962 0.483209 0.048176 -0.117379
C22   C     C_R   0.717573 0.834216 0.044113 -0.148951
C23   C     C_R   0.301714 0.867598 0.961383 -0.147838
C24   C     C_R   0.217569 0.334197 0.044124 -0.149412
C25   C     C_R   0.801711 0.367582 0.961375 -0.146979
C26   C     C_R   0.720035 0.816876 0.970913 -0.123361
C27   C     C_R   0.291374 0.841104 0.032804 -0.149464
C28   C     C_R   0.220040 0.316850 0.970924 -0.123295
C29   C     C_R   0.271288 0.372952 0.855411 0.538650
C30   C     C_R   0.791373 0.341103 0.032799 -0.149118
C31   C     C_R   0.754442 0.903330 0.927856 0.035178
C32   C     C_R   0.224044 0.852266 0.062753 0.027779
C33   C     C_R   0.254470 0.403282 0.927873 0.035442
C34   C     C_R   0.724044 0.352270 0.062748 0.026768
C35   C     C_R   0.784567 0.007513 0.957418 -0.130565
C36   C     C_R   0.166756 0.884892 0.019918 -0.137292
C37   C     C_R   0.284613 0.507447 0.957437 -0.129985
C38   C     C_R   0.666757 0.384903 0.019914 -0.137315
C39   C     C_R   0.782971 0.023312 0.029657 -0.115899
C40   C     C_R   0.212031 0.830664 0.138235 0.563417
C41   C     C_R   0.176944 0.911872 0.948750 -0.138779
C42   C     C_R   0.283007 0.523255 0.029674 -0.116273
C43   C     C_R   0.676944 0.411865 0.948742 -0.139042
C44   C     C_R   0.749479 0.937542 0.073396 0.042376
C45   C     C_R   0.244878 0.907620 0.919704 0.022452
C46   C     C_R   0.249492 0.437506 0.073410 0.040950
C47   C     C_R   0.744875 0.407602 0.919695 0.023245
C48   C     C_R   0.493914 0.047903 0.462139 0.024236
C49   C     C_R   0.504831 0.049482 0.535431 0.022923
C50   C     C_R   0.953687 0.567999 0.443611 0.017466
C51   C     C_R   0.771276 0.872980 0.855400 0.539099
C52   C     C_R   0.949730 0.552188 0.517374 0.005528
C53   C     C_R   0.493719 0.161096 0.572834 0.023507
C54   C     C_R   0.499651 0.159973 0.424298 0.017085
C55   C     C_R   0.959147 0.656201 0.562645 0.028518
C56   C     C_R   0.990501 0.669914 0.417902 0.024588
C57   C     C_R   0.533335 0.153682 0.144999 0.539694
C58   C     C_R   0.469268 0.157083 0.852767 0.548199
C59   C     C_R   0.033307 0.653683 0.145020 0.537974
C60   C     C_R   0.969251 0.657081 0.852781 0.555203
C61   C     C_R   0.487432 0.271295 0.534864 -0.160697
C62   C     C_R   0.485669 0.398236 0.933650 -0.076311
C63   C     C_R   0.494654 0.271396 0.461257 -0.171853
C64   C     C_R   0.984647 0.765621 0.533846 -0.157623
C65   C     C_R   0.004808 0.769268 0.463023 -0.169716
C66   C     C_R   0.820184 0.947704 0.459371 -0.006683
C67   C     C_R   0.212492 0.053275 0.519182 -0.018178
C68   C     C_R   0.277336 0.373117 0.451746 -0.001669
C69   C     C_R   0.670748 0.434597 0.544467 0.006753
C70   C     C_R   0.820291 0.943884 0.532608 -0.110653
C71   C     C_R   0.211301 0.029092 0.446836 -0.115879
C72   C     C_R   0.286337 0.343482 0.523074 -0.106094
C73   C     C_R   0.465599 0.368758 0.079120 -0.084855
C74   C     C_R   0.663377 0.404150 0.473082 -0.102330
C75   C     C_R   0.762830 0.896880 0.570206 0.018358
C76   C     C_R   0.252990 0.935697 0.417948 0.004289
C77   C     C_R   0.253783 0.413702 0.576323 0.014349
C78   C     C_R   0.716322 0.340916 0.436767 0.004574
C79   C     C_R   0.705201 0.849749 0.533446 -0.145202
C80   C     C_R   0.304249 0.878095 0.459367 -0.157598
C81   C     C_R   0.211249 0.514034 0.559330 -0.146932
C82   C     C_R   0.772024 0.288874 0.475435 -0.149373
C83   C     C_R   0.701312 0.862506 0.460178 -0.141603
C84   C     C_R   0.985576 0.898232 0.933708 -0.076640
C85   C     C_R   0.312175 0.911227 0.530207 -0.146208
C86   C     C_R   0.202464 0.545780 0.488221 -0.151237
C87   C     C_R   0.780044 0.316775 0.547635 -0.162482
C88   C     C_R   0.757009 0.917185 0.423030 0.043716
C89   C     C_R   0.265049 0.995125 0.561840 0.033609
C90   C     C_R   0.236132 0.477104 0.434666 0.050878
C91   C     C_R   0.734577 0.401613 0.580604 0.035712
C92   C     C_R   0.741477 0.970326 0.147224 0.538941
C93   C     C_R   0.258026 0.967031 0.851781 0.554782
C94   C     C_R   0.241483 0.470303 0.147235 0.542432
C95   C     C_R   0.965538 0.868743 0.079181 -0.084676
C96   C     C_R   0.758023 0.467020 0.851776 0.545460
C97   C     C_R   0.709889 0.328424 0.359278 0.573510
C98   C     C_R   0.269297 0.381198 0.648901 0.526172
C99   C     C_R   0.230750 0.881866 0.351012 0.546139
C100  C     C_R   0.772568 0.873445 0.645349 0.537460
C101  C     C_R   0.530255 0.156690 0.352799 0.537119
C102  C     C_R   0.468106 0.156339 0.646133 0.527891
C103  C     C_R   0.029535 0.658211 0.351598 0.533153
C104  C     C_R   0.939032 0.652338 0.638209 0.561541
C105  C     C_R   0.742887 0.968491 0.353164 0.542893
C106  C     C_R   0.966795 0.998680 0.975963 -0.126422
C107  C     C_R   0.271535 0.021227 0.638125 0.563885
C108  C     C_R   0.228643 0.518319 0.361943 0.556299
C109  C     C_R   0.756098 0.466400 0.646849 0.536780
C110  C     C_R   0.506267 0.173165 0.920891 -0.017147
C111  C     C_R   0.511035 0.156159 0.069706 -0.015925
C112  C     C_R   0.006194 0.673154 0.920940 -0.017912
C113  C     C_R   0.010965 0.656148 0.069749 -0.015074
C114  C     C_R   0.493644 0.279650 0.963335 -0.011867
C115  C     C_R   0.489808 0.267760 0.038058 -0.032125
C116  C     C_R   0.993557 0.779640 0.963385 -0.012613
Cr1   Cr    Cr6+3 0.772000 0.169640 0.250110 0.986281
Cr2   Cr    Cr6+3 0.383330 0.010620 0.749160 0.996139
Cr3   Cr    Cr6+3 0.116670 0.510620 0.250840 1.017383
Cr4   Cr    Cr6+3 0.883330 0.510620 0.749160 0.991010
Cr5   Cr    Cr6+3 0.228000 0.169640 0.749890 0.986677
Cr6   Cr    Cr6+3 0.272000 0.669640 0.250110 0.989864
Cr7   Cr    Cr6+3 0.728000 0.669640 0.749890 0.984430
Cr8   Cr    Cr6+3 0.614960 0.323350 0.249260 0.996843
Cr9   Cr    Cr6+3 0.385040 0.323350 0.750740 0.994907
Cr10  Cr    Cr6+3 0.114960 0.823350 0.249260 0.992242
Cr11  Cr    Cr6+3 0.885040 0.823350 0.750740 0.998910
Cr12  Cr    Cr6+3 0.616670 0.010620 0.250840 1.012142
H1    H     H_    0.867368 0.973884 0.560126 0.135222
H2    H     H_    0.352290 0.864871 0.561163 0.133670
H3    H     H_    0.170509 0.625211 0.474887 0.112568
H4    H     H_    0.823245 0.275847 0.576674 0.110091
H5    H     H_    0.497242 0.416275 0.878428 0.129903
H6    H     H_    0.454500 0.360304 0.135299 0.132384
H7    H     H_    0.997143 0.916289 0.878489 0.132318
H8    H     H_    0.954456 0.860284 0.135365 0.131498
H9    H     H_    0.960759 0.088589 0.952387 0.096124
H10   H     H_    0.938240 0.060428 0.080666 0.105751
H11   H     H_    0.460845 0.588593 0.952315 0.095965
H12   H     H_    0.171921 0.074085 0.414093 0.137823
H13   H     H_    0.438295 0.560442 0.080589 0.106068
H14   H     H_    0.690861 0.768362 0.077438 0.125616
H15   H     H_    0.354689 0.864372 0.940121 0.125177
H16   H     H_    0.190838 0.268362 0.077447 0.124642
H17   H     H_    0.854686 0.364349 0.940112 0.125305
H18   H     H_    0.697575 0.734125 0.948455 0.145352
H19   H     H_    0.336201 0.815166 0.064964 0.113454
H20   H     H_    0.197564 0.234115 0.948463 0.144899
H21   H     H_    0.836198 0.315165 0.064959 0.113428
H22   H     H_    0.811796 0.074146 0.924984 0.123607
H23   H     H_    0.319165 0.265680 0.537636 0.115332
H24   H     H_    0.114581 0.893863 0.042299 0.146284
H25   H     H_    0.311855 0.574068 0.925007 0.124378
H26   H     H_    0.614587 0.393898 0.042297 0.145933
H27   H     H_    0.807964 0.103756 0.051356 0.130574
H28   H     H_    0.132424 0.942855 0.917495 0.128426
H29   H     H_    0.308005 0.603699 0.051369 0.130513
H30   H     H_    0.632426 0.442854 0.917486 0.126980
H31   H     H_    0.476523 0.357036 0.562068 0.137198
H32   H     H_    0.496128 0.357961 0.433277 0.121509
H33   H     H_    0.993824 0.845528 0.566991 0.130564
H34   H     H_    0.617057 0.435401 0.444607 0.131543
H35   H     H_    0.033443 0.848372 0.444114 0.135371
H36   H     H_    0.584183 0.887197 0.028854 0.271457
H37   H     H_    0.500836 0.777865 0.097909 0.134195
H38   H     H_    0.459217 0.834643 0.018186 0.109015
H39   H     H_    0.446157 0.913283 0.102709 0.166012
H40   H     H_    0.526157 0.898244 0.899574 0.261314
H41   H     H_    0.627596 0.913493 0.827025 0.160212
H42   H     H_    0.653430 0.053390 0.872950 0.146324
H43   H     H_    0.582512 0.052428 0.809679 0.147752
H44   H     H_    0.084137 0.387199 0.028907 0.271525
H45   H     H_    0.663578 0.803787 0.561595 0.115209
H46   H     H_    0.000821 0.277834 0.097981 0.133763
H47   H     H_    0.959166 0.334576 0.018268 0.109079
H48   H     H_    0.946122 0.413224 0.102794 0.166383
H49   H     H_    0.026103 0.398288 0.899558 0.261606
H50   H     H_    0.127657 0.413590 0.827179 0.161026
H51   H     H_    0.153454 0.553391 0.873231 0.146395
H52   H     H_    0.082632 0.552607 0.809860 0.156377
H53   H     H_    0.933192 0.984352 0.460374 0.098352
H54   H     H_    0.900104 0.922851 0.378271 0.151563
H55   H     H_    0.885030 0.082084 0.404214 0.148057
H56   H     H_    0.335348 0.802844 0.438121 0.130876
H57   H     H_    0.119255 0.170476 0.504998 0.102632
H58   H     H_    0.117516 0.074493 0.581467 0.152609
H59   H     H_    0.172460 0.209347 0.578639 0.175179
H60   H     H_    0.337523 0.211578 0.418948 0.124553
H61   H     H_    0.271389 0.261106 0.357046 0.150437
H62   H     H_    0.352556 0.346427 0.366895 0.156928
H63   H     H_    0.562799 0.506634 0.543022 0.090177
H64   H     H_    0.594172 0.460767 0.628596 0.147483
H65   H     H_    0.624111 0.602137 0.586678 0.154313
H66   H     H_    0.525558 0.878794 0.408398 0.149706
H67   H     H_    0.186332 0.568458 0.600725 0.119820
H68   H     H_    0.449377 0.864063 0.462727 0.102618
H69   H     H_    0.440786 0.941485 0.379999 0.145528
H70   H     H_    0.564065 0.952131 0.616885 0.140002
H71   H     H_    0.481245 0.879995 0.591169 0.147343
H72   H     H_    0.556390 0.870954 0.534852 0.100906
H73   H     H_    0.954571 0.393155 0.387562 0.139087
H74   H     H_    0.867978 0.449730 0.412827 0.142299
H75   H     H_    0.912190 0.516451 0.339493 0.145169
H76   H     H_    0.901803 0.417424 0.583681 0.174542
H77   H     H_    0.938149 0.351071 0.505644 0.101181
H78   H     H_    0.810726 0.231298 0.449437 0.130841
H79   H     H_    0.995432 0.401002 0.574591 0.149204
H80   H     H_    0.653687 0.834250 0.433117 0.124967
N1    N     N_2   0.545743 0.936323 0.055078 -0.461300
N2    N     N_2   0.560970 0.968497 0.909668 -0.521589
N3    N     N_2   0.045684 0.436308 0.055123 -0.461304
N4    N     N_2   0.060919 0.468500 0.909742 -0.522771
O1    O     O_R   0.787540 0.042690 0.170470 -0.543102
O2    O     O_R   0.454130 0.051100 0.669160 -0.536190
O3    O     O_R   0.045870 0.551100 0.330840 -0.522289
O4    O     O_R   0.954130 0.551100 0.669160 -0.533274
O5    O     O_R   0.681340 0.959300 0.325510 -0.505654
O6    O     O_R   0.318660 0.959300 0.674490 -0.506141
O7    O     O_R   0.181340 0.459300 0.325510 -0.499149
O8    O     O_R   0.818660 0.459300 0.674490 -0.529413
O9    O     O_3   0.667880 0.167870 0.250070 -0.281759
O10   O     O_3   0.332120 0.167870 0.749930 -0.253781
O11   O     O_3   0.167880 0.667870 0.250070 -0.277579
O12   O     O_R   0.212460 0.042690 0.829530 -0.524115
O13   O     O_3   0.832120 0.667870 0.749930 -0.248676
O14   O     O_R   0.765660 0.292160 0.175050 -0.504442
O15   O     O_R   0.234340 0.292160 0.824950 -0.518897
O16   O     O_R   0.265660 0.792160 0.175050 -0.510796
O17   O     O_R   0.734340 0.792160 0.824950 -0.517837
O18   O     O_R   0.670190 0.408980 0.168550 -0.507178
O19   O     O_R   0.329810 0.408980 0.831450 -0.516499
O20   O     O_R   0.170190 0.908980 0.168550 -0.513421
O21   O     O_R   0.829810 0.908980 0.831450 -0.516762
O22   O     O_R   0.556580 0.251450 0.175160 -0.532256
O23   O     O_R   0.287540 0.542690 0.170470 -0.539835
O24   O     O_R   0.443420 0.251450 0.824840 -0.511865
O25   O     O_R   0.056580 0.751450 0.175160 -0.531584
O26   O     O_R   0.943420 0.751450 0.824840 -0.508092
O27   O     O_R   0.545920 0.049510 0.170320 -0.474118
O28   O     O_R   0.454080 0.049510 0.829680 -0.513545
O29   O     O_R   0.045920 0.549510 0.170320 -0.476185
O30   O     O_R   0.954080 0.549510 0.829680 -0.510525
O31   O     O_R   0.681390 0.957840 0.176710 -0.486281
O32   O     O_R   0.318610 0.957840 0.823290 -0.498762
O33   O     O_R   0.181390 0.457840 0.176710 -0.485378
O34   O     O_R   0.712460 0.542690 0.829530 -0.529163
O35   O     O_R   0.818610 0.457840 0.823290 -0.502925
O36   O     O_R   0.787500 0.044280 0.330990 -0.537490
O37   O     O_R   0.212500 0.044280 0.669010 -0.521458
O38   O     O_R   0.287500 0.544280 0.330990 -0.523454
O39   O     O_R   0.712500 0.544280 0.669010 -0.525545
O40   O     O_R   0.765610 0.293630 0.323860 -0.502239
O41   O     O_R   0.234390 0.293630 0.676140 -0.534110
O42   O     O_R   0.265610 0.793630 0.323860 -0.512959
O43   O     O_R   0.734390 0.793630 0.676140 -0.509804
O44   O     O_R   0.670140 0.410570 0.329080 -0.515427
O45   O     O_R   0.556540 0.252920 0.323970 -0.524227
O46   O     O_R   0.329860 0.410570 0.670920 -0.510513
O47   O     O_R   0.170140 0.910570 0.329080 -0.523178
O48   O     O_R   0.829860 0.910570 0.670920 -0.537547
O49   O     O_R   0.443460 0.252920 0.676030 -0.511601
O50   O     O_R   0.056540 0.752920 0.323970 -0.511731
O51   O     O_R   0.943460 0.752920 0.676030 -0.508946
O52   O     O_R   0.545870 0.051100 0.330840 -0.523922

loop_
_geom_bond_atom_site_label_1
_geom_bond_atom_site_label_2
_ccdc_geom_bond_type
C1    O14   A    
C10   H46   S    
C79   C83   A    
C100  O48   A    
C84   H7    S    
Cr3   O3    S    
C23   C45   A    
C87   C91   A    
C51   O17   A    
C79   H45   S    
C54   C101  S    
Cr1   O9    S    
C87   H4    S    
C17   C48   S    
C67   C89   A    
C3    C95   A    
Cr8   O44   S    
H44   N3    S    
C45   C93   S    
Cr4   O13   S    
C57   O22   A    
C9    H42   S    
C105  O36   A    
C76   C80   A    
Cr9   O10   S    
Cr12  O27   S    
C48   C54   A    
C5    N2    S    
C83   H80   S    
Cr10  O47   S    
C13   H11   S    
H49   N4    S    
C2    C95   A    
C16   H63   S    
C24   H16   S    
C62   C114  A    
C99   O42   A    
C58   O24   A    
C3    C116  A    
C61   H31   S    
C66   C88   A    
C71   C76   A    
C14   H58   S    
C92   O31   A    
C94   O23   A    
C50   C52   A    
C12   H55   S    
Cr2   O10   S    
C54   C63   A    
C19   H74   S    
C43   H30   S    
C56   C65   A    
C29   C33   S    
C19   H73   S    
C7    C112  A    
Cr10  O50   S    
C61   C63   A    
C42   C46   A    
C37   C42   A    
C26   H18   S    
C75   C100  S    
C16   H65   S    
C16   H64   S    
C72   C77   A    
Cr8   O18   S    
C108  O7    A    
C53   C61   A    
C1    O18   A    
C102  O2    A    
C22   C44   A    
C13   C62   A    
C101  O45   A    
Cr2   O6    S    
C68   C90   A    
C14   C67   S    
C17   H69   S    
C104  O51   A    
C23   C27   A    
C40   O20   A    
C100  O43   A    
Cr8   O45   S    
C9    N2    S    
C96   O35   A    
Cr7   O43   S    
C81   C86   A    
C44   C92   S    
C52   C55   A    
C68   C72   A    
C41   H28   S    
Cr8   O22   S    
C98   O46   A    
C80   H56   S    
Cr6   O23   S    
C15   H61   S    
C57   C111  S    
C26   C31   A    
C84   C116  A    
C58   C110  S    
Cr3   O7    S    
C23   H15   S    
C36   C41   A    
C20   H77   S    
C58   O28   A    
C96   O34   A    
C90   C108  S    
Cr1   O40   S    
Cr2   O32   S    
C1    C34   S    
C114  C115  A    
C97   O40   A    
C11   N4    S    
C10   H48   S    
C21   C73   A    
C12   H54   S    
Cr1   O14   S    
Cr11  O21   S    
C28   H20   S    
C30   C34   A    
C2    H10   S    
H40   N2    S    
C69   C74   A    
C104  O4    A    
C3    C113  A    
C47   C96   S    
C74   H34   S    
C14   H57   S    
C85   C89   A    
Cr10  O11   S    
C36   H24   S    
C106  H9    S    
C6    N3    S    
Cr9   O19   S    
C12   C66   S    
C55   C104  S    
C2    C106  A    
C70   H1    S    
C33   C37   A    
C4    N1    S    
C108  O38   A    
C76   C99   S    
C9    H41   S    
C40   O16   A    
C5    C110  A    
Cr10  O20   S    
C6    C113  A    
Cr7   O39   S    
C80   C85   A    
C60   C112  S    
C8    H39   S    
C37   H25   S    
C85   H2    S    
Cr6   O38   S    
C107  O6    A    
C78   C82   A    
Cr5   O10   S    
C84   C106  A    
C12   H53   S    
C46   C94   S    
C99   O47   A    
C53   C102  S    
Cr4   O8    S    
C72   H23   S    
Cr6   O16   S    
C55   C64   A    
C65   H35   S    
C78   C97   S    
Cr3   O11   S    
C102  O49   A    
C13   C21   A    
C77   C98   S    
Cr2   O2    S    
C11   H50   S    
Cr4   O30   S    
C10   H47   S    
Cr1   O1    S    
C4    C5    A    
Cr3   O29   S    
C29   O19   A    
C39   C44   A    
C8    H38   S    
C97   O44   A    
Cr7   O13   S    
C17   H66   S    
C48   C49   A    
Cr4   O35   S    
C15   H62   S    
C28   C33   A    
C105  O5    A    
Cr6   O11   S    
C86   C90   A    
C31   C35   A    
C9    H43   S    
H36   N1    S    
C11   H51   S    
C29   O15   A    
Cr9   O49   S    
C8    N1    S    
C103  O3    A    
C110  C114  A    
C82   H78   S    
C32   C40   S    
C62   H5    S    
Cr11  O13   S    
Cr1   O36   S    
Cr2   O28   S    
C25   C30   A    
C25   C47   A    
C109  O39   A    
C41   C45   A    
C7    N4    S    
C59   O25   A    
C27   C32   A    
C34   C38   A    
C4    C111  A    
C16   C69   S    
C24   C28   A    
C56   C103  S    
C31   C51   S    
C59   C113  S    
C30   H21   S    
C93   O32   A    
C73   C115  A    
Cr12  O9    S    
Cr6   O42   S    
Cr7   O34   S    
C25   H17   S    
C22   H14   S    
C32   C36   A    
Cr5   O41   S    
C71   H12   S    
C19   H75   S    
Cr4   O4    S    
C15   H60   S    
C74   C78   A    
C60   O30   A    
Cr5   O37   S    
Cr5   O15   S    
C51   O21   A    
C59   O29   A    
C24   C46   A    
C64   C65   A    
C91   C109  S    
Cr3   O33   S    
C21   H13   S    
C81   H67   S    
C20   C52   S    
Cr9   O24   S    
C18   H72   S    
C14   H59   S    
Cr10  O25   S    
C19   C50   S    
C15   C68   S    
C64   H33   S    
C66   C70   A    
C75   C79   A    
C92   O1    A    
C49   C53   A    
C35   C39   A    
Cr9   O46   S    
C107  O37   A    
Cr12  O5    S    
C95   H8    S    
Cr5   O12   S    
Cr11  O51   S    
C88   C105  S    
C6    C7    A    
C93   O12   A    
C67   C71   A    
Cr12  O52   S    
C35   H22   S    
C57   O27   A    
C86   H3    S    
C94   O33   A    
C50   C56   A    
C20   H76   S    
C8    H37   S    
C63   H32   S    
C89   C107  S    
C42   H29   S    
C10   N3    S    
C38   C43   A    
C60   O26   A    
C73   H6    S    
C70   C75   A    
Cr11  O26   S    
C27   H19   S    
C77   C81   A    
C22   C26   A    
C101  O52   A    
C39   H27   S    
C18   H71   S    
C109  O8    A    
Cr12  O31   S    
C38   H26   S    
Cr11  O48   S    
C112  C116  A    
C17   H68   S    
C111  C115  A    
C11   H52   S    
C20   H79   S    
C69   C91   A    
C83   C88   A    
C43   C47   A    
Cr7   O17   S    
C98   O41   A    
C103  O50   A    
C18   H70   S    
C82   C87   A    
C18   C49   S    
Cr8   O9    S    
