data_mof_unit_36284.cif
_audit_creation_date              2012-12-10T18:57:11-0500
_audit_creation_method            fapswitch 2.2
_symmetry_space_group_name_H-M    P1
_symmetry_Int_Tables_number       1
_space_group_crystal_system       triclinic
_cell_length_a                    10.773132
_cell_length_b                    9.948206
_cell_length_c                    10.772551
_cell_angle_alpha                 92.403872
_cell_angle_beta                  93.017663
_cell_angle_gamma                 91.056632
_cell_volume                      1151.66801311

loop_
_atom_site_label
_atom_site_type_symbol
_atom_type_description
_atom_site_fract_x
_atom_site_fract_y
_atom_site_fract_z
_atom_type_partial_charge
C1    C     C_R   0.260819 0.499323 0.510713 0.959183
C2    C     C_R   0.556933 0.588048 0.946962 -0.016980
C3    C     C_R   0.482697 0.495920 0.129057 -0.106371
C4    C     C_R   0.478201 0.506957 0.870042 -0.134627
C5    C     C_R   0.383059 0.430182 0.057145 0.170858
C6    C     C_R   0.385589 0.428082 0.924686 0.124907
C7    C     C_3   0.663393 0.686716 0.948639 0.303418
C8    C     C_3   0.676181 0.667583 0.092939 0.263133
C9    C     C_R   0.060166 0.374688 0.508441 0.306019
C10   C     C_R   0.934486 0.375578 0.475970 0.323629
C11   C     C_R   0.872451 0.499248 0.476313 -0.419110
C12   C     C_R   0.739152 0.500104 0.488598 0.950588
C13   C     C_R   0.127535 0.497909 0.520793 -0.411065
C14   C     C_R   0.940696 0.621248 0.484379 0.349766
C15   C     C_R   0.065010 0.621080 0.520668 0.355488
C16   C     C_3   0.270389 0.376519 0.118436 -0.853486
C17   C     C_3   0.288954 0.349554 0.841862 -0.748703
C18   C     C_3   0.770310 0.634649 0.871173 -0.771884
C19   C     C_3   0.654139 0.793473 0.177450 -0.701287
C20   C     C_3   0.615505 0.825183 0.910206 -0.754078
C21   C     C_3   0.789449 0.588658 0.140981 -0.795596
C22   C     C_3   0.674407 0.149236 0.667844 -0.643123
C23   C     C_R   0.583469 0.076169 0.575761 0.153688
C24   C     C_3   0.334519 0.126954 0.326230 -0.655625
C25   C     C_R   0.419595 0.065053 0.421147 0.125644
C26   C     C_R   0.586953 0.933339 0.569820 0.369885
C27   C     C_R   0.418183 0.921943 0.423514 0.414485
C28   C     C_R   0.494329 0.497848 0.260786 0.897768
C29   C     C_R   0.494351 0.502312 0.739151 0.874615
C30   C     C_R   0.563801 0.576893 0.070305 -0.013198
Cl1   Cl    Cl    0.125419 0.217921 0.546062 -0.494232
Cl2   Cl    Cl    0.862304 0.221413 0.418886 -0.483624
Cl3   Cl    Cl    0.881849 0.772244 0.426394 -0.448893
Cl4   Cl    Cl    0.134971 0.776882 0.576477 -0.418607
Cl5   Cl    Cl    0.713522 0.855555 0.643327 -0.567332
Cl6   Cl    Cl    0.315205 0.826063 0.320391 -0.537933
H1    H     H_    0.185050 0.420731 0.076230 0.253591
H2    H     H_    0.671320 0.772068 0.276624 0.291486
H3    H     H_    0.718832 0.876403 0.155841 0.252193
H4    H     H_    0.556811 0.827749 0.167912 0.228539
H5    H     H_    0.543474 0.865012 0.970491 0.212839
H6    H     H_    0.693515 0.899771 0.911051 0.259871
H7    H     H_    0.566510 0.816174 0.817779 0.278950
H8    H     H_    0.795786 0.488896 0.091917 0.223052
H9    H     H_    0.876400 0.647939 0.130924 0.271846
H10   H     H_    0.780919 0.568498 0.240397 0.243540
H11   H     H_    0.670051 0.258272 0.670563 0.260125
H12   H     H_    0.264214 0.265416 0.105632 0.245300
H13   H     H_    0.657389 0.117130 0.763093 0.196196
H14   H     H_    0.771175 0.124545 0.646418 0.294109
H15   H     H_    0.336065 0.235813 0.335381 0.270417
H16   H     H_    0.363100 0.097064 0.231636 0.207640
H17   H     H_    0.237095 0.092596 0.335986 0.294632
H18   H     H_    0.270619 0.405707 0.218715 0.229634
H19   H     H_    0.215862 0.299929 0.893081 0.244956
H20   H     H_    0.242018 0.418296 0.776683 0.230291
H21   H     H_    0.333995 0.268282 0.788083 0.272700
H22   H     H_    0.853877 0.701037 0.888799 0.268800
H23   H     H_    0.794694 0.529884 0.891815 0.201228
H24   H     H_    0.742543 0.632117 0.770830 0.276965
N1    N     N_R   0.500000 0.857200 0.500000 -0.176535
N2    N     N_R   0.500000 0.142810 0.500000 -0.114594
O1    O     O_R   0.316770 0.614620 0.499990 -0.526082
O2    O     O_R   0.683230 0.614620 0.500010 -0.544545
O3    O     O_R   0.316800 0.385290 0.500000 -0.602522
O4    O     O_R   0.683200 0.385290 0.500000 -0.586691
O5    O     O_R   0.500000 0.614690 0.316780 -0.590788
O6    O     O_R   0.500000 0.614690 0.683220 -0.603307
O7    O     O_R   0.500020 0.385360 0.316780 -0.632457
O8    O     O_R   0.499980 0.385360 0.683220 -0.642530
Zn1   Zn    Zn3+2 0.500000 0.653120 0.500000 1.059613
Zn2   Zn    Zn3+2 0.500000 0.346880 0.500000 0.984219

loop_
_geom_bond_atom_site_label_1
_geom_bond_atom_site_label_2
_ccdc_geom_bond_type
C24   H16   S    
O7    Zn2   S    
C2    C4    A    
C11   C12   S    
C19   H2    S    
C27   Cl6   S    
C3    C30   A    
O3    Zn2   S    
C9    C10   A    
C17   H19   S    
C15   Cl4   S    
C20   H6    S    
C4    C29   S    
C2    C30   A    
C16   H1    S    
C22   H14   S    
C7    C18   S    
C8    C30   S    
N1    Zn1   S    
C14   Cl3   S    
C13   C15   A    
C8    C21   S    
N2    Zn2   S    
C7    C8    S    
C16   H18   S    
C17   H20   S    
C16   H12   S    
C19   H3    S    
C24   H15   S    
O6    Zn1   S    
C19   H4    S    
C1    O1    A    
C18   H24   S    
C3    C28   S    
C26   N1    A    
O1    Zn1   S    
C20   H5    S    
C21   H9    S    
C25   N2    A    
C22   H13   S    
C5    C6    A    
C12   O2    A    
C11   C14   A    
C22   H11   S    
C20   H7    S    
C23   C26   A    
C8    C19   S    
C25   C27   A    
C10   C11   A    
C9    Cl1   S    
C23   N2    A    
O5    Zn1   S    
C29   O6    A    
C10   Cl2   S    
C18   H23   S    
C28   O5    A    
C1    C13   S    
C24   C25   S    
C4    C6    A    
C21   H10   S    
C21   H8    S    
O2    Zn1   S    
C26   Cl5   S    
C6    C17   S    
C9    C13   A    
C14   C15   A    
C5    C16   S    
O8    Zn2   S    
C27   N1    A    
C2    C7    S    
C24   H17   S    
C29   O8    A    
C12   O4    A    
C1    O3    A    
C7    C20   S    
C22   C23   S    
O4    Zn2   S    
C28   O7    A    
C17   H21   S    
C18   H22   S    
C3    C5    A    
