data_mof_unit_60933.cif
_audit_creation_date              2013-03-05T16:21:52-0500
_audit_creation_method            fapswitch 2.2
_symmetry_space_group_name_H-M    P1
_symmetry_Int_Tables_number       1
_space_group_crystal_system       triclinic
_cell_length_a                    30.754093
_cell_length_b                    30.696015
_cell_length_c                    24.782853
_cell_angle_alpha                 90.032267
_cell_angle_beta                  128.408094
_cell_angle_gamma                 90.020039
_cell_volume                      18333.0012518

loop_
_atom_site_label
_atom_site_type_symbol
_atom_site_description
_atom_site_fract_x
_atom_site_fract_y
_atom_site_fract_z
_atom_type_partial_charge
O1    O     O_R   0.821190 0.768980 0.500000 -0.585956
O2    O     O_R   0.178810 0.768980 0.500000 -0.584759
O3    O     O_R   0.321190 0.268980 0.500000 -0.584426
O4    O     O_R   0.678810 0.268980 0.500000 -0.585661
O5    O     O_R   0.768960 0.821170 0.500020 -0.584228
O6    O     O_R   0.231040 0.821170 0.499980 -0.578810
O7    O     O_R   0.268960 0.321170 0.500020 -0.578606
O8    O     O_R   0.731040 0.321170 0.499980 -0.583968
C1    C     C_R   0.809570 0.809579 0.500439 0.826677
C2    C     C_R   0.190628 0.809381 0.499601 0.828101
C3    C     C_R   0.308841 0.309354 0.499361 0.827799
C4    C     C_R   0.690934 0.309574 0.500632 0.826619
O9    O     O_R   0.726180 0.723900 0.400140 -0.584763
O10   O     O_R   0.273820 0.723900 0.599860 -0.585297
O11   O     O_R   0.226180 0.223900 0.400140 -0.587579
O12   O     O_R   0.773820 0.223900 0.599860 -0.586174
O13   O     O_R   0.673950 0.776090 0.400160 -0.585728
O14   O     O_R   0.326050 0.776090 0.599840 -0.584238
O15   O     O_R   0.173950 0.276090 0.400160 -0.586854
O16   O     O_R   0.826050 0.276090 0.599840 -0.583534
C5    C     C_R   0.683656 0.749961 0.367413 0.779502
C6    C     C_R   0.316343 0.749990 0.632581 0.781517
C7    C     C_R   0.183719 0.250016 0.367412 0.775963
C8    C     C_R   0.816376 0.249962 0.632581 0.780967
Cu1   Cu    Cu3+1 0.780910 0.719090 0.500000 0.960718
Cu2   Cu    Cu3+1 0.219090 0.719090 0.500000 0.952829
Cu3   Cu    Cu3+1 0.280910 0.219090 0.500000 0.951355
Cu4   Cu    Cu3+1 0.719090 0.219090 0.500000 0.959556
Cu5   Cu    Cu3+1 0.719070 0.780890 0.500010 0.964036
Cu6   Cu    Cu3+1 0.280930 0.780890 0.499990 0.962518
Cu7   Cu    Cu3+1 0.219070 0.280890 0.500010 0.964246
Cu8   Cu    Cu3+1 0.780930 0.280890 0.499990 0.967347
O17   O     O_R   0.731010 0.678810 0.499990 -0.576219
O18   O     O_R   0.268990 0.678810 0.500010 -0.582517
O19   O     O_R   0.231010 0.178810 0.499990 -0.584552
O20   O     O_R   0.768990 0.178810 0.500010 -0.577283
O21   O     O_R   0.678790 0.731000 0.500010 -0.582967
O22   O     O_R   0.321210 0.731000 0.499990 -0.585861
O23   O     O_R   0.178790 0.231000 0.500010 -0.582592
O24   O     O_R   0.821210 0.231000 0.499990 -0.583669
O25   O     O_R   0.826030 0.723890 0.599860 -0.587063
O26   O     O_R   0.173970 0.723890 0.400140 -0.586696
O27   O     O_R   0.326030 0.223890 0.599860 -0.585969
O28   O     O_R   0.673970 0.223890 0.400140 -0.584982
O29   O     O_R   0.773800 0.776080 0.599870 -0.583098
O30   O     O_R   0.226200 0.776080 0.400130 -0.586724
O31   O     O_R   0.273800 0.276080 0.599870 -0.583068
O32   O     O_R   0.726200 0.276080 0.400130 -0.584611
C9    C     C_R   0.690530 0.690602 0.499899 0.797426
C10   C     C_R   0.309175 0.690674 0.499661 0.801670
C11   C     C_R   0.190311 0.190660 0.499413 0.798048
C12   C     C_R   0.809157 0.190696 0.499619 0.795489
C13   C     C_R   0.816272 0.749971 0.632603 0.781015
C14   C     C_R   0.183667 0.749998 0.367404 0.778001
C15   C     C_R   0.316273 0.249971 0.632599 0.782623
C16   C     C_R   0.683705 0.249955 0.367397 0.779025
C17   C     C_R   0.611418 0.786009 0.254744 -0.176715
C18   C     C_R   0.387841 0.786406 0.745321 -0.171186
C19   C     C_R   0.111646 0.286140 0.254719 -0.181531
C20   C     C_R   0.887953 0.286363 0.745275 -0.174125
H1    H     H_    0.612689 0.814369 0.281715 0.156110
H2    H     H_    0.385967 0.815031 0.718411 0.156044
H3    H     H_    0.112851 0.314478 0.281677 0.153735
H4    H     H_    0.886027 0.314991 0.718336 0.155300
C21   C     C_R   0.575819 0.786157 0.182786 -0.149494
C22   C     C_R   0.423432 0.786546 0.817283 -0.144111
C23   C     C_R   0.076136 0.286305 0.182757 -0.153140
C24   C     C_R   0.923616 0.286512 0.817231 -0.150380
H5    H     H_    0.550120 0.814506 0.155886 0.155243
H6    H     H_    0.448553 0.815163 0.844277 0.155603
H7    H     H_    0.050424 0.314644 0.155832 0.153175
H8    H     H_    0.948727 0.315141 0.844182 0.153556
C25   C     C_R   0.572896 0.749863 0.146077 0.052913
C26   C     C_R   0.427091 0.749906 0.853876 0.052454
C27   C     C_R   0.073286 0.250023 0.146073 0.054654
C28   C     C_R   0.927351 0.249875 0.853873 0.054139
C29   C     C_R   0.606643 0.713574 0.182770 -0.150418
C30   C     C_R   0.394076 0.713281 0.817067 -0.148216
C31   C     C_R   0.107068 0.213757 0.182792 -0.153804
C32   C     C_R   0.894358 0.213227 0.817113 -0.151538
H9    H     H_    0.605437 0.685211 0.155857 0.154762
H10   H     H_    0.395857 0.684645 0.843884 0.154260
H11   H     H_    0.105938 0.185413 0.155904 0.152475
H12   H     H_    0.896212 0.184588 0.843973 0.152852
C33   C     C_R   0.643017 0.713767 0.254729 -0.180029
C34   C     C_R   0.357699 0.713470 0.745112 -0.179289
C35   C     C_R   0.143348 0.213934 0.254746 -0.181687
C36   C     C_R   0.857902 0.213407 0.745152 -0.183710
H13   H     H_    0.668718 0.685424 0.281689 0.156267
H14   H     H_    0.332579 0.684858 0.718041 0.151726
H15   H     H_    0.169060 0.185598 0.281717 0.153091
H16   H     H_    0.832799 0.184783 0.718110 0.151730
C37   C     C_R   0.645571 0.749910 0.291384 -0.034399
C38   C     C_R   0.354431 0.749959 0.708587 -0.030987
C39   C     C_R   0.145769 0.250033 0.291381 -0.031342
C40   C     C_R   0.854534 0.249910 0.708584 -0.030031
N1    N     N_R   0.517573 0.711829 0.034197 -0.233780
N2    N     N_R   0.483181 0.711838 0.965612 -0.233846
N3    N     N_R   0.018000 0.211920 0.034257 -0.236048
N4    N     N_R   0.983571 0.211879 0.965671 -0.236455
C41   C     C_R   0.465096 0.749896 0.930001 0.407784
C42   C     C_R   0.534901 0.749873 0.069952 0.406537
C43   C     C_R   0.965401 0.249910 0.929998 0.407611
C44   C     C_R   0.035284 0.249988 0.069949 0.406667
N5    N     N_R   0.482606 0.787941 0.965756 -0.230470
N6    N     N_R   0.516636 0.787928 0.034341 -0.232104
N7    N     N_R   0.982868 0.287981 0.965690 -0.234317
N8    N     N_R   0.016934 0.288017 0.034275 -0.235618
C45   C     C_R   0.894573 0.834064 0.518381 0.138160
C46   C     C_R   0.102788 0.848831 0.443756 0.099228
C47   C     C_R   0.337998 0.350724 0.441934 0.094474
C48   C     C_R   0.620598 0.333291 0.513357 0.145207
C49   C     C_R   0.844244 0.843783 0.504433 -0.171038
C50   C     C_R   0.158441 0.843396 0.499610 -0.140512
C51   C     C_R   0.341175 0.343286 0.499588 -0.137885
C52   C     C_R   0.660340 0.343609 0.505170 -0.172007
C53   C     C_R   0.828675 0.887806 0.497541 -0.250641
C54   C     C_R   0.185002 0.875030 0.551598 -0.250569
C55   C     C_R   0.369972 0.372911 0.554338 -0.252980
C56   C     C_R   0.671975 0.387867 0.504182 -0.252914
H17   H     H_    0.791140 0.896403 0.490133 0.209335
H18   H     H_    0.229307 0.872937 0.592908 0.179553
H19   H     H_    0.369513 0.369198 0.597490 0.179883
H20   H     H_    0.704604 0.396907 0.501444 0.208020
C57   C     C_R   0.858955 0.920851 0.494923 0.312680
C58   C     C_R   0.154017 0.907655 0.553407 0.333286
C59   C     C_R   0.402880 0.405457 0.556245 0.331092
C60   C     C_R   0.638897 0.420808 0.501378 0.316497
C61   C     C_R   0.906289 0.909057 0.500823 -0.190319
C62   C     C_R   0.095685 0.909457 0.500236 -0.228211
C63   C     C_R   0.404678 0.409354 0.500461 -0.229430
C64   C     C_R   0.594302 0.408741 0.501029 -0.187877
C65   C     C_R   0.925330 0.866240 0.517384 0.069882
C66   C     C_R   0.072076 0.881515 0.443794 0.108966
C67   C     C_R   0.368873 0.383405 0.442162 0.109107
C68   C     C_R   0.588652 0.365355 0.512164 0.065694
C69   C     C_3   0.942004 0.836814 0.485123 -0.506640
C70   C     C_3   0.021833 0.853164 0.409031 -0.448330
C71   C     C_3   0.380496 0.356365 0.402272 -0.442168
C72   C     C_3   0.538178 0.337155 0.473882 -0.503999
C73   C     C_3   0.908008 0.801399 0.486087 -0.409676
C74   C     C_3   0.055864 0.817200 0.409185 -0.458403
C75   C     C_3   0.346581 0.320366 0.402332 -0.460084
C76   C     C_3   0.573314 0.301885 0.474889 -0.412347
H21   H     H_    0.924723 0.847266 0.432264 0.202593
H22   H     H_    0.010281 0.845990 0.442527 0.187186
H23   H     H_    0.360729 0.369959 0.350191 0.205636
H24   H     H_    0.525117 0.328906 0.505592 0.200207
H25   H     H_    0.987303 0.830032 0.520342 0.201484
H26   H     H_    0.987366 0.864973 0.356516 0.206101
H27   H     H_    0.425148 0.348167 0.432481 0.187021
H28   H     H_    0.504631 0.349608 0.421357 0.204703
H29   H     H_    0.870985 0.791325 0.433805 0.201184
H30   H     H_    0.063921 0.789201 0.442749 0.211678
H31   H     H_    0.307239 0.313239 0.350299 0.198564
H32   H     H_    0.580172 0.273288 0.506841 0.200383
H33   H     H_    0.933722 0.774204 0.521714 0.198682
H34   H     H_    0.041157 0.808360 0.356760 0.195552
H35   H     H_    0.371636 0.291311 0.432745 0.211547
H36   H     H_    0.560361 0.293957 0.422951 0.196957
C77   C     C_R   0.836446 0.765724 0.745212 -0.176234
C78   C     C_R   0.163642 0.765046 0.254784 -0.179921
C79   C     C_R   0.336454 0.265596 0.745242 -0.174054
C80   C     C_R   0.663626 0.265253 0.254782 -0.178684
H37   H     H_    0.794651 0.777966 0.718195 0.153713
H38   H     H_    0.205728 0.776642 0.281775 0.150413
H39   H     H_    0.294625 0.277750 0.718256 0.154141
H40   H     H_    0.705584 0.277165 0.281786 0.152087
C81   C     C_R   0.872208 0.765304 0.817166 -0.151033
C82   C     C_R   0.127782 0.764642 0.182835 -0.152247
C83   C     C_R   0.372248 0.265152 0.817199 -0.147578
C84   C     C_R   0.627801 0.264815 0.182828 -0.148677
H41   H     H_    0.857312 0.777556 0.844017 0.152847
H42   H     H_    0.142902 0.776266 0.155946 0.152287
H43   H     H_    0.357345 0.277300 0.844092 0.153428
H44   H     H_    0.642813 0.276729 0.155951 0.153786
C85   C     C_R   0.926801 0.749860 0.853935 0.054174
C86   C     C_R   0.072835 0.749995 0.146121 0.055480
C87   C     C_R   0.426884 0.249819 0.853917 0.054003
C88   C     C_R   0.573006 0.249789 0.146092 0.054635
C89   C     C_R   0.944738 0.734442 0.817307 -0.150409
C90   C     C_R   0.054617 0.735394 0.182803 -0.152891
C91   C     C_R   0.444834 0.234532 0.817245 -0.145434
C92   C     C_R   0.554925 0.234799 0.182747 -0.149638
H45   H     H_    0.986511 0.722172 0.844268 0.152948
H46   H     H_    0.012557 0.723767 0.155881 0.152029
H47   H     H_    0.486639 0.222347 0.844171 0.153843
H48   H     H_    0.512992 0.222855 0.155804 0.152647
C93   C     C_R   0.908636 0.734089 0.745348 -0.176960
C94   C     C_R   0.090810 0.735009 0.254766 -0.183066
C95   C     C_R   0.408701 0.234194 0.745289 -0.173551
C96   C     C_R   0.591086 0.234450 0.254707 -0.175937
H49   H     H_    0.923501 0.721874 0.718439 0.152949
H50   H     H_    0.075746 0.723442 0.281752 0.149609
H51   H     H_    0.423574 0.222075 0.718343 0.154468
H52   H     H_    0.576117 0.222574 0.281655 0.151001
C97   C     C_R   0.854243 0.749929 0.708632 -0.030203
C98   C     C_R   0.145578 0.750010 0.291403 -0.026565
C99   C     C_R   0.354265 0.249926 0.708622 -0.032122
C100  C     C_R   0.645680 0.249882 0.291382 -0.028216
N9    N     N_R   0.020681 0.749367 0.965817 -0.234981
N10   N     N_R   0.978921 0.750248 0.034242 -0.236236
N11   N     N_R   0.520792 0.249534 0.965761 -0.231058
N12   N     N_R   0.479082 0.249834 0.034248 -0.234442
N13   N     N_R   0.054958 0.749581 0.034398 -0.235636
N14   N     N_R   0.944646 0.750395 0.965656 -0.235660
N15   N     N_R   0.555093 0.249707 0.034344 -0.233213
N16   N     N_R   0.444782 0.250026 0.965663 -0.234801
C101  C     C_R   0.034773 0.749936 0.070001 0.407110
C102  C     C_R   0.964833 0.749865 0.930055 0.408243
C103  C     C_R   0.534933 0.249767 0.069975 0.408870
C104  C     C_R   0.464944 0.249787 0.930033 0.410087
C105  C     C_R   0.601274 0.663745 0.466296 0.135888
C106  C     C_R   0.356447 0.619534 0.535639 0.116048
C107  C     C_R   0.181134 0.127561 0.552925 0.088968
C108  C     C_R   0.881827 0.134803 0.559158 0.085244
C109  C     C_R   0.658139 0.657698 0.502507 -0.091361
C110  C     C_R   0.341949 0.657780 0.498399 -0.083519
C111  C     C_R   0.156724 0.158019 0.499905 -0.070175
C112  C     C_R   0.842790 0.158112 0.499457 -0.052955
C113  C     C_R   0.683795 0.620970 0.545055 -0.195770
C114  C     C_R   0.361304 0.663694 0.460017 -0.201100
C115  C     C_R   0.098563 0.159888 0.451718 -0.201263
C116  C     C_R   0.842089 0.153955 0.442523 -0.196706
H53   H     H_    0.728326 0.616687 0.576751 0.165920
H54   H     H_    0.351040 0.692937 0.429808 0.156526
H55   H     H_    0.078436 0.184943 0.412470 0.151601
H56   H     H_    0.814720 0.173972 0.397204 0.142515
C117  C     C_R   0.651535 0.589027 0.545564 -0.122203
C118  C     C_R   0.393398 0.631091 0.459633 -0.205475
C119  C     C_R   0.066272 0.127640 0.451569 -0.202503
C120  C     C_R   0.874685 0.122060 0.442608 -0.181545
H57   H     H_    0.671566 0.560371 0.577444 0.183096
H58   H     H_    0.407413 0.635779 0.429310 0.146081
H59   H     H_    0.021615 0.128220 0.412230 0.156848
H60   H     H_    0.871794 0.117833 0.397082 0.161112
C121  C     C_R   0.593428 0.592997 0.501714 -0.065180
C122  C     C_R   0.407841 0.593080 0.499426 -0.069621
C123  C     C_R   0.092030 0.094331 0.501149 -0.081748
C124  C     C_R   0.909215 0.095040 0.500474 -0.066114
C125  C     C_R   0.569301 0.631604 0.465165 0.066724
C126  C     C_R   0.388806 0.589093 0.537219 0.085651
C127  C     C_R   0.149194 0.096487 0.553984 0.108008
C128  C     C_R   0.914755 0.103912 0.559814 0.118443
C129  C     C_3   0.522318 0.638753 0.390763 -0.443244
C130  C     C_3   0.387212 0.559666 0.583638 -0.390751
C131  C     C_3   0.192236 0.062094 0.579514 -0.384252
C132  C     C_3   0.911241 0.073900 0.604399 -0.408536
C133  C     C_3   0.557392 0.674222 0.391947 -0.464515
C134  C     C_3   0.350867 0.594743 0.582663 -0.470854
C135  C     C_3   0.227289 0.096295 0.578200 -0.466646
C136  C     C_3   0.874772 0.107881 0.603338 -0.468645
H61   H     H_    0.514933 0.610382 0.358065 0.224761
H62   H     H_    0.364488 0.528947 0.557379 0.222781
H63   H     H_    0.210228 0.051201 0.632403 0.238394
H64   H     H_    0.889033 0.043100 0.577798 0.251951
H65   H     H_    0.484824 0.651539 0.382627 0.189442
H66   H     H_    0.428669 0.555755 0.634632 0.230572
H67   H     H_    0.178109 0.035466 0.541426 0.212115
H68   H     H_    0.952068 0.069711 0.656074 0.195965
H69   H     H_    0.570274 0.666520 0.359839 0.199551
H70   H     H_    0.307492 0.583987 0.556695 0.212297
H71   H     H_    0.265503 0.105076 0.630322 0.205988
H72   H     H_    0.831231 0.096879 0.575808 0.230071
H73   H     H_    0.540117 0.707451 0.384535 0.202707
H74   H     H_    0.371534 0.611474 0.632952 0.199926
H75   H     H_    0.233515 0.089522 0.539330 0.215865
H76   H     H_    0.894541 0.123199 0.654410 0.194002
O33   O     O_R   0.425940 0.545090 0.442170 -0.595154
O34   O     O_R   0.574060 0.545090 0.557830 -0.598255
O35   O     O_R   0.925940 0.045090 0.442170 -0.567670
O36   O     O_R   0.074060 0.045090 0.557830 -0.575019
O37   O     O_R   0.483700 0.545120 0.557760 -0.577272
O38   O     O_R   0.516300 0.545120 0.442240 -0.569174
O39   O     O_R   0.983700 0.045120 0.557760 -0.597024
O40   O     O_R   0.016300 0.045120 0.442240 -0.596707
C137  C     C_R   0.440506 0.559397 0.499897 0.787312
C138  C     C_R   0.559732 0.559410 0.500219 0.849029
C139  C     C_R   0.940656 0.059880 0.499998 0.843783
C140  C     C_R   0.059632 0.059574 0.500166 0.782728
O41   O     O_R   0.925990 0.954920 0.442210 -0.559222
O42   O     O_R   0.074010 0.954920 0.557790 -0.530765
O43   O     O_R   0.425990 0.454920 0.442210 -0.594920
O44   O     O_R   0.574010 0.454920 0.557790 -0.584138
O45   O     O_R   0.983760 0.954940 0.557800 -0.588416
O46   O     O_R   0.016240 0.954940 0.442200 -0.594230
O47   O     O_R   0.483760 0.454940 0.557800 -0.530213
O48   O     O_R   0.516240 0.454940 0.442200 -0.565373
C141  C     C_R   0.940213 0.941014 0.500015 0.875647
C142  C     C_R   0.060300 0.941048 0.500181 0.812425
C143  C     C_R   0.439956 0.440948 0.500199 0.810018
C144  C     C_R   0.559611 0.440805 0.500057 0.875429
Cu9   Cu    Cu3+1 0.465760 0.500000 0.431570 0.984390
Cu10  Cu    Cu3+1 0.534240 0.500000 0.568430 1.035903
Cu11  Cu    Cu3+1 0.965760 0.000000 0.431570 0.990071
Cu12  Cu    Cu3+1 0.034240 0.000000 0.568430 1.027442
N17   N     N_R   0.839945 0.965222 0.484221 0.100974
O49   O     O_R   0.844994 0.991860 0.447640 -0.371264
O50   O     O_R   0.811257 0.977646 0.503854 -0.377915
N18   N     N_R   0.182443 0.937520 0.610093 0.121097
O51   O     O_R   0.178449 0.932727 0.659018 -0.329720
O52   O     O_R   0.223737 0.959974 0.622707 -0.387513
N19   N     N_R   0.435229 0.432698 0.616010 0.126956
O53   O     O_R   0.488013 0.424974 0.662042 -0.327653
O54   O     O_R   0.410205 0.455452 0.633695 -0.383245
N20   N     N_R   0.649791 0.465539 0.496032 0.107270
O55   O     O_R   0.609111 0.492395 0.455782 -0.376963
O56   O     O_R   0.700197 0.478126 0.524258 -0.367406

loop_
_geom_bond_atom_site_label_1
_geom_bond_atom_site_label_2
_geom_bond_distance
_ccdc_geom_bond_type
C96   H52   1.083075 S    
C65   C69   1.492325 S    
C35   H15   1.083052 S    
N17   O50   1.301561 A    
C68   C72   1.492405 S    
C122  C137  1.436843 S    
C69   H25   1.111538 S    
C31   C35   1.397381 A    
N19   O54   1.300505 A    
C67   C71   1.494122 S    
C82   C86   1.405037 A    
C125  C129  1.492033 S    
C8    C40   1.475997 S    
C113  H53   1.083253 S    
C124  C128  1.397888 A    
Cu6   O22   1.970064 S    
C15   C99   1.476367 S    
O40   C140  1.286645 A    
C76   H36   1.112261 S    
C3    C51   1.437413 S    
C72   H28   1.112268 S    
O33   Cu9   1.971021 S    
C28   C43   1.478339 S    
O35   C139  1.287645 A    
C107  C135  1.491711 S    
C62   C66   1.398475 A    
C74   H34   1.111583 S    
C116  H56   1.083499 S    
Cu1   Cu5   2.686771 S    
O18   C10   1.293453 A    
Cu3   Cu7   2.686771 S    
Cu4   Cu8   2.685833 S    
C34   H14   1.083116 S    
Cu1   O25   1.950491 S    
Cu3   O19   1.970295 S    
C129  H61   1.112216 S    
Cu4   O28   1.950779 S    
O13   C5    1.300551 A    
Cu5   O29   1.950488 S    
O15   C7    1.300757 A    
C30   H10   1.082947 S    
O11   Cu3   1.950492 S    
N19   O53   1.300927 A    
N16   C104  1.358150 A    
C123  C140  1.449393 S    
N20   O55   1.300316 A    
C124  C139  1.454254 S    
O9    C5    1.300628 A    
O2    Cu2   1.970062 S    
O10   Cu2   1.950188 S    
C86   C90   1.405153 A    
C26   C41   1.478344 S    
C61   C65   1.393309 A    
C80   H40   1.083069 S    
C73   H33   1.111545 S    
O6    Cu6   1.970724 S    
C132  C136  1.520150 S    
O19   C11   1.295101 A    
C117  C121  1.405927 A    
O5    Cu5   1.970054 S    
C135  H75   1.112115 S    
N18   O51   1.300812 A    
C82   H42   1.082947 S    
C93   C97   1.404446 A    
C89   H45   1.082949 S    
C107  C127  1.380880 A    
C17   H1    1.083050 S    
C55   H19   1.084334 S    
C78   C98   1.404273 A    
C19   H3    1.083042 S    
C106  C126  1.348067 A    
C20   H4    1.083075 S    
C20   C24   1.397437 A    
C13   C97   1.476500 S    
C32   C36   1.397553 A    
C22   H6    1.082943 S    
N11   N15   1.331885 A    
C7    C39   1.476512 S    
C118  H58   1.083402 S    
C96   C100  1.404407 A    
C59   C63   1.422630 A    
O3    C3    1.293545 A    
C57   C61   1.416850 A    
O44   C144  1.281755 A    
C25   C29   1.405058 A    
C43   N7    1.358186 A    
C90   C94   1.397587 A    
C27   C31   1.404972 A    
C9    C109  1.447749 S    
C88   C92   1.405054 A    
C135  H71   1.111548 S    
C16   C100  1.476222 S    
O23   C11   1.290678 A    
C71   C75   1.519905 S    
N1    N2    1.331931 A    
C5    C37   1.476483 S    
O38   Cu9   1.972670 S    
C115  H55   1.083413 S    
C22   C26   1.405163 A    
O45   C141  1.281812 A    
C120  H60   1.083001 S    
O45   Cu12  1.970437 S    
C54   H18   1.084304 S    
C133  H73   1.111633 S    
C134  H70   1.111479 S    
C19   C23   1.397611 A    
C33   C37   1.404445 A    
O42   C142  1.284002 A    
C35   C39   1.404485 A    
N7    N8    1.331935 A    
C105  C133  1.493680 S    
C46   C50   1.389262 A    
O20   C12   1.293729 A    
O8    C4    1.293356 A    
C77   C81   1.397451 A    
C29   C33   1.397502 A    
O36   C140  1.284438 A    
C78   H38   1.083080 S    
N15   C103  1.358124 A    
C6    C38   1.476022 S    
C83   C87   1.405020 A    
C48   C68   1.378229 A    
C81   C85   1.404999 A    
C108  C128  1.380265 A    
N12   N16   1.331929 A    
C106  C110  1.385346 A    
C11   C111  1.444294 S    
C87   C104  1.478166 S    
C52   C56   1.408842 A    
C85   C102  1.478251 S    
C76   H32   1.111540 S    
O5    C1    1.292562 A    
Cu9   Cu10  2.657819 S    
O34   Cu10  1.970623 S    
N14   C102  1.358191 A    
C75   H31   1.111556 S    
O44   Cu10  1.970234 S    
C64   C68   1.392755 A    
O35   Cu11  1.971021 S    
O33   C137  1.281835 A    
C74   H30   1.112131 S    
O25   C13   1.300567 A    
C49   C53   1.408410 A    
O27   C15   1.300469 A    
Cu2   Cu6   2.685833 S    
C51   C55   1.399040 A    
C80   C84   1.397406 A    
C23   C27   1.405118 A    
N10   C101  1.358144 A    
Cu5   O21   1.969390 S    
C48   C52   1.394018 A    
C129  H65   1.111699 S    
Cu2   O26   1.950779 S    
O16   Cu8   1.950574 S    
C129  C133  1.519742 S    
O14   C6    1.300357 A    
Cu6   O30   1.950188 S    
C28   C32   1.405162 A    
C123  C127  1.396104 A    
C131  C135  1.519307 S    
C24   C28   1.405068 A    
C121  C125  1.393601 A    
C1    C49   1.455068 S    
O10   C6    1.300028 A    
O3    Cu3   1.969390 S    
O41   Cu11  1.969843 S    
O42   Cu12  1.970234 S    
C70   H22   1.109246 S    
C85   C89   1.405069 A    
C71   H27   1.110221 S    
C117  H57   1.083446 S    
C95   H51   1.083051 S    
C46   C66   1.378560 A    
C136  H72   1.112168 S    
C93   H49   1.083056 S    
C114  C118  1.410032 A    
N9    N13   1.331861 A    
C119  H59   1.083218 S    
C53   C57   1.405261 A    
C84   H44   1.082950 S    
Cu1   O17   1.970295 S    
C4    C52   1.456496 S    
C55   C59   1.401542 A    
C18   H2    1.083083 S    
C36   C40   1.404335 A    
O13   Cu5   1.950288 S    
C32   H12   1.082942 S    
O15   Cu7   1.950288 S    
C126  C130  1.487587 S    
O48   C144  1.283776 A    
C69   H21   1.112198 S    
C58   C62   1.421486 A    
O17   C9    1.295259 A    
C90   H46   1.082943 S    
C132  H68   1.111525 S    
C89   C93   1.397466 A    
C136  H76   1.111632 S    
N18   O52   1.300564 A    
N20   O56   1.301384 A    
C92   C96   1.397507 A    
C79   C83   1.397484 A    
O4    C4    1.297845 A    
N1    C42   1.358144 A    
C2    C50   1.439124 S    
C84   C88   1.405028 A    
N3    C44   1.358186 A    
Cu7   O31   1.950488 S    
C109  C113  1.404871 A    
Cu8   O32   1.950188 S    
C115  C119  1.400344 A    
O46   C142  1.290165 A    
C108  C112  1.391782 A    
C60   N20   1.438807 S    
C134  H74   1.111671 S    
C70   C74   1.519842 S    
Cu11  Cu12  2.657819 S    
C33   H13   1.083052 S    
C130  H62   1.111210 S    
O43   C143  1.291365 A    
C45   C65   1.378129 A    
N4    C43   1.358128 A    
O37   C137  1.283467 A    
C128  C132  1.493567 S    
O39   C139  1.285863 A    
C107  C111  1.392996 A    
O21   C9    1.292157 A    
O28   C16   1.300254 A    
C78   C82   1.397304 A    
C29   H9    1.082946 S    
O30   C14   1.300067 A    
O1    C1    1.298481 A    
O48   Cu9   1.971403 S    
O36   Cu12  1.970623 S    
C20   C40   1.404284 A    
C25   C42   1.478347 S    
C127  C131  1.492724 S    
C77   H37   1.083048 S    
C27   C44   1.478342 S    
C44   N8    1.358129 A    
C94   C98   1.404353 A    
C69   C73   1.518473 S    
C45   C73   1.492284 S    
C72   C76   1.519163 S    
C17   C21   1.397487 A    
O6    C2    1.288722 A    
C56   C60   1.405377 A    
C75   H35   1.112147 S    
N2    C41   1.358169 A    
N5    N6    1.331936 A    
C63   C67   1.398482 A    
C77   C97   1.404492 A    
O34   C138  1.282606 A    
C105  C125  1.380644 A    
C121  C138  1.445561 S    
O26   C14   1.300213 A    
C31   H11   1.082948 S    
C47   C67   1.378653 A    
C21   H5    1.082951 S    
N12   C103  1.358150 A    
O46   Cu11  1.971403 S    
C23   H7    1.082946 S    
C111  C115  1.405300 A    
Cu3   O27   1.950491 S    
Cu4   O20   1.970970 S    
C26   C30   1.405075 A    
C113  C117  1.400286 A    
C57   N17   1.440671 S    
C80   C100  1.404380 A    
C131  H63   1.111507 S    
O12   Cu4   1.950188 S    
N17   O49   1.300105 A    
C73   H29   1.112250 S    
C72   H24   1.111473 S    
C70   H26   1.111517 S    
O7    C3    1.288914 A    
C71   H23   1.111529 S    
C95   C99   1.404438 A    
C91   H47   1.082952 S    
C116  C120  1.400547 A    
C59   N19   1.431743 S    
C58   N18   1.431856 S    
C114  H54   1.083175 S    
C21   C25   1.405042 A    
C119  C123  1.405430 A    
C46   C74   1.490357 S    
C53   H17   1.082965 S    
C34   C38   1.404360 A    
C18   C22   1.397573 A    
C36   H16   1.083114 S    
C106  C134  1.488641 S    
C64   C144  1.440965 S    
O14   Cu6   1.950574 S    
C24   H8    1.082949 S    
C30   C34   1.397421 A    
O11   C7    1.300455 A    
C61   C141  1.440980 S    
O12   C8    1.300127 A    
C17   C37   1.404454 A    
O1    Cu1   1.969390 S    
O9    Cu1   1.950492 S    
C19   C39   1.404432 A    
C60   C64   1.415341 A    
O4    Cu4   1.970062 S    
Cu2   O18   1.970970 S    
C110  C114  1.412711 A    
C87   C91   1.404999 A    
C41   N5    1.358145 A    
C12   C112  1.440890 S    
O7    Cu7   1.970054 S    
O8    Cu8   1.970724 S    
O16   C8    1.300250 A    
O40   Cu11  1.972670 S    
C105  C109  1.395921 A    
O24   C12   1.289777 A    
C83   H43   1.082949 S    
C10   C110  1.440912 S    
C92   H48   1.082950 S    
C86   C101  1.478240 S    
C88   C103  1.478175 S    
C79   H39   1.083051 S    
C130  H66   1.111454 S    
N3    N4    1.331930 A    
N13   C101  1.358134 A    
C108  C136  1.491611 S    
C62   C142  1.457240 S    
C45   C49   1.392793 A    
C50   C54   1.400193 A    
C79   C99   1.404432 A    
O47   C143  1.283172 A    
N11   C104  1.358123 A    
C118  C122  1.410199 A    
O2    C2    1.293971 A    
N9    C102  1.358093 A    
C112  C116  1.403446 A    
O31   C15   1.300565 A    
C130  C134  1.541617 S    
O32   C16   1.300151 A    
C81   H41   1.082949 S    
O38   C138  1.286604 A    
C91   C95   1.397407 A    
C66   C70   1.493758 S    
C131  H67   1.112290 S    
C63   C143  1.457974 S    
C132  H64   1.110996 S    
O22   C10   1.290450 A    
C47   C75   1.490740 S    
O43   Cu9   1.969843 S    
C122  C126  1.384327 A    
C14   C98   1.475945 S    
O47   Cu10  1.970437 S    
C48   C76   1.492740 S    
C18   C38   1.404282 A    
Cu7   O23   1.969390 S    
C42   N6    1.358172 A    
O37   Cu10  1.973646 S    
Cu8   O24   1.970064 S    
O39   Cu12  1.973646 S    
C94   H50   1.083107 S    
O29   C13   1.300537 A    
N10   N14   1.331955 A    
C120  C124  1.407833 A    
C47   C51   1.389291 A    
C54   C58   1.402400 A    
C133  H69   1.112472 S    
C56   H20   1.083023 S    
O41   C141  1.283756 A    
