data_mof_unit_28254.cif
_audit_creation_date              2012-12-10T16:54:57-0500
_audit_creation_method            fapswitch 2.2
_symmetry_space_group_name_H-M    P1
_symmetry_Int_Tables_number       1
_space_group_crystal_system       triclinic
_cell_length_a                    7.765451
_cell_length_b                    8.576739
_cell_length_c                    15.707153
_cell_angle_alpha                 90.725015
_cell_angle_beta                  86.394065
_cell_angle_gamma                 93.551919
_cell_volume                      1042.01472515

loop_
_atom_site_label
_atom_site_type_symbol
_atom_type_description
_atom_site_fract_x
_atom_site_fract_y
_atom_site_fract_z
_atom_type_partial_charge
C1    C     C_R   0.545705 0.794700 0.497607 0.961695
C2    C     C_3   0.348997 0.594052 0.052067 -0.388762
C3    C     C_3   0.497906 0.501197 0.082759 0.299315
C4    C     C_3   0.477290 0.331378 0.048419 -0.504270
C5    C     C_3   0.484837 0.331648 0.950075 -0.410620
C6    C     C_1   0.490943 0.499625 0.174404 -0.090688
C7    C     C_1   0.512345 0.501412 0.825727 -0.099079
C8    C     C_1   0.509804 0.500874 0.750376 -0.185483
C9    C     C_2   0.569790 0.958118 0.496054 -0.381571
C10   C     C_2   0.430157 0.041841 0.502996 -0.381065
C11   C     C_R   0.502953 0.500296 0.661616 0.905299
C12   C     C_R   0.454272 0.205285 0.502032 0.962481
C13   C     C_R   0.497040 0.499470 0.338442 0.904290
C14   C     C_3   0.355990 0.594709 0.953831 -0.404071
C15   C     C_3   0.679832 0.578364 0.948604 -0.447115
C16   C     C_3   0.675116 0.577147 0.047483 0.397535
C17   C     C_1   0.490816 0.499227 0.249776 -0.198951
C18   C     C_3   0.508944 0.501568 0.917342 0.308197
H1    H     H_    0.359245 0.716432 0.076451 0.201898
H2    H     H_    0.231812 0.542160 0.931519 0.166421
H3    H     H_    0.222079 0.539929 0.077026 0.156058
H4    H     H_    0.581715 0.261212 0.070406 0.175810
H5    H     H_    0.701725 0.009012 0.489394 0.180822
H6    H     H_    0.298219 0.990935 0.509571 0.180312
H7    H     H_    0.013269 0.382412 0.436524 0.192437
H8    H     H_    0.986740 0.617717 0.563398 0.192524
H9    H     H_    0.370979 0.717399 0.930880 0.174748
H10   H     H_    0.791517 0.513747 0.922192 0.127107
H11   H     H_    0.699543 0.700285 0.924734 0.191797
H12   H     H_    0.777581 0.501201 0.067086 0.034507
H13   H     H_    0.363350 0.273923 0.927543 0.180551
H14   H     H_    0.593877 0.262816 0.924519 0.175532
H15   H     H_    0.351660 0.274533 0.073308 0.192994
N1    N     N_2   0.950340 0.457950 0.477370 -0.174869
N2    N     N_2   0.049660 0.542050 0.522630 -0.175263
O1    O     O_R   0.389240 0.738570 0.505550 -0.613081
O2    O     O_R   0.678400 0.711630 0.491050 -0.631918
O3    O     O_R   0.355360 0.513470 0.630110 -0.612625
O4    O     O_R   0.644510 0.486530 0.615610 -0.620784
O5    O     O_R   0.321600 0.288370 0.508950 -0.630811
O6    O     O_R   0.610760 0.261430 0.494450 -0.611920
O7    O     O_R   0.355490 0.513470 0.384390 -0.619588
O8    O     O_R   0.644640 0.486530 0.369890 -0.619026
Zn1   Zn    Zn3+2 0.306930 0.517990 0.509680 0.940518
Zn2   Zn    Zn3+2 0.693070 0.482010 0.490320 0.938387
O9    O     O_3   0.696400 0.732954 0.079087 -0.645596
C19   C     C_3   0.865202 0.768607 0.105877 0.048228
H16   H     H_    0.892285 0.896789 0.099659 0.169299
H17   H     H_    0.966736 0.713025 0.064617 0.115740
C20   C     C_3   0.875098 0.724776 0.199791 -0.339101
H18   H     H_    0.767299 0.775956 0.238404 0.238504
H19   H     H_    0.861432 0.595761 0.206410 0.215598
C21   C     C_3   0.045858 0.784420 0.235026 -0.937244
H20   H     H_    0.155560 0.729780 0.200208 0.260232
H21   H     H_    0.045780 0.753523 0.303487 0.278140
H22   H     H_    0.063489 0.913442 0.229294 0.256524

loop_
_geom_bond_atom_site_label_1
_geom_bond_atom_site_label_2
_ccdc_geom_bond_type
C12   O5    A    
C11   O3    A    
C20   H19   S    
O3    Zn1   S    
C12   O6    A    
C13   C17   S    
C14   H9    S    
C15   C18   S    
C4    H4    S    
C9    C10   D    
C14   C18   S    
C19   H16   S    
C1    O2    A    
H7    N1    S    
O4    Zn2   S    
C3    C6    S    
C10   H6    S    
C7    C18   S    
C2    H3    S    
C2    C3    S    
C7    C8    T    
C19   H17   S    
N1    Zn2   S    
C21   H20   S    
C11   O4    A    
N2    Zn1   S    
O8    Zn2   S    
C15   H10   S    
O7    Zn1   S    
C8    C11   S    
C10   C12   S    
C13   O7    A    
C15   H11   S    
C19   C20   S    
C21   H21   S    
C2    C14   S    
O1    Zn1   S    
C20   C21   S    
C16   H12   S    
C3    C4    S    
C14   H2    S    
H8    N2    S    
O5    Zn1   S    
C1    C9    S    
N1    N2    D    
C21   H22   S    
C16   O9    S    
C6    C17   T    
O6    Zn2   S    
O9    C19   S    
C9    H5    S    
C5    C18   S    
C13   O8    A    
C20   H18   S    
C2    H1    S    
C4    H15   S    
O2    Zn2   S    
C5    H14   S    
C3    C16   S    
C15   C16   S    
C1    O1    A    
C4    C5    S    
C5    H13   S    
