data_mof_unit_57541.cif
_audit_creation_date              2013-03-05T15:40:25-0500
_audit_creation_method            fapswitch 2.2
_symmetry_space_group_name_H-M    P1
_symmetry_Int_Tables_number       1
_space_group_crystal_system       triclinic
_cell_length_a                    7.723532
_cell_length_b                    8.625867
_cell_length_c                    10.664543
_cell_angle_alpha                 91.379386
_cell_angle_beta                  86.839798
_cell_angle_gamma                 93.47889
_cell_volume                      707.953991227

loop_
_atom_site_label
_atom_site_type_symbol
_atom_site_description
_atom_site_fract_x
_atom_site_fract_y
_atom_site_fract_z
_atom_type_partial_charge
O1    O     O_R   0.389250 0.738570 0.508280 -0.587392
O2    O     O_R   0.678390 0.711630 0.486650 -0.643024
C1    C     C_R   0.545605 0.793846 0.489372 0.976174
O3    O     O_R   0.355400 0.513470 0.694050 -0.605821
O4    O     O_R   0.644540 0.486530 0.672420 -0.631028
C2    C     C_R   0.505973 0.513734 0.739657 0.975097
Zn1   Zn    Zn3+2 0.306930 0.517990 0.514440 1.000836
Zn2   Zn    Zn3+2 0.693070 0.482010 0.485560 1.002731
O5    O     O_R   0.321610 0.288370 0.513350 -0.621556
O6    O     O_R   0.610750 0.261430 0.491720 -0.597579
O7    O     O_R   0.355460 0.513470 0.327580 -0.661327
O8    O     O_R   0.644600 0.486530 0.305950 -0.595846
C3    C     C_R   0.454841 0.205335 0.496777 0.984486
C4    C     C_R   0.492662 0.487485 0.259676 0.902958
H1    H     H_    0.728502 0.377642 0.869683 0.211717
C5    C     C_R   0.279946 0.716539 0.898665 0.340629
C6    C     C_R   0.119391 0.744464 0.960412 -0.180754
H2    H     H_    0.035795 0.827665 0.924851 0.206759
C7    C     C_R   0.065931 0.666461 0.069312 -0.179197
H3    H     H_    0.938933 0.683549 0.113948 0.174865
C8    C     C_R   0.178420 0.571030 0.123713 -0.056178
H4    H     H_    0.127084 0.509702 0.205724 0.181235
C9    C     C_R   0.345616 0.547729 0.067128 0.018624
C10   C     C_R   0.383383 0.601381 0.945480 -0.015261
C11   C     C_R   0.515773 0.529374 0.872992 -0.135553
C12   C     C_R   0.631382 0.436350 0.927215 -0.259567
C13   C     C_R   0.614037 0.406893 0.053595 0.304351
C14   C     C_R   0.476788 0.471266 0.125611 -0.209796
C15   C     C_2   0.572175 0.954373 0.469208 -0.211205
C16   C     C_2   0.434099 0.041801 0.490100 -0.317350
H5    H     H_    0.303621 0.992100 0.511933 0.210048
N1    N     N_2   0.950330 0.457950 0.466250 -0.176218
H6    H     H_    0.013658 0.382113 0.406403 0.206191
N2    N     N_2   0.049670 0.542050 0.533750 -0.171294
H7    H     H_    0.986336 0.617571 0.593935 0.215890
N3    N     N_R   0.342747 0.814980 0.797078 0.200096
O9    O     O_R   0.233729 0.888343 0.734988 -0.420066
O10   O     O_R   0.507907 0.854340 0.782224 -0.425666
N4    N     N_R   0.726298 0.300615 0.105501 0.219752
O11   O     O_R   0.662792 0.198394 0.186018 -0.407364
O12   O     O_R   0.884347 0.289445 0.058623 -0.396863
C17   C     C_1   0.746942 0.009489 0.425016 0.338143
N5    N     N_1   0.885903 0.052041 0.390039 -0.164678

loop_
_geom_bond_atom_site_label_1
_geom_bond_atom_site_label_2
_geom_bond_distance
_ccdc_geom_bond_type
O4    Zn2   2.007199 S    
C9    C10   1.397537 A    
C10   C11   1.412708 A    
C15   C16   1.348695 D    
C15   C17   1.460455 S    
C5    C10   1.427717 A    
C7    H3    1.083109 S    
Zn2   O8    1.973594 S    
C4    C14   1.444434 S    
N1    H6    1.028994 S    
N3    O10   1.302048 A    
C6    H2    1.082632 S    
N4    O12   1.301536 A    
O1    Zn1   1.970634 S    
C9    C14   1.421605 A    
C5    N3    1.437490 S    
Zn1   O7    2.007199 S    
C12   C13   1.375316 A    
O4    C2    1.285454 A    
O3    Zn1   1.973594 S    
O3    C2    1.284920 A    
N3    O9    1.301612 A    
C7    C8    1.390829 A    
O8    C4    1.298429 A    
O2    C1    1.280456 A    
C8    C9    1.418410 A    
C16   H5    1.086316 S    
O7    C4    1.278278 A    
C2    C11   1.430827 S    
C17   N5    1.157759 T    
Zn2   N1    2.009065 S    
Zn1   O5    1.990491 S    
C3    C16   1.410526 S    
N4    O11   1.301119 A    
Zn1   N2    2.009065 S    
Zn2   O6    1.970634 S    
N2    H7    1.029336 S    
C13   C14   1.408197 A    
C1    C15   1.407375 S    
O5    C3    1.290901 A    
H1    C12   1.084411 S    
C6    C7    1.386730 A    
C11   C12   1.393475 A    
C8    H4    1.077302 S    
O2    Zn2   1.990491 S    
C13   N4    1.439589 S    
C5    C6    1.402836 A    
O1    C1    1.278369 A    
O6    C3    1.269027 A    
N1    N2    1.265439 D    
