data_mof_unit_9929.cif
_audit_creation_date              2012-12-11T15:41:07-0500
_audit_creation_method            fapswitch 2.2
_symmetry_space_group_name_H-M    P1
_symmetry_Int_Tables_number       1
_space_group_crystal_system       triclinic
_cell_length_a                    18.946925
_cell_length_b                    11.016026
_cell_length_c                    18.750835
_cell_angle_alpha                 90.316529
_cell_angle_beta                  89.984592
_cell_angle_gamma                 89.753331
_cell_volume                      3913.57471808

loop_
_atom_site_label
_atom_site_type_symbol
_atom_type_description
_atom_site_fract_x
_atom_site_fract_y
_atom_site_fract_z
_atom_type_partial_charge
C1    C     C_R   0.727552 0.954226 0.852356 0.535813
C2    C     C_R   0.272455 0.954645 0.146352 0.536853
C3    C     C_R   0.227557 0.454195 0.852346 0.535866
C4    C     C_R   0.772457 0.454658 0.146348 0.536858
C5    C     C_R   0.689523 0.444947 0.042392 0.008233
C6    C     C_R   0.310996 0.382682 0.947462 0.007804
C7    C     C_R   0.189339 0.944443 0.042515 0.008262
C8    C     C_R   0.810918 0.882575 0.947456 0.007648
C9    C     C_R   0.678611 0.412604 0.971612 0.002937
C10   C     C_R   0.321704 0.359644 0.019255 0.000154
C11   C     C_R   0.178430 0.912121 0.971728 0.002781
C12   C     C_R   0.821646 0.859519 0.019247 -0.000101
C13   C     C_R   0.770193 0.262209 0.980304 -0.151823
C14   C     C_R   0.196981 0.385413 0.041611 -0.160695
C15   C     C_R   0.270413 0.762421 0.980240 -0.151673
C16   C     C_R   0.697003 0.886202 0.041739 -0.160470
C17   C     C_R   0.781181 0.294390 0.051898 -0.147133
C18   C     C_R   0.186305 0.405185 0.970240 -0.157502
C19   C     C_R   0.281393 0.794565 0.051834 -0.147121
C20   C     C_R   0.686306 0.906086 0.970376 -0.157457
C21   C     C_3   0.671000 0.574465 0.028578 -0.258133
C22   C     C_3   0.379817 0.445936 0.939405 -0.278762
C23   C     C_3   0.170372 0.073816 0.028813 -0.258382
C24   C     C_3   0.879786 0.945678 0.939370 -0.278766
C25   C     C_3   0.658443 0.538906 0.951340 -0.256767
C26   C     C_3   0.390413 0.425966 0.018871 -0.261833
C27   C     C_3   0.157823 0.038277 0.951564 -0.256963
C28   C     C_3   0.890424 0.925628 0.018813 -0.261850
C29   C     C_R   0.723694 0.329852 0.937432 0.005332
C30   C     C_R   0.265401 0.366270 0.067581 0.014936
C31   C     C_R   0.223705 0.829786 0.937446 0.005358
C32   C     C_R   0.765396 0.866490 0.067619 0.014855
C33   C     C_R   0.507808 0.170853 0.421206 -0.003460
C34   C     C_R   0.511452 0.164362 0.569758 -0.011957
C35   C     C_R   0.007808 0.670852 0.421206 -0.003455
C36   C     C_R   0.011452 0.664363 0.569759 -0.011957
C37   C     C_R   0.510899 0.277798 0.461431 0.006836
C38   C     C_R   0.511120 0.272941 0.533347 0.001337
C39   C     C_R   0.010899 0.777798 0.461431 0.006836
C40   C     C_R   0.011120 0.772942 0.533347 0.001336
C41   C     C_R   0.519888 0.054596 0.530096 -0.057455
C42   C     C_R   0.521617 0.059072 0.454933 -0.065291
C43   C     C_R   0.019887 0.554596 0.530097 -0.057457
C44   C     C_R   0.021615 0.559072 0.454934 -0.065291
C45   C     C_R   0.555706 0.182008 0.858299 0.542613
C46   C     C_R   0.472095 0.176914 0.151054 0.545239
C47   C     C_R   0.055837 0.682023 0.858296 0.542721
C48   C     C_R   0.972110 0.676918 0.151064 0.545220
C49   C     C_3   0.465947 0.391103 0.463629 -0.255086
C50   C     C_3   0.467467 0.383884 0.543977 -0.275089
C51   C     C_3   0.965948 0.891104 0.463629 -0.255088
C52   C     C_3   0.967468 0.883885 0.543976 -0.275089
C53   C     C_R   0.747946 0.388729 0.416305 0.011544
C54   C     C_R   0.255758 0.413593 0.579558 0.016511
C55   C     C_R   0.247946 0.888730 0.416306 0.011549
C56   C     C_R   0.755757 0.913595 0.579557 0.016511
C57   C     C_R   0.798905 0.323757 0.454519 0.018955
C58   C     C_R   0.237728 0.303535 0.548721 0.000328
C59   C     C_R   0.298906 0.823759 0.454520 0.018957
C60   C     C_R   0.737725 0.803539 0.548720 0.000329
C61   C     C_R   0.789755 0.296955 0.525223 -0.008447
C62   C     C_R   0.235188 0.294031 0.476046 0.023922
C63   C     C_R   0.289756 0.796957 0.525223 -0.008448
C64   C     C_R   0.735185 0.794037 0.476046 0.023927
C65   C     C_R   0.672474 0.377815 0.521334 -0.159106
C66   C     C_R   0.290075 0.486515 0.461451 -0.176676
C67   C     C_R   0.172475 0.877815 0.521335 -0.159107
C68   C     C_R   0.790075 0.986516 0.461450 -0.176677
C69   C     C_R   0.680878 0.402052 0.447779 -0.170372
C70   C     C_R   0.290778 0.498620 0.535997 -0.164948
C71   C     C_R   0.180879 0.902052 0.447779 -0.170369
C72   C     C_R   0.790778 0.998621 0.535997 -0.164947
C73   C     C_3   0.875696 0.348685 0.465284 -0.247116
C74   C     C_3   0.180090 0.213706 0.558414 -0.279941
C75   C     C_3   0.375697 0.848688 0.465284 -0.247116
C76   C     C_3   0.680094 0.713698 0.558413 -0.279943
C77   C     C_3   0.865065 0.319678 0.543051 -0.253737
C78   C     C_3   0.175119 0.208813 0.477397 -0.262342
C79   C     C_3   0.365066 0.819680 0.543051 -0.253738
C80   C     C_3   0.675123 0.708804 0.477396 -0.262341
C81   C     C_R   0.729292 0.331588 0.561777 0.005875
C82   C     C_R   0.255709 0.387069 0.430442 0.024608
C83   C     C_R   0.229292 0.831589 0.561777 0.005874
C84   C     C_R   0.755708 0.887072 0.430441 0.024613
C85   C     C_R   0.723255 0.311280 0.859792 0.552883
C86   C     C_R   0.273675 0.322291 0.139345 0.553167
C87   C     C_R   0.223258 0.811286 0.859794 0.552880
C88   C     C_R   0.773661 0.822362 0.139345 0.553065
C89   C     C_R   0.729532 0.953789 0.648532 0.544907
C90   C     C_R   0.270973 0.951532 0.351295 0.536195
C91   C     C_R   0.229532 0.453789 0.648532 0.544909
C92   C     C_R   0.770973 0.451532 0.351295 0.536176
C93   C     C_R   0.530806 0.175263 0.643921 0.550199
C94   C     C_R   0.471882 0.176691 0.353738 0.546970
C95   C     C_R   0.030806 0.675263 0.643921 0.550211
C96   C     C_R   0.971882 0.676691 0.353738 0.546974
C97   C     C_R   0.725448 0.310990 0.638927 0.565045
C98   C     C_R   0.261006 0.359617 0.354945 0.555392
C99   C     C_R   0.225448 0.810990 0.638927 0.565057
C100  C     C_R   0.761006 0.859618 0.354944 0.555367
C101  C     C_2   0.530680 0.178240 0.931337 -0.108186
C102  C     C_2   0.512251 0.164745 0.085578 -0.114562
C103  C     C_2   0.030963 0.678260 0.931395 -0.108240
C104  C     C_2   0.012361 0.664782 0.085638 -0.114514
C105  C     C_2   0.498619 0.072243 0.040777 -0.164948
C106  C     C_2   0.519818 0.073924 0.965746 -0.167934
C107  C     C_2   0.998875 0.572224 0.040838 -0.164888
C108  C     C_2   0.020129 0.573944 0.965817 -0.167713
C109  C     C_R   0.745370 0.394855 0.081671 0.016549
C110  C     C_R   0.243509 0.412025 0.923000 0.025561
C111  C     C_R   0.245378 0.894744 0.081697 0.016600
C112  C     C_R   0.743468 0.912288 0.923057 0.025467
Cr1   Cr    Cr6+3 0.769260 0.163750 0.750730 1.005656
Cr2   Cr    Cr6+3 0.230740 0.163750 0.249270 1.025106
Cr3   Cr    Cr6+3 0.269260 0.663750 0.750730 1.005633
Cr4   Cr    Cr6+3 0.730740 0.663750 0.249270 1.025151
Cr5   Cr    Cr6+3 0.612640 0.009910 0.748780 1.033907
Cr6   Cr    Cr6+3 0.387360 0.009910 0.251220 1.034535
Cr7   Cr    Cr6+3 0.112640 0.509910 0.748780 1.033894
Cr8   Cr    Cr6+3 0.887360 0.509910 0.251220 1.034563
Cr9   Cr    Cr6+3 0.614190 0.322400 0.747710 1.009168
Cr10  Cr    Cr6+3 0.385810 0.322400 0.252290 1.013692
Cr11  Cr    Cr6+3 0.114190 0.822400 0.747710 1.009146
Cr12  Cr    Cr6+3 0.885810 0.822400 0.252290 1.013652
H1    H     H_    0.466563 0.996070 0.057691 0.157846
H2    H     H_    0.521503 0.987932 0.937306 0.147951
H3    H     H_    0.966867 0.495980 0.057731 0.157756
H4    H     H_    0.021785 0.487977 0.937364 0.147896
H5    H     H_    0.912249 0.876759 0.442073 0.180235
H6    H     H_    0.997338 0.959240 0.569335 0.151273
H7    H     H_    0.412248 0.376757 0.442074 0.180234
H8    H     H_    0.497337 0.459239 0.569336 0.151272
H9    H     H_    0.494086 0.471635 0.442466 0.137109
H10   H     H_    0.415352 0.363609 0.568250 0.147701
H11   H     H_    0.994088 0.971635 0.442465 0.137108
H12   H     H_    0.915353 0.863611 0.568250 0.147700
H13   H     H_    0.624076 0.404027 0.547526 0.146773
H14   H     H_    0.314895 0.554747 0.428631 0.130513
H15   H     H_    0.124076 0.904027 0.547526 0.146772
H16   H     H_    0.814897 0.054747 0.428631 0.130509
H17   H     H_    0.638131 0.444473 0.418640 0.126101
H18   H     H_    0.314148 0.577927 0.559414 0.144892
H19   H     H_    0.138131 0.944472 0.418639 0.126098
H20   H     H_    0.814149 0.077927 0.559414 0.144892
H21   H     H_    0.888964 0.445556 0.456394 0.158482
H22   H     H_    0.133073 0.251623 0.584842 0.200155
H23   H     H_    0.388965 0.945559 0.456395 0.158481
H24   H     H_    0.633074 0.751604 0.584842 0.200150
H25   H     H_    0.909675 0.281360 0.437094 0.160419
H26   H     H_    0.199910 0.127605 0.581877 0.150714
H27   H     H_    0.409676 0.781362 0.437094 0.160421
H28   H     H_    0.699921 0.627600 0.581876 0.150709
H29   H     H_    0.893454 0.236269 0.559956 0.155167
H30   H     H_    0.191531 0.122865 0.453287 0.158201
H31   H     H_    0.393455 0.736270 0.559956 0.155165
H32   H     H_    0.691544 0.622862 0.453286 0.158205
H33   H     H_    0.871729 0.399952 0.578626 0.171671
H34   H     H_    0.125619 0.248607 0.456614 0.180687
H35   H     H_    0.371730 0.899953 0.578627 0.171671
H36   H     H_    0.625619 0.748584 0.456613 0.180686
H37   H     H_    0.545490 0.240167 0.070166 0.102963
H38   H     H_    0.522911 0.265124 0.957637 0.097227
H39   H     H_    0.045556 0.740276 0.070254 0.103043
H40   H     H_    0.023214 0.765145 0.957696 0.097171
H41   H     H_    0.802061 0.191072 0.957087 0.129102
H42   H     H_    0.151140 0.384955 0.076179 0.154363
H43   H     H_    0.302456 0.691587 0.956954 0.129101
H44   H     H_    0.651217 0.886134 0.076384 0.154327
H45   H     H_    0.822244 0.248015 0.081442 0.135698
H46   H     H_    0.132975 0.421465 0.952814 0.139472
H47   H     H_    0.322615 0.748445 0.081295 0.135686
H48   H     H_    0.633020 0.922897 0.952989 0.139418
H49   H     H_    0.216331 0.134730 0.035702 0.150488
H50   H     H_    0.874899 0.042370 0.924258 0.140170
H51   H     H_    0.717146 0.634943 0.035485 0.150185
H52   H     H_    0.374878 0.542589 0.924247 0.140116
H53   H     H_    0.622174 0.603404 0.056926 0.141725
H54   H     H_    0.417280 0.392621 0.905918 0.158365
H55   H     H_    0.121486 0.102219 0.057250 0.141498
H56   H     H_    0.917188 0.892315 0.905839 0.158457
H57   H     H_    0.602093 0.545676 0.935277 0.139389
H58   H     H_    0.435709 0.365603 0.030964 0.145124
H59   H     H_    0.101425 0.044523 0.935586 0.139299
H60   H     H_    0.935663 0.865111 0.030853 0.145107
H61   H     H_    0.696548 0.581054 0.913840 0.162520
H62   H     H_    0.388443 0.511381 0.050741 0.141829
H63   H     H_    0.195737 0.080873 0.914038 0.162567
H64   H     H_    0.888578 0.011028 0.050703 0.141852
O1    O     O_R   0.784290 0.290360 0.830540 -0.500497
O2    O     O_R   0.215710 0.290360 0.169460 -0.524195
O3    O     O_R   0.284290 0.790360 0.830540 -0.500556
O4    O     O_R   0.715710 0.790360 0.169460 -0.524144
O5    O     O_R   0.554690 0.080440 0.673480 -0.479060
O6    O     O_R   0.445310 0.080440 0.326520 -0.489729
O7    O     O_R   0.054690 0.580440 0.673480 -0.479056
O8    O     O_R   0.945310 0.580440 0.326520 -0.489732
O9    O     O_R   0.543980 0.282110 0.666770 -0.523026
O10   O     O_R   0.456020 0.282110 0.333230 -0.526047
O11   O     O_R   0.043980 0.782110 0.666770 -0.523026
O12   O     O_R   0.956020 0.782110 0.333230 -0.526049
O13   O     O_R   0.679070 0.374030 0.674430 -0.498352
O14   O     O_R   0.320930 0.374030 0.325570 -0.508955
O15   O     O_R   0.179070 0.874030 0.674430 -0.498342
O16   O     O_R   0.820930 0.874030 0.325570 -0.508963
O17   O     O_3   0.665360 0.165350 0.749070 -0.307414
O18   O     O_3   0.334640 0.165350 0.250930 -0.266956
O19   O     O_3   0.165360 0.665350 0.749070 -0.307488
O20   O     O_3   0.834640 0.665350 0.250930 -0.266923
O21   O     O_R   0.762610 0.041070 0.825230 -0.524063
O22   O     O_R   0.237390 0.041070 0.174770 -0.511068
O23   O     O_R   0.262610 0.541070 0.825230 -0.524031
O24   O     O_R   0.737390 0.541070 0.174770 -0.511006
O25   O     O_R   0.667390 0.924160 0.829970 -0.527814
O26   O     O_R   0.332610 0.924160 0.170030 -0.521841
O27   O     O_R   0.167390 0.424160 0.829970 -0.527948
O28   O     O_R   0.832610 0.424160 0.170030 -0.521781
O29   O     O_R   0.553980 0.081420 0.821780 -0.488034
O30   O     O_R   0.446020 0.081420 0.178220 -0.494560
O31   O     O_R   0.053980 0.581420 0.821780 -0.487990
O32   O     O_R   0.946020 0.581420 0.178220 -0.494519
O33   O     O_R   0.543210 0.283170 0.826740 -0.522440
O34   O     O_R   0.456790 0.283170 0.173260 -0.523927
O35   O     O_R   0.043210 0.783170 0.826740 -0.522462
O36   O     O_R   0.956790 0.783170 0.173260 -0.523950
O37   O     O_R   0.678350 0.375000 0.822720 -0.498878
O38   O     O_R   0.321650 0.375000 0.177280 -0.491319
O39   O     O_R   0.178350 0.875000 0.822720 -0.498906
O40   O     O_R   0.821650 0.875000 0.177280 -0.491359
O41   O     O_R   0.785060 0.289300 0.670580 -0.506907
O42   O     O_R   0.214940 0.289300 0.329420 -0.493028
O43   O     O_R   0.285060 0.789300 0.670580 -0.506898
O44   O     O_R   0.714940 0.789300 0.329420 -0.493037
O45   O     O_R   0.763330 0.040090 0.676940 -0.525246
O46   O     O_R   0.236670 0.040090 0.323060 -0.507567
O47   O     O_R   0.263330 0.540090 0.676940 -0.525245
O48   O     O_R   0.736670 0.540090 0.323060 -0.507571
O49   O     O_R   0.668160 0.923110 0.670000 -0.498374
O50   O     O_R   0.331840 0.923110 0.330000 -0.510262
O51   O     O_R   0.168160 0.423110 0.670000 -0.498377
O52   O     O_R   0.831840 0.423110 0.330000 -0.510275
C113  C     C_1   0.519541 0.938080 0.565253 0.218999
N1    N     N_1   0.517936 0.845736 0.594208 -0.338276
C114  C     C_1   0.532362 0.949843 0.412736 0.204151
N2    N     N_1   0.540332 0.863652 0.378061 -0.318486
C115  C     C_1   0.019538 0.438080 0.565254 0.218993
N3    N     N_1   0.017932 0.345737 0.594209 -0.338275
C116  C     C_1   0.032359 0.449842 0.412737 0.204153
N4    N     N_1   0.040328 0.363651 0.378061 -0.318487

loop_
_geom_bond_atom_site_label_1
_geom_bond_atom_site_label_2
_ccdc_geom_bond_type
C58   C62   A    
C39   C51   S    
C4    C109  S    
C65   C69   A    
C67   C83   A    
Cr2   O2    S    
Cr3   O19   S    
C6    C110  A    
C41   C42   A    
C14   C18   A    
C93   O9    A    
C34   C93   S    
Cr9   O17   S    
C22   H54   S    
C53   C69   A    
C33   C94   S    
C104  H39   S    
Cr3   O47   S    
C51   H5    S    
C68   C84   A    
C9    C25   S    
Cr2   O46   S    
C63   C79   S    
C35   C96   S    
C45   O33   A    
Cr7   O27   S    
C49   H7    S    
C103  H40   S    
Cr8   O8    S    
C81   C97   S    
Cr3   O43   S    
C12   C28   S    
C46   O30   A    
C33   C42   A    
C13   C29   A    
C101  H38   S    
Cr6   O18   S    
C19   H47   S    
C55   C90   S    
Cr5   O17   S    
C28   H64   S    
C1    C112  S    
C79   H35   S    
C25   H61   S    
C17   H45   S    
C80   H36   S    
C67   C71   A    
Cr11  O39   S    
C76   H28   S    
C3    C110  S    
C89   O45   A    
C114  N2    T    
C48   C104  S    
C91   O47   A    
C42   C114  S    
Cr9   O37   S    
Cr8   O32   S    
C90   O46   A    
C102  C105  D    
C72   H20   S    
C113  N1    T    
C96   O8    A    
C57   C73   S    
C49   C50   S    
Cr10  O18   S    
C64   C84   A    
C36   C40   A    
C49   H9    S    
C77   H33   S    
C44   C116  S    
C77   H29   S    
C15   C19   A    
C51   H11   S    
C78   H34   S    
C97   O41   A    
Cr8   O28   S    
Cr12  O36   S    
C75   H27   S    
C21   H51   S    
C66   H14   S    
C73   H21   S    
Cr6   O30   S    
C107  C108  S    
Cr5   O29   S    
C103  C108  D    
C23   C27   S    
C30   C86   S    
C67   H15   S    
C23   H55   S    
C7    C23   S    
Cr2   O22   S    
C8    C12   A    
Cr1   O45   S    
Cr6   O50   S    
C6    C22   S    
C21   H53   S    
C62   C82   A    
C11   C31   A    
C73   H25   S    
C98   O42   A    
C115  N3    T    
Cr12  O20   S    
Cr7   O31   S    
C64   C80   S    
C47   C103  S    
C15   H43   S    
C34   C41   A    
C65   H13   S    
C14   C30   A    
Cr1   O41   S    
C100  O16   A    
C7    C111  A    
C34   C38   A    
Cr12  O40   S    
C25   H57   S    
C80   H32   S    
C3    O27   A    
C18   H46   S    
C3    O23   A    
C62   C78   S    
C2    C111  S    
C2    O22   A    
C86   O2    A    
C90   O50   A    
C1    O21   A    
C51   C52   S    
Cr8   O20   S    
C89   O49   A    
C100  O44   A    
C31   C87   S    
C50   H10   S    
C61   C77   S    
C39   C40   A    
C53   C57   A    
Cr1   O21   S    
C78   H30   S    
C48   O36   A    
C56   C72   A    
C40   C52   S    
C47   O31   A    
C92   O48   A    
Cr10  O10   S    
Cr2   O18   S    
C76   H24   S    
C63   C83   A    
C68   C72   A    
C94   O10   A    
Cr1   O17   S    
C55   C71   A    
C35   C39   A    
C43   C44   A    
C6    C10   A    
C37   C38   A    
C86   O38   A    
C66   C82   A    
C37   C49   S    
C10   C30   A    
C65   C81   A    
C54   C70   A    
C11   C27   S    
C16   C20   A    
Cr4   O48   S    
C53   C92   S    
C10   C26   S    
C85   O37   A    
Cr11  O19   S    
Cr6   O26   S    
C27   H63   S    
C13   H41   S    
C108  H4    S    
Cr12  O12   S    
C15   C31   A    
C35   C44   A    
Cr9   O9    S    
Cr4   O20   S    
C50   H8    S    
Cr8   O52   S    
C23   H49   S    
C26   H58   S    
C95   O11   A    
C56   C89   S    
C20   H48   S    
Cr12  O16   S    
Cr4   O44   S    
C2    O26   A    
C85   O1    A    
C87   O39   A    
C45   C101  S    
Cr10  O34   S    
C52   H12   S    
C82   C98   S    
C68   H16   S    
C32   C88   S    
Cr7   O19   S    
C91   O51   A    
Cr5   O5    S    
C59   C75   S    
C43   C115  S    
C55   C59   A    
C58   C74   S    
C24   C28   S    
C87   O3    A    
C54   C58   A    
Cr11  O11   S    
C101  C106  D    
C96   O12   A    
C21   C25   S    
C52   H6    S    
C92   O52   A    
C95   O7    A    
C99   O15   A    
C24   H50   S    
C94   O6    A    
C29   C85   S    
C74   H22   S    
C93   O5    A    
C76   C80   S    
C97   O13   A    
C17   C109  A    
Cr2   O42   S    
C70   H18   S    
C99   O43   A    
C116  N4    T    
C57   C61   A    
C38   C50   S    
C19   C111  A    
C88   O4    A    
C16   C32   A    
C79   H31   S    
Cr1   O1    S    
C105  C106  S    
C106  H2    S    
C59   C63   A    
Cr11  O35   S    
C4    O24   A    
Cr3   O23   S    
C60   C64   A    
C75   H23   S    
C105  H1    S    
C8    C112  A    
C28   H60   S    
C74   H26   S    
Cr3   O3    S    
C54   C91   S    
Cr4   O24   S    
C61   C81   A    
C1    O25   A    
C9    C29   A    
Cr9   O13   S    
C36   C95   S    
Cr7   O51   S    
C88   O40   A    
C71   H19   S    
C5    C109  A    
C16   H44   S    
C102  H37   S    
C98   O14   A    
C24   H56   S    
C69   H17   S    
C74   C78   S    
C8    C24   S    
C60   C76   S    
C33   C37   A    
Cr7   O7    S    
Cr4   O4    S    
C46   O34   A    
Cr6   O6    S    
C27   H59   S    
C22   H52   S    
C84   C100  S    
Cr5   O49   S    
C13   C17   A    
C56   C60   A    
Cr10  O14   S    
Cr5   O25   S    
C5    C21   S    
C66   C70   A    
C47   O35   A    
C73   C77   S    
C18   C110  A    
C14   H42   S    
C22   C26   S    
C20   C112  A    
C41   C113  S    
C4    O28   A    
Cr9   O33   S    
C26   H62   S    
C36   C43   A    
C83   C99   S    
C5    C9    A    
C107  H3    S    
Cr11  O15   S    
C75   C79   S    
C104  C107  D    
C12   C32   A    
C45   O29   A    
C48   O32   A    
C7    C11   A    
C46   C102  S    
Cr10  O38   S    
