data_mof_unit_19040.cif
_audit_creation_date              2012-12-10T19:48:39-0500
_audit_creation_method            fapswitch 2.2
_symmetry_space_group_name_H-M    P1
_symmetry_Int_Tables_number       1
_space_group_crystal_system       triclinic
_cell_length_a                    13.179874
_cell_length_b                    14.26802
_cell_length_c                    14.763349
_cell_angle_alpha                 87.880594
_cell_angle_beta                  90.526389
_cell_angle_gamma                 68.560644
_cell_volume                      2581.61774203

loop_
_atom_site_label
_atom_site_type_symbol
_atom_type_description
_atom_site_fract_x
_atom_site_fract_y
_atom_site_fract_z
_atom_type_partial_charge
C1    C     C_R   0.497335 0.499507 0.672601 0.884355
C2    C     C_R   0.972109 0.469617 0.529275 0.045701
C3    C     C_R   0.875285 0.477593 0.481668 0.071529
C4    C     C_R   0.018977 0.542155 0.505913 0.059738
C5    C     C_R   0.959147 0.630634 0.453004 0.174349
C6    C     C_R   0.862499 0.638052 0.409622 -0.262231
C7    C     C_R   0.826495 0.558480 0.417711 -0.192769
C8    C     C_R   0.128962 0.521860 0.521605 -0.248246
C9    C     C_R   0.111464 0.686208 0.459161 -0.224758
C10   C     C_R   0.824168 0.408560 0.502974 -0.125267
C11   C     C_R   0.499699 0.428745 0.917423 -0.269368
C12   C     C_R   0.704851 0.443781 0.496872 0.859825
C13   C     C_R   0.522753 0.421398 0.826288 -0.229690
C14   C     C_R   0.474062 0.504995 0.767523 -0.084834
C15   C     C_R   0.398425 0.594555 0.798776 -0.314037
C16   C     C_R   0.372883 0.601645 0.889859 0.547657
C17   C     C_R   0.427547 0.519574 0.949561 0.011870
C18   C     C_R   0.478013 0.591129 0.083908 0.548960
C19   C     C_R   0.499033 0.583640 0.176983 -0.344927
C20   C     C_R   0.472050 0.513755 0.230716 -0.097642
C21   C     C_R   0.416648 0.456828 0.192883 -0.188694
C22   C     C_R   0.393075 0.465847 0.100945 -0.279441
C23   C     C_R   0.495676 0.502956 0.327104 0.876508
C24   C     C_R   0.425503 0.531144 0.046317 0.055325
C25   C     C_R   0.597319 0.859431 0.528584 -0.221415
C26   C     C_R   0.589089 0.763147 0.534501 -0.032525
C27   C     C_R   0.417428 0.829059 0.458072 0.248286
C28   C     C_R   0.425969 0.924711 0.448585 -0.316537
C29   C     C_R   0.514515 0.942258 0.484895 0.128354
C30   C     C_R   0.484063 0.116975 0.412517 -0.370943
C31   C     C_R   0.476779 0.217854 0.420060 -0.032543
C32   C     C_R   0.527887 0.185739 0.575768 0.118492
C33   C     C_R   0.522528 0.088036 0.572125 0.404907
C34   C     C_R   0.295152 0.556398 0.500254 0.858297
C35   C     C_R   0.510334 0.049481 0.488669 -0.000159
C36   C     C_R   0.003155 0.705054 0.435493 -0.197183
C37   C     C_R   0.176340 0.591877 0.497500 -0.062451
C38   C     C_R   0.880934 0.320471 0.554112 -0.240129
C39   C     C_R   0.974576 0.312426 0.602654 -0.180428
C40   C     C_R   0.014036 0.391572 0.599509 0.108532
H1    H     H_    0.145798 0.741158 0.438847 0.154467
H2    H     H_    0.581938 0.352498 0.802676 0.158184
H3    H     H_    0.358808 0.658815 0.752594 0.163397
H4    H     H_    0.539947 0.629218 0.206312 0.158255
H5    H     H_    0.392287 0.404704 0.234200 0.155262
H6    H     H_    0.354470 0.418416 0.071538 0.157211
H7    H     H_    0.667727 0.869256 0.558823 0.166696
H8    H     H_    0.654622 0.701079 0.567483 0.153574
H9    H     H_    0.819121 0.701882 0.364085 0.149136
H10   H     H_    0.359833 0.987769 0.416932 0.146928
H11   H     H_    0.468583 0.092024 0.347231 0.171343
H12   H     H_    0.454913 0.267433 0.360211 0.152160
H13   H     H_    0.956647 0.774278 0.397568 0.134508
H14   H     H_    0.181087 0.446186 0.541124 0.164388
H15   H     H_    0.845834 0.263920 0.566426 0.157958
H16   H     H_    0.008714 0.249006 0.650725 0.133787
H17   H     H_    0.757413 0.562325 0.375378 0.160721
H18   H     H_    0.542823 0.365650 0.963764 0.160345
N1    N     N_R   0.500000 0.747530 0.500020 -0.099209
N2    N     N_R   0.499940 0.252470 0.500020 -0.112048
O1    O     O_R   0.499990 0.420530 0.630930 -0.632028
O2    O     O_R   0.499990 0.579480 0.630940 -0.606331
O3    O     O_R   0.653620 0.381060 0.499970 -0.616130
O4    O     O_R   0.653620 0.540010 0.499980 -0.612525
O5    O     O_R   0.500010 0.420520 0.369060 -0.621327
O6    O     O_R   0.500010 0.579470 0.369070 -0.632401
O7    O     O_R   0.346380 0.459990 0.500020 -0.609159
O8    O     O_R   0.346380 0.618940 0.500030 -0.633614
Zn1   Zn    Zn3+2 0.500000 0.393860 0.499990 0.921136
Zn2   Zn    Zn3+2 0.500000 0.606140 0.500010 0.922557
O9    O     O_3   0.301012 0.691092 0.921096 -0.598800
C41   C     C_3   0.194162 0.691656 0.910296 0.066580
H19   H     H_    0.182467 0.632585 0.955917 0.135271
H20   H     H_    0.177017 0.677914 0.838873 0.096176
C42   C     C_3   0.111137 0.794667 0.932865 -0.331223
H21   H     H_    0.121177 0.853761 0.886581 0.218831
H22   H     H_    0.027573 0.794714 0.921816 0.167702
C43   C     C_3   0.123811 0.819737 0.030870 -0.787802
H23   H     H_    0.115867 0.760558 0.078189 0.241378
H24   H     H_    0.059401 0.893055 0.045522 0.227345
H25   H     H_    0.204577 0.825844 0.041961 0.291713
O10   O     O_3   0.510554 0.655215 0.029057 -0.626192
C44   C     C_3   0.622533 0.607661 0.010996 0.050154
H26   H     H_    0.643787 0.527067 0.994411 0.136938
H27   H     H_    0.672414 0.611552 0.070982 0.137988
C45   C     C_3   0.650200 0.662447 0.929564 -0.278570
H28   H     H_    0.598200 0.661169 0.870223 0.234571
H29   H     H_    0.632830 0.742317 0.945390 0.225494
C46   C     C_3   0.769858 0.613080 0.905071 -0.995079
H30   H     H_    0.823616 0.614400 0.963014 0.266013
H31   H     H_    0.787184 0.654926 0.846030 0.265514
H32   H     H_    0.788289 0.533813 0.886742 0.267427
C47   C     C_3   0.310560 0.824508 0.426316 -0.421143
C48   C     C_3   0.318117 0.775240 0.334192 -0.255255
C49   C     C_3   0.226599 0.837428 0.268069 -0.947069
H33   H     H_    0.145799 0.848415 0.297104 0.259922
H34   H     H_    0.232400 0.911986 0.252165 0.269693
H35   H     H_    0.234284 0.796777 0.204446 0.267269
H36   H     H_    0.397059 0.765318 0.301873 0.232181
H37   H     H_    0.311648 0.700353 0.343920 0.237539
H38   H     H_    0.278643 0.789307 0.480702 0.195489
H39   H     H_    0.247519 0.901991 0.420799 0.180390
C50   C     C_3   0.571689 0.208927 0.664265 -0.364375
C51   C     C_3   0.685534 0.215012 0.654057 -0.291829
C52   C     C_3   0.765102 0.157085 0.730707 -0.961932
H40   H     H_    0.732666 0.186182 0.797411 0.261160
H41   H     H_    0.778833 0.075525 0.729866 0.280800
H42   H     H_    0.844539 0.166306 0.721631 0.251750
H43   H     H_    0.721424 0.183370 0.588922 0.219479
H44   H     H_    0.679689 0.294251 0.654592 0.241601
H45   H     H_    0.510770 0.274041 0.694892 0.187859
H46   H     H_    0.579504 0.149955 0.717640 0.232108
O11   O     O_3   0.533657 0.028512 0.650904 -0.672221
C53   C     C_3   0.429833 0.030857 0.678323 0.088413
H47   H     H_    0.442572 0.958825 0.716687 0.177692
H48   H     H_    0.373239 0.034861 0.620394 0.133166
C54   C     C_3   0.376109 0.118174 0.740639 -0.387267
H49   H     H_    0.431672 0.112483 0.799399 0.228778
H50   H     H_    0.360240 0.191153 0.702919 0.208462
C55   C     C_3   0.268037 0.116678 0.775450 -0.961851
H51   H     H_    0.210070 0.125092 0.717866 0.255948
H52   H     H_    0.231757 0.180173 0.820860 0.261924
H53   H     H_    0.281081 0.044896 0.814333 0.273629
C56   C     C_3   0.082228 0.397464 0.682050 -0.434897
C57   C     C_3   0.028041 0.495455 0.731882 -0.314128
C58   C     C_3   0.092517 0.496864 0.817917 -0.920615
H54   H     H_    0.098237 0.432403 0.864895 0.265514
H55   H     H_    0.175966 0.492687 0.800845 0.261125
H56   H     H_    0.050491 0.567925 0.852779 0.242539
H57   H     H_    0.022218 0.561922 0.687751 0.228928
H58   H     H_    0.944095 0.502516 0.750559 0.225745
H59   H     H_    0.090217 0.334342 0.731574 0.203967
H60   H     H_    0.167611 0.385700 0.666485 0.194375

loop_
_geom_bond_atom_site_label_1
_geom_bond_atom_site_label_2
_ccdc_geom_bond_type
C30   H11   S    
C47   C48   S    
C34   C37   S    
C49   H33   S    
C31   H12   S    
C4    C8    A    
C1    O2    A    
C53   H47   S    
C49   H35   S    
O6    Zn2   S    
C19   H4    S    
C52   H41   S    
C56   H59   S    
C58   H54   S    
C56   H60   S    
C18   C24   A    
C48   H36   S    
C23   O6    A    
C28   C29   A    
C3    C7    A    
C54   H50   S    
C30   C31   A    
C12   O4    A    
C43   H24   S    
C15   C16   A    
C5    C36   A    
O2    Zn2   S    
C50   H45   S    
C18   C19   A    
C51   C52   S    
C36   H13   S    
C18   O10   S    
C28   H10   S    
C57   H57   S    
C38   H15   S    
C44   H26   S    
C16   C17   A    
C9    C36   A    
O4    Zn2   S    
C46   H31   S    
C11   H18   S    
C26   N1    A    
C25   H7    S    
C55   H53   S    
C26   H8    S    
C21   C22   A    
C16   O9    S    
C41   C42   S    
C13   H2    S    
C55   H52   S    
C21   H5    S    
C25   C29   A    
C38   C39   A    
C40   C56   S    
C52   H42   S    
C17   C24   S    
O3    Zn1   S    
C41   H20   S    
C54   C55   S    
C47   H38   S    
C39   C40   A    
C12   O3    A    
C43   H23   S    
C41   H19   S    
C58   H56   S    
C25   C26   A    
C50   H46   S    
O7    Zn1   S    
C31   N2    A    
C47   H39   S    
C2    C4    A    
C42   H21   S    
C57   H58   S    
C39   H16   S    
C14   C15   A    
C20   C23   S    
C48   H37   S    
C9    C37   A    
C32   C50   S    
C46   H32   S    
C42   H22   S    
C10   C12   S    
C30   C35   A    
C22   H6    S    
C57   C58   S    
C22   C24   A    
C27   C47   S    
C8    C37   A    
C32   N2    A    
C34   O8    A    
C50   C51   S    
C55   H51   S    
O11   C53   S    
O1    Zn1   S    
C11   C17   A    
C58   H55   S    
C44   H27   S    
C45   H28   S    
C9    H1    S    
C4    C5    A    
C45   C46   S    
C1    O1    A    
C34   O7    A    
C53   H48   S    
C49   H34   S    
C6    C7    A    
C52   H40   S    
C29   C35   S    
C33   O11   S    
C8    H14   S    
C10   C38   A    
C32   C33   A    
C23   O5    A    
C19   C20   A    
C2    C3    A    
C15   H3    S    
O9    C41   S    
C3    C10   A    
C27   N1    A    
C54   H49   S    
C51   H44   S    
C11   C13   A    
C43   H25   S    
C5    C6    A    
N2    Zn1   S    
O5    Zn1   S    
C33   C35   A    
C45   H29   S    
C6    H9    S    
C48   C49   S    
C42   C43   S    
C53   C54   S    
N1    Zn2   S    
C2    C40   A    
C44   C45   S    
C20   C21   A    
O8    Zn2   S    
O10   C44   S    
C27   C28   A    
C51   H43   S    
C1    C14   S    
C46   H30   S    
C13   C14   A    
C7    H17   S    
C56   C57   S    
