data_mof_unit_12463.cif
_audit_creation_date              2012-12-10T19:25:04-0500
_audit_creation_method            fapswitch 2.2
_symmetry_space_group_name_H-M    P1
_symmetry_Int_Tables_number       1
_space_group_crystal_system       triclinic
_cell_length_a                    15.712373
_cell_length_b                    10.490499
_cell_length_c                    9.782832
_cell_angle_alpha                 90.438458
_cell_angle_beta                  90.032485
_cell_angle_gamma                 89.86369
_cell_volume                      1612.45837235

loop_
_atom_site_label
_atom_site_type_symbol
_atom_type_description
_atom_site_fract_x
_atom_site_fract_y
_atom_site_fract_z
_atom_type_partial_charge
C1    C     C_R   0.500042 0.257558 0.499407 0.856935
C2    C     C_3   0.477726 0.610702 0.952164 -0.268242
C3    C     C_3   0.575033 0.473164 0.951014 -0.258990
C4    C     C_3   0.424967 0.526835 0.048985 -0.258990
C5    C     C_3   0.448006 0.417467 0.951692 0.771676
C6    C     C_3   0.551994 0.582533 0.048308 0.771676
C7    C     C_R   0.338109 0.500406 0.499948 0.887264
C8    C     C_R   0.661891 0.499594 0.500052 0.887265
C9    C     C_3   0.973109 0.405633 0.583826 -0.323226
C10   C     C_3   0.026891 0.594367 0.416174 -0.323227
C11   C     C_3   0.029098 0.389489 0.455615 0.580867
C12   C     C_R   0.499958 0.742442 0.500593 0.856934
C13   C     C_3   0.970902 0.610511 0.544385 0.580867
C14   C     C_1   0.249134 0.501980 0.499962 -0.160275
C15   C     C_1   0.750866 0.498020 0.500038 -0.160275
C16   C     C_3   0.027758 0.521534 0.629635 -0.311784
C17   C     C_3   0.972242 0.478466 0.370365 -0.311785
C18   C     C_3   0.082870 0.503195 0.500571 0.068885
C19   C     C_3   0.917130 0.496805 0.499429 0.068884
C20   C     C_1   0.173793 0.503100 0.500210 0.012975
C21   C     C_1   0.826207 0.496901 0.499790 0.012975
C22   C     C_3   0.570092 0.042725 0.564376 -0.187883
C23   C     C_3   0.570020 0.956695 0.435612 -0.155801
C24   C     C_3   0.429908 0.957275 0.435624 -0.187883
C25   C     C_3   0.003699 0.186570 0.374586 0.101078
C26   C     C_3   0.045589 0.062147 0.330287 -0.811300
C27   C     C_3   0.996301 0.813430 0.625413 0.101079
C28   C     C_3   0.954411 0.937854 0.669712 -0.811300
C29   C     C_3   0.429980 0.043305 0.564388 -0.155801
C30   C     C_3   0.499968 0.877628 0.501719 0.014967
C31   C     C_3   0.500032 0.122372 0.498281 0.014967
C32   C     C_3   0.500039 0.960961 0.630648 -0.119727
C33   C     C_3   0.499961 0.039039 0.369352 -0.119727
C34   C     C_3   0.522274 0.389298 0.047836 -0.268241
F1    F     F_    0.392559 0.329380 0.895481 -0.658195
F2    F     F_    0.607441 0.670619 0.104519 -0.658195
H1    H     H_    0.949130 0.328250 0.650213 0.156361
H2    H     H_    0.499938 0.074859 0.262835 0.155429
H3    H     H_    0.638203 0.451766 0.905430 0.169558
H4    H     H_    0.361797 0.548234 0.094570 0.169558
H5    H     H_    0.540180 0.296032 0.092526 0.161219
H6    H     H_    0.459820 0.703968 0.907473 0.161219
H7    H     H_    0.964329 0.222005 0.288149 0.138926
H8    H     H_    0.961900 0.166565 0.463592 0.131066
H9    H     H_    0.087203 0.026130 0.413318 0.251468
H10   H     H_    0.996067 0.989738 0.307177 0.210440
H11   H     H_    0.084677 0.077572 0.237342 0.260624
H12   H     H_    0.050870 0.671750 0.349787 0.156361
H13   H     H_    0.038100 0.833436 0.536406 0.131065
H14   H     H_    0.035671 0.777995 0.711850 0.138926
H15   H     H_    0.915324 0.922428 0.762657 0.260624
H16   H     H_    0.003933 0.010263 0.692822 0.210440
H17   H     H_    0.912796 0.973870 0.586682 0.251468
H18   H     H_    0.947524 0.459304 0.265907 0.160949
H19   H     H_    0.052476 0.540696 0.734093 0.160949
H20   H     H_    0.626941 0.916540 0.383472 0.166458
H21   H     H_    0.373059 0.083460 0.616528 0.166458
H22   H     H_    0.627086 0.082378 0.616489 0.142105
H23   H     H_    0.372914 0.917622 0.383511 0.142105
H24   H     H_    0.500062 0.925141 0.737165 0.155429
N1    N     N_3   0.499940 0.500030 0.863290 -0.130967
N2    N     N_3   0.500060 0.499970 0.136710 -0.130967
O1    O     O_R   0.500000 0.313960 0.616610 -0.581884
O2    O     O_3   0.932542 0.724705 0.590361 -0.600779
O3    O     O_R   0.500000 0.686040 0.383390 -0.581884
O4    O     O_R   0.500040 0.313950 0.383350 -0.633183
O5    O     O_R   0.499960 0.686050 0.616650 -0.633183
O6    O     O_R   0.376760 0.499990 0.616610 -0.578540
O7    O     O_R   0.623240 0.500010 0.383390 -0.578540
O8    O     O_R   0.376790 0.499980 0.383350 -0.619047
O9    O     O_R   0.623210 0.500020 0.616650 -0.619047
O10   O     O_3   0.067458 0.275295 0.409639 -0.600778
Zn1   Zn    Zn3+2 0.499980 0.500010 0.655740 1.000573
Zn2   Zn    Zn3+2 0.500020 0.499990 0.344260 1.000573

loop_
_geom_bond_atom_site_label_1
_geom_bond_atom_site_label_2
_ccdc_geom_bond_type
C11   C18   S    
C1    C31   S    
C3    C6    S    
C25   H7    S    
C7    O8    A    
C23   H20   S    
C8    O7    A    
C22   C32   S    
C19   C21   S    
C9    C16   S    
C10   C18   S    
C29   C32   S    
C28   H15   S    
C10   C17   S    
O4    Zn2   S    
C4    N2    S    
C34   N2    S    
C24   C29   S    
C26   H9    S    
C7    O6    A    
C9    C19   S    
C7    C14   S    
C4    H4    S    
C23   C33   S    
O8    Zn2   S    
C31   C33   S    
O5    Zn1   S    
C27   H14   S    
C3    H3    S    
C2    C6    S    
C34   H5    S    
C1    O1    A    
C25   H8    S    
C3    N1    S    
C12   O5    A    
C22   C31   S    
C13   C19   S    
C23   C30   S    
C14   C20   T    
O9    Zn1   S    
C11   O10   S    
O1    Zn1   S    
C3    C34   S    
N1    Zn1   S    
O6    Zn1   S    
O3    Zn2   S    
C2    C4    S    
C5    C34   S    
C9    H1    S    
C1    O4    A    
C5    N1    S    
O7    Zn2   S    
C25   O10   S    
C9    C11   S    
C26   H11   S    
C29   H21   S    
C8    C15   S    
C10   H12   S    
C32   H24   S    
C11   C17   S    
C8    O9    A    
C12   C30   S    
C33   H2    S    
C4    C5    S    
C10   C13   S    
C22   H22   S    
C28   H17   S    
C2    N1    S    
C12   O3    A    
C24   C33   S    
C6    N2    S    
C25   C26   S    
C16   H19   S    
C29   C31   S    
C30   C32   S    
C28   H16   S    
C13   O2    S    
C2    H6    S    
C24   H23   S    
C5    F1    S    
C17   C19   S    
C6    F2    S    
C18   C20   S    
C24   C30   S    
C27   O2    S    
C26   H10   S    
C15   C21   T    
C16   C18   S    
C13   C16   S    
C27   C28   S    
C22   C23   S    
N2    Zn2   S    
C17   H18   S    
C27   H13   S    
