data_mof_unit_57194.cif
_audit_creation_date              2012-10-26T20:00:14-0400
_audit_creation_method            fapswitch 2.2
_symmetry_space_group_name_H-M    P1
_symmetry_Int_Tables_number       1
_space_group_crystal_system       triclinic
_cell_length_a                    23.435828
_cell_length_b                    10.887872
_cell_length_c                    9.75652
_cell_angle_alpha                 91.302331
_cell_angle_beta                  89.963864
_cell_angle_gamma                 90.21085
_cell_volume                      2488.87475651

loop_
_atom_site_label
_atom_site_type_symbol
_atom_type_description
_atom_site_fract_x
_atom_site_fract_y
_atom_site_fract_z
_atom_type_partial_charge
C1    C     C_R   0.501859 0.265440 0.498153 0.587841
C2    C     C_R   0.120881 0.582516 0.601863 0.465660
C3    C     C_R   0.245216 0.624662 0.458999 0.292142
C4    C     C_R   0.391300 0.496490 0.500075 0.615579
C5    C     C_R   0.304138 0.611231 0.462231 -0.118216
C6    C     C_R   0.328961 0.500877 0.500306 -0.014524
C7    C     C_R   0.294796 0.399020 0.536599 0.230575
C8    C     C_R   0.234408 0.412034 0.534432 -0.026782
C9    C     C_R   0.210153 0.525254 0.494872 0.187128
C10   C     C_R   0.764494 0.418411 0.550579 0.306826
C11   C     C_R   0.704075 0.410252 0.550446 -0.033774
C12   C     C_R   0.971488 0.454877 0.249687 0.245341
C13   C     C_R   0.671409 0.508842 0.499702 0.018440
C14   C     C_R   0.698497 0.614971 0.448406 -0.033387
C15   C     C_R   0.758592 0.620485 0.443153 0.009552
C16   C     C_R   0.501446 0.734631 0.501541 0.543635
C17   C     C_R   0.791201 0.523031 0.494827 0.212715
C18   C     C_2   0.516908 0.929508 0.392167 -0.109298
C19   C     C_2   0.508138 0.866704 0.506668 -0.144135
C20   C     C_2   0.525614 0.062797 0.394340 0.235986
C21   C     C_2   0.500854 0.132681 0.493876 -0.070558
C22   C     C_2   0.457544 0.523653 0.930013 0.341834
C23   C     C_R   0.030672 0.434347 0.261461 0.243670
C24   C     C_2   0.457446 0.473626 0.070196 0.350692
C25   C     C_R   0.608761 0.501609 0.499955 0.533231
C26   C     C_R   0.880648 0.587856 0.595728 0.449087
C27   C     C_R   0.880476 0.484946 0.377334 0.472560
C28   C     C_R   0.940550 0.495828 0.367088 -0.006761
C29   C     C_R   0.970675 0.544110 0.482155 -0.073889
C30   C     C_R   0.940337 0.593138 0.595304 0.010870
C31   C     C_3   0.674861 0.295398 0.602626 -0.295123
C32   C     C_3   0.664274 0.724588 0.400766 -0.352371
C33   C     C_3   0.787789 0.731617 0.382413 -0.318345
C34   C     C_R   0.061229 0.490794 0.372161 -0.017648
C35   C     C_3   0.195604 0.307089 0.573735 -0.246863
C36   C     C_R   0.030990 0.544651 0.484005 -0.107159
C37   C     C_R   0.060853 0.594667 0.600032 0.028900
C38   C     C_R   0.029202 0.650910 0.709675 0.259858
C39   C     C_R   0.969692 0.646839 0.705926 -0.042664
C40   C     C_R   0.121266 0.498064 0.374099 0.471344
Cu1   Cu    Cu3+1 0.500010 0.500020 0.638630 1.090210
Cu2   Cu    Cu3+1 0.499990 0.499980 0.361370 1.135335
H1    H     H_    0.519847 0.881582 0.293523 0.205833
H2    H     H_    0.693182 0.211982 0.552796 0.204926
H3    H     H_    0.679705 0.291130 0.715393 0.187568
H4    H     H_    0.617937 0.717149 0.419311 0.143776
H5    H     H_    0.678232 0.809184 0.456981 0.150920
H6    H     H_    0.670599 0.736613 0.289122 0.166751
H7    H     H_    0.777863 0.815201 0.444994 0.163721
H8    H     H_    0.834851 0.724435 0.377549 0.164008
H9    H     H_    0.772845 0.744036 0.275721 0.164908
H10   H     H_    0.630822 0.047265 0.118386 0.380194
H11   H     H_    0.343408 0.737458 0.010733 0.400129
H12   H     H_    0.509450 0.910941 0.607373 0.126956
H13   H     H_    0.314330 0.403487 0.195359 0.377035
H14   H     H_    0.127621 0.178331 0.186944 0.389681
H15   H     H_    0.105320 0.683968 0.035316 0.391335
H16   H     H_    0.149819 0.825391 0.273020 0.377954
H17   H     H_    0.395689 0.200672 0.712688 0.373263
H18   H     H_    0.149620 0.329526 0.570601 0.149255
H19   H     H_    0.201855 0.228007 0.501589 0.213098
H20   H     H_    0.204557 0.280870 0.680808 0.214254
H21   H     H_    0.802633 0.179188 0.792156 0.384527
H22   H     H_    0.475892 0.091538 0.574456 0.086326
H23   H     H_    0.530408 0.442163 0.885626 0.190291
H24   H     H_    0.530887 0.554045 0.113678 0.179340
H25   H     H_    0.945789 0.686326 0.790909 0.225351
H26   H     H_    0.331375 0.687645 0.435281 0.182875
H27   H     H_    0.888340 0.324437 0.963025 0.395638
H28   H     H_    0.628616 0.290609 0.580673 0.138703
N1    N     N_R   0.852324 0.531350 0.489645 -0.388830
N2    N     N_R   0.149188 0.538160 0.489189 -0.400662
N3    N     N_2   0.499380 0.498660 0.846910 -0.373894
N4    N     N_2   0.499370 0.498630 0.153040 -0.353981
O1    O     O_R   0.500010 0.321960 0.617040 -0.515631
O2    O     O_R   0.582130 0.500060 0.617050 -0.522893
O3    O     O_R   0.582110 0.500020 0.382900 -0.483513
O4    O     O_2   0.850957 0.636192 0.702481 -0.442118
O5    O     O_2   0.897642 0.555777 0.073271 -0.239842
O6    O     O_2   0.984261 0.467826 0.974085 -0.208306
O7    O     O_3   0.905541 0.317841 0.055286 -0.403420
O8    O     O_2   0.531112 0.172974 0.151695 -0.221878
O9    O     O_2   0.607495 0.221601 0.316334 -0.294580
O10   O     O_3   0.608657 0.008252 0.192235 -0.539736
O11   O     O_2   0.415640 0.713947 0.785260 -0.256134
O12   O     O_2   0.850274 0.423702 0.280088 -0.362399
O13   O     O_2   0.350173 0.544949 0.838537 -0.197221
O14   O     O_3   0.379576 0.696226 0.034434 -0.482006
O15   O     O_2   0.379411 0.310031 0.984897 -0.210238
O16   O     O_2   0.415689 0.284805 0.215911 -0.195107
O17   O     O_3   0.344581 0.463293 0.172068 -0.466349
O18   O     O_2   0.017569 0.227049 0.104944 -0.176038
O19   O     O_2   0.093093 0.370099 0.038746 -0.152341
O20   O     O_3   0.108893 0.235986 0.252660 -0.502297
O21   O     O_2   0.103190 0.824194 0.800231 -0.172452
O22   O     O_2   0.015279 0.801223 0.932139 -0.251844
O23   O     O_2   0.152091 0.468748 0.261464 -0.358457
O24   O     O_3   0.092616 0.633682 0.955078 -0.396772
O25   O     O_2   0.186423 0.825361 0.532698 -0.198328
O26   O     O_2   0.262280 0.852401 0.363115 -0.219978
O27   O     O_3   0.168561 0.744805 0.283865 -0.491576
O28   O     O_2   0.288835 0.157682 0.619692 -0.235337
O29   O     O_2   0.360063 0.211577 0.449280 -0.247490
O30   O     O_3   0.376894 0.281061 0.700855 -0.442840
O31   O     O_2   0.800355 0.185974 0.517471 -0.253520
O32   O     O_2   0.868427 0.325384 0.629239 -0.237783
O33   O     O_3   0.781692 0.254993 0.769738 -0.526462
O34   O     O_2   0.151321 0.611145 0.715112 -0.341137
O35   O     O_R   0.499990 0.321920 0.382900 -0.385419
O36   O     O_R   0.417890 0.499980 0.617100 -0.400857
O37   O     O_R   0.417870 0.499940 0.382950 -0.444514
O38   O     O_R   0.500010 0.678080 0.617100 -0.453800
O39   O     O_R   0.499990 0.678040 0.382960 -0.520213
S1    S     S_3+6 0.939666 0.452297 0.083074 0.134257
S2    S     S_3+6 0.568748 0.121973 0.261162 0.035476
S3    S     S_3+6 0.399691 0.621068 0.889892 0.120129
S4    S     S_3+6 0.399086 0.377493 0.112268 0.147776
S5    S     S_3+6 0.062295 0.315181 0.158008 0.141388
S6    S     S_3+6 0.060239 0.733046 0.851252 0.120551
S7    S     S_3+6 0.216072 0.767357 0.411057 0.096902
S8    S     S_3+6 0.329051 0.256789 0.575129 0.061581
S9    S     S_3+6 0.806205 0.294355 0.614714 0.054005

loop_
_geom_bond_atom_site_label_1
_geom_bond_atom_site_label_2
_ccdc_geom_bond_type
C1    C21   S    
O20   S5    S    
Cu1   Cu2   S    
O22   S6    D    
C9    N2    S    
C16   O39   A    
C23   S5    S    
O24   S6    S    
H14   O20   S    
C29   C36   A    
C24   S4    S    
C26   O4    S    
C12   C28   A    
C25   O3    A    
H17   O30   S    
C36   C37   A    
C37   C38   A    
O8    S2    D    
C38   C39   A    
C10   C17   A    
C33   H7    S    
H24   N4    S    
H23   N3    S    
C18   C19   D    
O6    S1    D    
H10   O10   S    
O18   S5    D    
C21   H22   S    
H13   O17   S    
C1    O35   A    
O25   S7    D    
C31   H28   S    
C8    C9    A    
Cu1   O38   S    
O7    S1    S    
C30   C39   A    
O17   S4    S    
O26   S7    D    
H11   O14   S    
O28   S8    D    
C34   C36   A    
C22   S3    S    
C11   C31   S    
C13   C14   A    
C26   N1    A    
C32   H6    S    
C13   C25   S    
C32   H4    S    
C7    S8    S    
C5    H26   S    
C2    N2    A    
C12   S1    S    
Cu2   N4    S    
C31   H2    S    
C1    O1    A    
O16   S4    D    
O9    S2    D    
C7    C8    A    
C4    C6    S    
C10   C11   A    
C40   O23   S    
O30   S8    S    
O21   S6    D    
C33   H8    S    
C35   H18   S    
C8    C35   S    
O14   S3    S    
C27   O12   S    
Cu2   O37   S    
C29   C30   A    
C3    C9    A    
Cu1   O1    S    
Cu2   O39   S    
C12   C23   A    
C23   C34   A    
O32   S9    D    
C35   H19   S    
H16   O27   S    
O13   S3    D    
C38   S6    S    
C19   H12   S    
C4    O37   A    
O15   S4    D    
C17   N1    S    
O10   S2    S    
Cu1   O36   S    
C32   H5    S    
C22   C24   S    
O19   S5    D    
H21   O33   S    
O29   S8    D    
C3    C5    A    
C27   N1    A    
C16   O38   A    
C15   C17   A    
C4    O36   A    
C28   C29   A    
C40   N2    A    
O27   S7    S    
C39   H25   S    
Cu2   O35   S    
O11   S3    D    
C14   C32   S    
C10   S9    S    
C20   S2    S    
C26   C30   A    
C6    C7    A    
C33   H9    S    
C22   N3    D    
C25   O2    A    
C18   H1    S    
Cu1   O2    S    
C11   C13   A    
C2    C37   A    
C24   N4    D    
C5    C6    A    
C16   C19   S    
H15   O24   S    
C2    O34   S    
O31   S9    D    
C35   H20   S    
C18   C20   S    
H27   O7    S    
C3    S7    S    
Cu1   N3    S    
C20   C21   D    
Cu2   O3    S    
C31   H3    S    
O5    S1    D    
C27   C28   A    
C14   C15   A    
C34   C40   A    
O33   S9    S    
C15   C33   S    
