data_mof_unit_19163.cif
_audit_creation_date              2012-12-10T17:36:47-0500
_audit_creation_method            fapswitch 2.2
_symmetry_space_group_name_H-M    P1
_symmetry_Int_Tables_number       1
_space_group_crystal_system       triclinic
_cell_length_a                    10.642001
_cell_length_b                    12.428102
_cell_length_c                    13.317721
_cell_angle_alpha                 117.388435
_cell_angle_beta                  75.021292
_cell_angle_gamma                 101.529782
_cell_volume                      1504.07287798

loop_
_atom_site_label
_atom_site_type_symbol
_atom_type_description
_atom_site_fract_x
_atom_site_fract_y
_atom_site_fract_z
_atom_type_partial_charge
C1    C     C_R   0.496319 0.856223 0.290143 0.848086
C2    C     C_3   0.012426 0.023650 0.612824 -0.236497
C3    C     C_3   0.932794 0.918344 0.530349 0.418818
C4    C     C_3   0.876609 0.006437 0.506808 -0.053942
C5    C     C_R   0.442899 0.272597 0.035294 -0.174780
C6    C     C_R   0.471049 0.230132 0.835504 -0.036176
C7    C     C_R   0.501077 0.821444 0.090854 -0.312825
C8    C     C_R   0.507834 0.744263 0.973668 0.463786
C9    C     C_R   0.491909 0.618813 0.937499 -0.155975
C10   C     C_R   0.458358 0.567334 0.017483 -0.077291
C11   C     C_R   0.431724 0.646583 0.137058 -0.018213
C12   C     C_R   0.739863 0.002280 0.502758 0.862858
C13   C     C_R   0.454319 0.439891 0.982899 0.087678
C14   C     C_R   0.436323 0.396226 0.067277 0.114716
C15   C     C_R   0.400681 0.473926 0.182679 -0.400461
C16   C     C_R   0.374751 0.593737 0.215633 0.481001
C17   C     C_R   0.469214 0.354288 0.867311 -0.214703
C18   C     C_R   0.460243 0.189793 0.919766 -0.191256
C19   C     C_R   0.470294 0.774227 0.172699 -0.156635
C20   C     C_R   0.735509 0.356749 0.355021 -0.286409
C21   C     C_R   0.319577 0.759752 0.645175 0.093253
C22   C     C_R   0.280474 0.665200 0.678082 -0.239044
C23   C     C_R   0.483265 0.145405 0.713347 0.788675
C24   C     C_R   0.349649 0.562865 0.624597 -0.156815
C25   C     C_R   0.461334 0.553862 0.537854 -0.072071
C26   C     C_R   0.500607 0.653460 0.505704 0.216470
C27   C     C_R   0.535877 0.449605 0.482649 -0.035515
C28   C     C_R   0.657719 0.454164 0.410802 0.120888
C29   C     C_R   0.700737 0.553510 0.389281 -0.369185
C30   C     C_R   0.617982 0.641486 0.417491 0.446230
C31   C     C_R   0.497267 0.340305 0.495499 0.034665
C32   C     C_R   0.691132 0.252086 0.369088 0.092180
C33   C     C_R   0.259540 0.002750 0.503826 0.801619
C34   C     C_3   0.989126 0.992102 0.403064 -0.284797
C35   C     C_3   0.044410 0.900356 0.425680 -0.257645
C36   C     C_3   0.123019 0.007414 0.507531 -0.080887
C37   C     C_3   0.070793 0.099663 0.484311 -0.171995
C38   C     C_3   0.957626 0.111666 0.586564 0.385539
Cu1   Cu    Cu3+1 0.529830 0.098270 0.475420 0.946302
Cu2   Cu    Cu3+1 0.470170 0.901730 0.524580 1.009670
H1    H     H_    0.086109 0.815883 0.357275 0.164299
H2    H     H_    0.474710 0.381505 0.800401 0.147389
H3    H     H_    0.524829 0.918407 0.117408 0.156045
H4    H     H_    0.509357 0.564809 0.845630 0.154593
H5    H     H_    0.750269 0.176144 0.327519 0.121855
H6    H     H_    0.797158 0.555703 0.337586 0.153848
H7    H     H_    0.828972 0.360780 0.299216 0.130829
H8    H     H_    0.406875 0.327825 0.550164 0.107839
H9    H     H_    0.264691 0.838587 0.687150 0.118315
H10   H     H_    0.979075 0.982023 0.318232 0.151811
H11   H     H_    0.315705 0.493139 0.654796 0.127937
H12   H     H_    0.195690 0.671158 0.745469 0.145816
H13   H     H_    0.129582 0.176016 0.467114 0.146113
H14   H     H_    0.023504 0.036380 0.698346 0.141717
H15   H     H_    0.462674 0.094400 0.896646 0.159480
H16   H     H_    0.380939 0.436919 0.245224 0.133117
H17   H     H_    0.430173 0.239337 0.099942 0.134470
N1    N     N_R   0.575030 0.246270 0.438190 -0.186072
N2    N     N_R   0.425760 0.754330 0.561190 -0.183970
O1    O     O_R   0.537510 0.972500 0.318130 -0.601287
O2    O     O_R   0.487140 0.806530 0.359650 -0.496995
O3    O     O_R   0.708330 0.082950 0.479220 -0.581120
O4    O     O_R   0.657960 0.916980 0.520740 -0.509601
O5    O     O_R   0.512860 0.193470 0.640350 -0.581904
O6    O     O_R   0.462490 0.027500 0.681870 -0.596028
O7    O     O_R   0.342040 0.083020 0.479260 -0.602822
O8    O     O_R   0.291670 0.917050 0.520780 -0.584656
O9    O     O_3   0.538058 0.788370 0.891362 -0.719681
H18   H     H_    0.546163 0.878621 0.930329 0.317083
O10   O     O_3   0.288596 0.657983 0.317584 -0.587820
C39   C     C_3   0.206003 0.581666 0.366051 0.041200
H19   H     H_    0.260897 0.560321 0.414169 0.156059
H20   H     H_    0.167760 0.495802 0.298588 0.132611
C40   C     C_3   0.086580 0.644428 0.448754 -0.321397
H21   H     H_    0.116769 0.736195 0.512651 0.259071
H22   H     H_    0.024855 0.652687 0.397764 0.195109
C41   C     C_3   0.005465 0.570267 0.512264 -0.878837
H23   H     H_    0.974487 0.477768 0.449880 0.249143
H24   H     H_    0.916842 0.616114 0.568569 0.293569
H25   H     H_    0.062896 0.561921 0.566574 0.253998
O11   O     O_3   0.660227 0.717595 0.362887 -0.571056
C42   C     C_3   0.709597 0.655448 0.241837 0.050894
H26   H     H_    0.659818 0.682268 0.195304 0.157055
H27   H     H_    0.689988 0.554354 0.204713 0.140676
C43   C     C_3   0.854659 0.694998 0.212616 -0.388706
H28   H     H_    0.865619 0.792859 0.232204 0.215811
H29   H     H_    0.911091 0.682783 0.265155 0.203404
C44   C     C_3   0.911192 0.622770 0.085400 -0.885871
H30   H     H_    0.903983 0.524420 0.063954 0.257939
H31   H     H_    0.015764 0.655269 0.066670 0.256807
H32   H     H_    0.857778 0.635285 0.030581 0.261387
O12   O     O_3   0.908482 0.221399 0.669457 -0.723393
H33   H     H_    0.982787 0.271720 0.706735 0.313875
O13   O     O_3   0.859240 0.827088 0.559499 -0.710410
H34   H     H_    0.842730 0.760109 0.485641 0.331146

loop_
_geom_bond_atom_site_label_1
_geom_bond_atom_site_label_2
_ccdc_geom_bond_type
C34   C37   S    
C32   H5    S    
C35   C36   S    
C32   N1    A    
C21   H9    S    
O11   C42   S    
C7    C8    A    
C41   H23   S    
Cu1   O5    S    
C11   C19   A    
C29   C30   A    
Cu2   O4    S    
C40   H22   S    
C31   N1    A    
C36   C37   S    
C21   N2    A    
C41   H25   S    
Cu1   O1    S    
C15   C16   A    
C38   O12   S    
C33   C36   S    
C34   C35   S    
C6    C17   A    
C17   H2    S    
C8    C9    A    
C40   C41   S    
O10   C39   S    
C7    H3    S    
C4    C12   S    
C9    C10   A    
C37   H13   S    
C24   H11   S    
C43   H29   S    
Cu2   N2    S    
C21   C22   A    
C33   O7    A    
C41   H24   S    
C6    C18   A    
C4    C34   S    
C34   H10   S    
C1    C19   S    
C40   H21   S    
C27   C31   A    
C16   O10   S    
C24   C25   A    
C2    H14   S    
C1    O1    A    
Cu1   Cu2   S    
C39   H20   S    
C12   O4    A    
O9    H18   S    
C5    C18   A    
C20   C28   A    
C25   C26   A    
C43   H28   S    
Cu1   N1    S    
Cu2   O8    S    
Cu2   O2    S    
C37   C38   S    
C12   O3    A    
C11   C16   A    
C2    C38   S    
C44   H32   S    
C3    C35   S    
C5    C14   A    
C18   H15   S    
C23   O5    A    
C4    C38   S    
C8    O9    S    
C42   H27   S    
C31   H8    S    
Cu1   O7    S    
C22   C24   A    
C3    C4    S    
C33   O8    A    
C22   H12   S    
C20   C32   A    
C43   C44   S    
C2    C36   S    
Cu1   O3    S    
C28   C29   A    
C9    H4    S    
C44   H31   S    
C10   C13   A    
C1    O2    A    
C39   C40   S    
C26   C30   A    
C5    H17   S    
C25   C27   A    
C42   C43   S    
C7    C19   A    
C13   C17   A    
C29   H6    S    
Cu2   O6    S    
C15   H16   S    
C23   O6    A    
C30   O11   S    
C2    C3    S    
C39   H19   S    
C6    C23   S    
O12   H33   S    
C3    O13   S    
O13   H34   S    
C35   H1    S    
C20   H7    S    
C10   C11   A    
C44   H30   S    
C42   H26   S    
C27   C28   A    
C14   C15   A    
C26   N2    A    
C13   C14   A    
