data_mof_unit_26495.cif
_audit_creation_date              2012-12-11T15:45:42-0500
_audit_creation_method            fapswitch 2.2
_symmetry_space_group_name_H-M    P1
_symmetry_Int_Tables_number       1
_space_group_crystal_system       triclinic
_cell_length_a                    8.244998
_cell_length_b                    19.004126
_cell_length_c                    22.887355
_cell_angle_alpha                 95.212247
_cell_angle_beta                  89.616682
_cell_angle_gamma                 94.334784
_cell_volume                      3561.15121813

loop_
_atom_site_label
_atom_site_type_symbol
_atom_type_description
_atom_site_fract_x
_atom_site_fract_y
_atom_site_fract_z
_atom_type_partial_charge
Ba1   Ba    Ba6+2 0.850680 0.532880 0.472010 1.648013
Ba2   Ba    Ba6+2 0.339140 0.467180 0.527990 1.673009
C1    C     C_3   0.646187 0.793470 0.319416 -0.358027
C2    C     C_R   0.098299 0.558242 0.938429 -0.037255
C3    C     C_R   0.052182 0.553944 0.878395 0.628197
C4    C     C_3   0.101224 0.683009 0.311132 0.317262
C5    C     C_R   0.961926 0.431240 0.881478 0.572176
C6    C     C_R   0.006583 0.433992 0.941246 -0.013978
C7    C     C_R   0.074907 0.497831 0.969900 -0.053547
C8    C     C_R   0.166721 0.621707 0.967946 -0.047163
C9    C     C_R   0.210646 0.625041 0.027223 -0.068211
C10   C     C_R   0.187846 0.565015 0.059158 -0.021854
C11   C     C_R   0.119815 0.501189 0.030303 -0.050073
C12   C     C_3   0.627792 0.719643 0.340296 0.350803
C13   C     C_R   0.984611 0.373845 0.973004 -0.070992
C14   C     C_R   0.029493 0.377033 0.032022 -0.074316
C15   C     C_R   0.097261 0.440559 0.061509 -0.025809
C16   C     C_3   0.076351 0.703079 0.249234 -0.309700
C17   C     C_R   0.143640 0.444480 0.121314 0.592058
C18   C     C_R   0.231248 0.567597 0.119219 0.578304
C19   C     C_2   0.793590 0.453473 0.769412 -0.057046
C20   C     C_3   0.768433 0.430337 0.705120 -0.059407
C21   C     C_1   0.005196 0.510765 0.685154 0.016234
C22   C     C_2   0.051381 0.514398 0.741447 -0.103262
C23   C     C_3   0.502256 0.364512 0.351261 0.294428
C24   C     C_2   0.938247 0.486407 0.787810 0.188956
C25   C     C_R   0.406704 0.541934 0.231833 -0.095965
C26   C     C_R   0.448747 0.546781 0.291441 -0.017422
C27   C     C_R   0.190384 0.486770 0.314620 0.028301
C28   C     C_3   0.198630 0.683449 0.596562 0.337370
C29   C     C_R   0.145160 0.482952 0.254864 -0.098990
C30   C     C_R   0.252428 0.511376 0.212497 0.199482
C31   C     C_2   0.871797 0.473464 0.665046 -0.300517
C32   C     C_R   0.395513 0.700977 0.473531 -0.297081
C33   C     C_R   0.537375 0.723824 0.504443 0.061253
C34   C     C_3   0.493898 0.345467 0.285318 -0.361611
C35   C     C_R   0.589086 0.795974 0.510891 -0.116954
C36   C     C_R   0.497139 0.846053 0.487085 -0.018005
C37   C     C_R   0.349974 0.822233 0.457821 -0.136626
C38   C     C_R   0.298384 0.749842 0.452250 0.016833
C39   C     C_R   0.536730 0.965922 0.448589 -0.075774
C40   C     C_3   0.199375 0.763322 0.610085 -0.346670
C41   C     C_R   0.589088 0.037944 0.455464 -0.075316
C42   C     C_R   0.657019 0.069121 0.508826 0.058687
C43   C     C_R   0.673544 0.026032 0.554849 -0.076143
C44   C     C_R   0.621583 0.953819 0.547892 -0.073522
C45   C     C_3   0.088535 0.316258 0.690100 0.334775
C46   C     C_R   0.552052 0.922900 0.494691 0.061029
C47   C     C_R   0.851344 0.173067 0.546136 -0.133881
C48   C     C_R   0.897571 0.246136 0.550727 0.015362
C49   C     C_R   0.658023 0.266937 0.496546 0.040244
C50   C     C_R   0.610611 0.194561 0.491601 -0.118229
C51   C     C_R   0.706031 0.146564 0.516585 -0.011107
C52   C     C_3   0.995955 0.317379 0.405791 0.311689
C53   C     C_R   0.796811 0.292643 0.528160 -0.285347
C54   C     C_3   0.980815 0.237425 0.391290 -0.383052
C55   C     C_3   0.689887 0.620128 0.646827 0.312547
C56   C     C_3   0.111559 0.296268 0.752174 -0.311213
C57   C     C_3   0.731007 0.641907 0.711291 0.274414
C58   C     C_3   0.546225 0.278468 0.664282 0.356306
C59   C     C_3   0.509155 0.206648 0.687729 -0.357862
C60   C     C_R   0.339575 0.520655 0.332275 -0.302310
H1    H     H_    0.693946 0.721043 0.382600 0.079675
H2    H     H_    0.798129 0.598376 0.625309 -0.080720
H3    H     H_    0.588149 0.578446 0.643964 0.070074
H4    H     H_    0.776874 0.809899 0.313253 0.142258
H5    H     H_    0.841193 0.679473 0.714307 0.037374
H6    H     H_    0.756967 0.594507 0.733337 -0.033321
H7    H     H_    0.496144 0.705575 0.347119 -0.056306
H8    H     H_    0.594053 0.831756 0.352554 0.067740
H9    H     H_    0.379273 0.376846 0.367036 0.020408
H10   H     H_    0.588720 0.412000 0.359962 0.059779
H11   H     H_    0.406392 0.298663 0.275142 0.138946
H12   H     H_    0.275096 0.780642 0.649446 0.182955
H13   H     H_    0.453001 0.390560 0.263161 0.071115
H14   H     H_    0.615936 0.333106 0.268265 0.131014
H15   H     H_    0.580840 0.794042 0.277199 0.126286
H16   H     H_    0.073999 0.654851 0.218090 0.121506
H17   H     H_    0.164284 0.366226 0.684886 0.088143
H18   H     H_    0.958370 0.324577 0.684021 -0.051601
H19   H     H_    0.229262 0.272636 0.756570 0.148029
H20   H     H_    0.112336 0.344512 0.783150 0.121920
H21   H     H_    0.011549 0.257487 0.763689 0.120919
H22   H     H_    0.680811 0.288649 0.663526 -0.066300
H23   H     H_    0.249940 0.790813 0.572656 0.048824
H24   H     H_    0.498487 0.275707 0.618765 0.076702
H25   H     H_    0.571718 0.165689 0.660275 0.068882
H26   H     H_    0.376457 0.191804 0.686395 0.151489
H27   H     H_    0.017900 0.635771 0.317522 0.101810
H28   H     H_    0.552969 0.208293 0.733651 0.123867
H29   H     H_    0.010405 0.329384 0.054568 0.126117
H30   H     H_    0.932607 0.323789 0.952254 0.125633
H31   H     H_    0.262685 0.675059 0.048024 0.128903
H32   H     H_    0.494471 0.561446 0.200643 0.117181
H33   H     H_    0.186583 0.669222 0.945271 0.145346
H34   H     H_    0.073259 0.778535 0.618404 0.114345
H35   H     H_    0.172858 0.535925 0.754010 0.172498
H36   H     H_    0.704977 0.434352 0.800666 0.121230
H37   H     H_    0.027642 0.457649 0.241495 0.127356
H38   H     H_    0.374430 0.523684 0.377977 0.082262
H39   H     H_    0.229116 0.669601 0.315705 -0.042681
H40   H     H_    0.852929 0.460993 0.618264 0.087641
H41   H     H_    0.501075 0.175862 0.467355 0.076828
H42   H     H_    0.577613 0.069148 0.418620 0.065086
H43   H     H_    0.486138 0.943673 0.406812 0.065156
H44   H     H_    0.700088 0.812852 0.534881 0.083945
H45   H     H_    0.876078 0.335575 0.418812 0.000903
H46   H     H_    0.723382 0.048498 0.596690 0.067565
H47   H     H_    0.633031 0.922452 0.584638 0.070425
H48   H     H_    0.931223 0.137118 0.563157 0.078470
H49   H     H_    0.273080 0.859775 0.441415 0.080292
H50   H     H_    0.833581 0.348730 0.530947 0.061033
H51   H     H_    0.958625 0.727153 0.245817 0.148266
H52   H     H_    0.354712 0.645286 0.469643 0.069712
H53   H     H_    0.176511 0.741595 0.237333 0.125020
H54   H     H_    0.324574 0.669139 0.588474 0.009595
H55   H     H_    0.122614 0.667746 0.556961 0.041948
H56   H     H_    0.083088 0.330430 0.442545 0.071375
H57   H     H_    0.643518 0.787942 0.726795 0.328571
H58   H     H_    0.887832 0.222762 0.356541 0.132112
H59   H     H_    0.944372 0.210332 0.430629 0.063120
H60   H     H_    0.099623 0.219039 0.375666 0.126896
N1    N     N_R   0.984958 0.490766 0.850096 -0.427513
N2    N     N_R   0.207435 0.507891 0.150271 -0.423879
O1    O     O_2   0.896730 0.461690 0.361000 -0.459344
O2    O     O_2   0.233837 0.250203 0.541642 -0.483747
O3    O     O_3   0.136729 0.261595 0.649976 -0.601537
O4    O     O_3   0.137170 0.462400 0.432040 -0.492721
O5    O     O_3   0.560670 0.583970 0.528500 -0.490587
O6    O     O_2   0.373560 0.329680 0.473470 -0.457786
O7    O     O_3   0.554780 0.306860 0.378285 -0.640698
O8    O     O_2   0.439799 0.468116 0.710118 -0.472650
O9    O     O_3   0.471789 0.331091 0.700150 -0.596740
O10   O     O_2   0.069728 0.606844 0.851729 -0.542969
O11   O     O_2   0.903207 0.375225 0.857341 -0.617626
O12   O     O_3   0.647310 0.679429 0.620011 -0.616801
O13   O     O_2   0.129630 0.390915 0.147253 -0.595547
O14   O     O_2   0.289636 0.623398 0.143827 -0.611313
O15   O     O_3   0.657500 0.588540 0.395070 -0.488222
O16   O     O_2   0.785809 0.542304 0.292205 -0.499841
O17   O     O_3   0.050007 0.348831 0.355681 -0.626655
O18   O     O_3   0.694052 0.671484 0.298124 -0.599450
O19   O     O_2   0.816140 0.670340 0.526560 -0.460569
O20   O     O_3   0.069580 0.624410 0.423530 -0.495630
O21   O     O_2   0.961741 0.750460 0.459309 -0.485300
O22   O     O_2   0.414995 0.634479 0.742730 -0.246594
O23   O     O_3   0.065665 0.739973 0.351389 -0.602042
O24   O     O_2   0.609744 0.695672 0.813754 -0.251717
O25   O     O_3   0.536973 0.760116 0.723107 -0.485428
O26   O     O_2   0.292960 0.538340 0.639040 -0.439732
O27   O     O_3   0.052540 0.537650 0.567960 -0.499944
O28   O     O_3   0.532200 0.411510 0.604930 -0.480381
O29   O     O_3   0.136358 0.651111 0.645215 -0.596147
O30   O     O_3   0.629030 0.416090 0.471500 -0.477619
O31   O     O_3   0.120120 0.375640 0.576470 -0.496140
P1    P     P_3+3 0.067040 0.441110 0.370020 0.995118
P2    P     P_3+3 0.640420 0.660110 0.543790 1.000120
P3    P     P_3+3 0.098197 0.716695 0.422349 0.942749
P4    P     P_3+3 0.122660 0.558950 0.629980 1.036211
P5    P     P_3+3 0.097294 0.283145 0.579076 0.943295
P6    P     P_3+3 0.647403 0.585786 0.318507 0.947419
P7    P     P_3+3 0.555986 0.327876 0.454339 0.949373
P8    P     P_3+3 0.552287 0.413544 0.680894 0.953922
S1    S     S_3+6 0.567915 0.682605 0.749694 -0.012450

loop_
_geom_bond_atom_site_label_1
_geom_bond_atom_site_label_2
_ccdc_geom_bond_type
H57   O25   S    
C19   C24   D    
C12   O18   S    
C50   H41   S    
Ba2   O26   S    
Ba2   O31   S    
C4    O23   S    
C53   H50   S    
C39   C41   A    
C30   N2    S    
Ba1   O4    S    
C45   H17   S    
O21   P3    D    
O18   P6    S    
O5    P2    S    
Ba2   O4    S    
C5    C6    A    
C28   H54   S    
C43   C44   A    
C50   C51   A    
C39   H43   S    
C52   H45   S    
C32   C38   A    
C38   P3    S    
C34   H13   S    
Ba1   O1    S    
C32   C33   A    
Ba1   O5    S    
C56   H20   S    
C36   C37   A    
C55   C57   S    
C13   C14   A    
Ba2   O5    S    
C19   H36   S    
C49   P7    S    
Ba1   Ba2   S    
C4    H39   S    
C18   O14   D    
C7    C11   A    
C41   H42   S    
C57   S1    S    
C59   H25   S    
C57   H5    S    
C13   H30   S    
C42   C51   S    
C28   O29   S    
C14   C15   A    
C21   C31   D    
C21   P4    S    
C21   C22   D    
C55   O12   S    
C23   H9    S    
C29   H37   S    
C34   H14   S    
C36   C46   S    
Ba1   O15   S    
O1    P1    D    
C16   H16   S    
O6    P7    D    
C37   H49   S    
C25   C30   A    
C31   H40   S    
Ba2   O30   S    
C19   C20   S    
C54   H58   S    
C45   H18   S    
O9    P8    S    
C16   H51   S    
C26   P6    S    
O19   P2    D    
C44   C46   A    
Ba2   O28   S    
C3    O10   D    
C4    C16   S    
C52   C54   S    
C17   N2    Am   
C40   H12   S    
O26   P4    D    
C22   H35   S    
O24   S1    D    
O15   P6    S    
C1    H8    S    
C8    C9    A    
C56   H19   S    
C55   H3    S    
C37   C38   A    
O25   S1    S    
C58   H24   S    
Ba2   P4    S    
O7    P7    S    
C48   P5    S    
O16   P6    D    
O22   S1    D    
C49   C50   A    
C58   C59   S    
O27   P4    S    
O29   P4    S    
Ba1   P1    S    
C41   C42   A    
C33   P2    S    
C5    O11   D    
C35   C36   A    
Ba1   O19   S    
C59   H26   S    
C57   H6    S    
C29   C30   A    
C59   H28   S    
C17   O13   D    
C10   C18   A    
C6    C7    A    
C40   H23   S    
C1    C12   S    
C27   P1    S    
C60   H38   S    
O12   P2    S    
C6    C13   A    
C52   H56   S    
C12   H7    S    
C40   H34   S    
C1    H4    S    
C24   N1    S    
O20   P3    S    
C1    H15   S    
C42   C43   A    
C55   H2    S    
Ba2   O27   S    
C20   C31   S    
C27   C60   A    
C33   C35   A    
O31   P5    S    
O30   P7    S    
C22   C24   S    
C5    N1    Am   
C2    C3    A    
C16   H53   S    
C9    C10   A    
C43   H46   S    
O17   P1    S    
C45   O3    S    
C28   H55   S    
O2    P5    D    
C32   H52   S    
C4    H27   S    
C3    N1    Am   
C48   C53   A    
C11   C15   A    
C54   H59   S    
Ba1   P2    S    
O8    P8    D    
C35   H44   S    
C27   C29   A    
Ba1   O20   S    
C56   H21   S    
C45   C56   S    
C20   P8    S    
C58   H22   S    
C9    H31   S    
C23   H10   S    
C8    H33   S    
C23   O7    S    
C47   C51   A    
C12   H1    S    
O3    P5    S    
Ba2   O6    S    
C39   C46   A    
Ba1   O27   S    
C49   C53   A    
Ba1   O30   S    
C18   N2    Am   
O28   P8    S    
C34   H11   S    
O4    P1    S    
C23   C34   S    
C15   C17   A    
C52   O17   S    
C10   C11   A    
C14   H29   S    
C47   C48   A    
C44   H47   S    
C25   C26   A    
C28   C40   S    
C25   H32   S    
C2    C7    A    
O23   P3    S    
C2    C8    A    
C58   O9    S    
C54   H60   S    
C47   H48   S    
C26   C60   A    
