data_mof_unit_24934.cif
_audit_creation_date              2012-12-10T18:33:33-0500
_audit_creation_method            fapswitch 2.2
_symmetry_space_group_name_H-M    P1
_symmetry_Int_Tables_number       1
_space_group_crystal_system       triclinic
_cell_length_a                    8.711809
_cell_length_b                    15.095885
_cell_length_c                    13.837283
_cell_angle_alpha                 90.231058
_cell_angle_beta                  98.062269
_cell_angle_gamma                 90.008025
_cell_volume                      1801.77387417

loop_
_atom_site_label
_atom_site_type_symbol
_atom_type_description
_atom_site_fract_x
_atom_site_fract_y
_atom_site_fract_z
_atom_type_partial_charge
C1    C     C_R   0.500495 0.330054 0.499812 0.791396
C2    C     C_R   0.500935 0.670352 0.500363 0.796083
C3    C     C_R   0.580013 0.568819 0.115429 -0.001847
C4    C     C_R   0.581139 0.431727 0.898833 -0.003622
C5    C     C_R   0.577840 0.565096 0.217542 0.036083
C6    C     C_R   0.578697 0.435318 0.796303 0.042801
C7    C     C_R   0.421477 0.436686 0.201141 0.068869
C8    C     C_R   0.420851 0.563009 0.784907 0.063053
C9    C     C_R   0.421597 0.436269 0.099554 -0.323558
C10   C     C_R   0.420869 0.563418 0.886507 -0.322050
C11   C     C_R   0.502672 0.501497 0.054779 0.106579
C12   C     C_R   0.502724 0.498600 0.945699 0.106639
C13   C     C_R   0.203562 0.499988 0.475011 0.888012
C14   C     C_R   0.796433 0.499999 0.524983 0.887102
C15   C     C_2   0.037659 0.499994 0.461192 -0.375540
C16   C     C_2   0.962325 0.499997 0.538778 -0.375185
C17   C     C_R   0.406939 0.094587 0.548204 -0.200035
C18   C     C_R   0.468494 0.906652 0.417473 -0.209258
C19   C     C_R   0.403400 0.186397 0.549186 -0.199619
C20   C     C_R   0.464830 0.814819 0.415627 -0.199451
C21   C     C_R   0.504768 0.234007 0.499468 -0.040054
C22   C     C_R   0.504969 0.767190 0.501882 -0.049936
C23   C     C_R   0.610632 0.189907 0.449146 -0.226486
C24   C     C_R   0.548556 0.812385 0.590222 -0.226034
C25   C     C_R   0.620177 0.097295 0.450402 0.104566
C26   C     C_R   0.554881 0.905050 0.593380 0.102689
C27   C     C_R   0.516971 0.049403 0.501742 0.080220
C28   C     C_R   0.516429 0.952366 0.504844 0.082558
Cu1   Cu    Cu3+1 0.500000 0.499990 0.596430 0.930645
Cu2   Cu    Cu3+1 0.500000 0.500010 0.403570 0.930639
H1    H     H_    0.977346 0.500009 0.386853 0.174602
H2    H     H_    0.022640 0.500005 0.613110 0.175221
H3    H     H_    0.319427 0.220300 0.586882 0.140623
H4    H     H_    0.428527 0.781139 0.346944 0.150637
H5    H     H_    0.638717 0.614935 0.264601 0.125519
H6    H     H_    0.640234 0.385791 0.760064 0.127073
H7    H     H_    0.357464 0.385246 0.055818 0.138665
H8    H     H_    0.356096 0.614131 0.918842 0.135451
N1    N     N_R   0.500000 0.500020 0.258690 -0.179647
N2    N     N_R   0.500000 0.499980 0.741310 -0.180206
O1    O     O_R   0.500010 0.371450 0.581430 -0.591603
O2    O     O_R   0.499990 0.628550 0.418570 -0.594895
O3    O     O_R   0.500010 0.371460 0.418560 -0.590124
O4    O     O_R   0.499990 0.628540 0.581440 -0.593789
O5    O     O_R   0.274840 0.499990 0.562640 -0.578057
O6    O     O_R   0.725160 0.500010 0.437360 -0.578941
O7    O     O_R   0.274840 0.500000 0.399770 -0.587876
O8    O     O_R   0.725160 0.500000 0.600230 -0.588749
H9    H     H_    0.323558 0.058452 0.584034 0.133070
H10   H     H_    0.433053 0.942471 0.350341 0.134443
H11   H     H_    0.688471 0.228211 0.410984 0.136495
H12   H     H_    0.579034 0.775160 0.656964 0.146778
C29   C     C_3   0.740482 0.053075 0.396625 -0.416363
C30   C     C_3   0.875773 0.014802 0.466962 -0.353491
C31   C     C_3   0.005293 0.981490 0.412435 -0.841332
H13   H     H_    0.960795 0.929174 0.359080 0.253694
H14   H     H_    0.053404 0.036896 0.373395 0.252995
H15   H     H_    0.100154 0.953094 0.465244 0.244368
H16   H     H_    0.923957 0.066670 0.519967 0.213947
H17   H     H_    0.834590 0.958403 0.507561 0.226617
H18   H     H_    0.686342 0.000492 0.347050 0.194742
H19   H     H_    0.788061 0.102118 0.348836 0.194801
C32   C     C_3   0.598720 0.949981 0.692001 -0.417853
C33   C     C_3   0.758399 0.994434 0.701749 -0.345220
C34   C     C_3   0.804564 0.032375 0.804103 -0.859274
H20   H     H_    0.718682 0.082637 0.820631 0.253797
H21   H     H_    0.811631 0.978770 0.859315 0.251385
H22   H     H_    0.919908 0.064666 0.808681 0.237673
H23   H     H_    0.846992 0.945200 0.686668 0.213698
H24   H     H_    0.756781 0.049571 0.649002 0.227334
H25   H     H_    0.509247 0.999012 0.705152 0.195345
H26   H     H_    0.600764 0.900445 0.751488 0.191366
C35   C     C_3   0.661777 0.646135 0.074797 -0.430069
C36   C     C_3   0.814899 0.618574 0.040717 -0.335848
C37   C     C_3   0.901949 0.698731 0.009040 -0.853131
H27   H     H_    0.830297 0.733477 0.947977 0.252535
H28   H     H_    0.931093 0.745448 0.071135 0.250289
H29   H     H_    0.011350 0.676549 0.983913 0.238409
H30   H     H_    0.889649 0.584613 0.101109 0.214231
H31   H     H_    0.792037 0.572646 0.977652 0.227190
H32   H     H_    0.584352 0.677318 0.013935 0.202549
H33   H     H_    0.687034 0.698408 0.131718 0.188373
C38   C     C_3   0.664974 0.355232 0.954148 -0.427410
C39   C     C_3   0.818215 0.384226 0.014239 -0.337152
C40   C     C_3   0.908207 0.304942 0.060912 -0.855803
H34   H     H_    0.838661 0.269622 0.110154 0.254226
H35   H     H_    0.937263 0.258418 0.003775 0.251112
H36   H     H_    0.017783 0.328189 0.104407 0.236251
H37   H     H_    0.891106 0.418894 0.966394 0.213811
H38   H     H_    0.795134 0.429938 0.073404 0.226976
H39   H     H_    0.588964 0.323809 0.002116 0.203691
H40   H     H_    0.690424 0.302839 0.901888 0.189737
H41   H     H_    0.357951 0.386034 0.233920 0.126116
H42   H     H_    0.356877 0.613401 0.740831 0.125738

loop_
_geom_bond_atom_site_label_1
_geom_bond_atom_site_label_2
_ccdc_geom_bond_type
C24   H12   S    
C31   H13   S    
C1    C21   S    
C35   C36   S    
C26   C32   S    
C14   O6    A    
C30   H17   S    
C40   H34   S    
C38   H40   S    
C22   C24   A    
C19   C21   A    
C25   C29   S    
C15   C16   D    
C29   H18   S    
C1    O3    A    
C2    O4    A    
C34   H21   S    
C2    C22   S    
C33   H24   S    
C4    C12   A    
C20   H4    S    
C36   H31   S    
C39   H38   S    
C35   H32   S    
C30   H16   S    
C40   H35   S    
C21   C23   A    
C7    H41   S    
C36   C37   S    
Cu1   O8    S    
C17   C27   A    
Cu2   O7    S    
C6    N2    A    
C18   C28   A    
C39   C40   S    
C4    C6    A    
C19   H3    S    
C17   H9    S    
C13   O7    A    
C14   O8    A    
C29   C30   S    
Cu1   O5    S    
C37   H27   S    
Cu1   Cu2   S    
C9    C11   A    
C29   H19   S    
C23   H11   S    
C38   C39   S    
C34   H22   S    
C9    H7    S    
C8    H42   S    
C33   H23   S    
C37   H28   S    
C10   C12   A    
C1    O1    A    
C32   H25   S    
C36   H30   S    
C13   C15   S    
Cu1   O4    S    
C14   C16   S    
Cu2   O3    S    
C25   C27   A    
C39   H37   S    
C20   C22   A    
C35   H33   S    
C18   H10   S    
C40   H36   S    
C7    C9    A    
C5    N1    A    
C30   C31   S    
Cu1   O1    S    
Cu2   O6    S    
C24   C26   A    
C3    C5    A    
C11   C12   S    
C15   H1    S    
C16   H2    S    
C38   H39   S    
C26   C28   A    
C10   H8    S    
C33   C34   S    
C31   H14   S    
C13   O5    A    
C4    C38   S    
C2    O2    A    
C5    H5    S    
Cu1   N2    S    
C17   C19   A    
C6    H6    S    
Cu2   N1    S    
C18   C20   A    
C23   C25   A    
C3    C35   S    
C37   H29   S    
C3    C11   A    
C32   C33   S    
C32   H26   S    
C8    C10   A    
C34   H20   S    
C31   H15   S    
C27   C28   S    
C7    N1    A    
Cu2   O2    S    
C8    N2    A    
