data_mof_unit_57737.cif
_audit_creation_date              2012-12-11T15:41:16-0500
_audit_creation_method            fapswitch 2.2
_symmetry_space_group_name_H-M    P1
_symmetry_Int_Tables_number       1
_space_group_crystal_system       triclinic
_cell_length_a                    19.052868
_cell_length_b                    10.973552
_cell_length_c                    18.828805
_cell_angle_alpha                 90.091512
_cell_angle_beta                  90.524325
_cell_angle_gamma                 90.24752
_cell_volume                      3936.47522839

loop_
_atom_site_label
_atom_site_type_symbol
_atom_type_description
_atom_site_fract_x
_atom_site_fract_y
_atom_site_fract_z
_atom_type_partial_charge
C1    C     C_R   0.727154 0.955708 0.853813 0.532410
C2    C     C_R   0.319474 0.414942 0.029264 0.038790
C3    C     C_R   0.760620 0.861725 0.353553 0.545323
C4    C     C_2   0.478151 0.166556 0.904512 0.255684
C5    C     C_2   0.517738 0.161165 0.092801 0.258145
C6    C     C_2   0.978145 0.666564 0.904508 0.255684
C7    C     C_2   0.017740 0.661160 0.092802 0.258084
C8    C     C_2   0.480008 0.163040 0.032931 -0.081127
C9    C     C_2   0.512136 0.141114 0.964672 -0.097615
C10   C     C_2   0.980016 0.663146 0.032929 -0.081143
C11   C     C_2   0.012130 0.641144 0.964670 -0.097591
C12   C     C_R   0.766388 0.446931 0.067383 0.016161
C13   C     C_R   0.195659 0.966159 0.961280 0.005367
C14   C     C_R   0.252365 0.398584 0.919411 0.019118
C15   C     C_R   0.266382 0.946911 0.067387 0.016151
C16   C     C_R   0.752364 0.898584 0.919411 0.019122
C17   C     C_3   0.674393 0.174759 0.392548 -0.123022
C18   C     C_3   0.373858 0.653342 0.541091 -0.110359
C19   C     C_3   0.174389 0.674709 0.392562 -0.122985
C20   C     C_3   0.873882 0.153186 0.541218 -0.110336
C21   C     C_3   0.619122 0.125480 0.160482 -0.118045
C22   C     C_3   0.375276 0.186323 0.839384 -0.113476
C23   C     C_3   0.119102 0.625299 0.160483 -0.117987
C24   C     C_R   0.819479 0.914930 0.029261 0.038744
C25   C     C_3   0.875276 0.686351 0.839371 -0.113459
C26   C     C_R   0.818453 0.419113 0.951009 -0.140329
C27   C     C_R   0.221824 0.275668 0.021888 -0.134927
C28   C     C_R   0.318449 0.919132 0.951010 -0.140342
C29   C     C_R   0.721812 0.775689 0.021892 -0.134943
C30   C     C_R   0.825761 0.428363 0.024540 -0.145914
C31   C     C_R   0.212758 0.304262 0.950221 -0.142366
C32   C     C_R   0.325757 0.928378 0.024540 -0.145936
C33   C     C_R   0.275984 0.963350 0.143391 0.536481
C34   C     C_R   0.712747 0.804277 0.950225 -0.142379
C35   C     C_3   0.630637 0.435836 0.048079 -0.280880
C36   C     C_3   0.330242 0.575939 0.971578 -0.261223
C37   C     C_3   0.130637 0.935692 0.048087 -0.280907
C38   C     C_3   0.830260 0.075920 0.971571 -0.261225
C39   C     C_3   0.622030 0.420446 0.968306 -0.238092
C40   C     C_3   0.342032 0.541314 0.048798 -0.266176
C41   C     C_3   0.122031 0.920334 0.968312 -0.238098
C42   C     C_3   0.842050 0.041296 0.048791 -0.266179
C43   C     C_R   0.751440 0.425882 0.919550 0.012430
C44   C     C_R   0.227154 0.455708 0.853813 0.532407
C45   C     C_R   0.272389 0.336835 0.063539 0.012757
C46   C     C_R   0.251434 0.925878 0.919553 0.012421
C47   C     C_R   0.772386 0.836840 0.063539 0.012756
C48   C     C_R   0.495555 0.171590 0.426717 0.028938
C49   C     C_R   0.501195 0.168049 0.574689 0.003473
C50   C     C_R   0.995568 0.671592 0.426712 0.028915
C51   C     C_R   0.001206 0.668051 0.574683 0.003468
C52   C     C_R   0.483969 0.276419 0.466888 0.042869
C53   C     C_R   0.485693 0.275282 0.538537 0.023969
C54   C     C_R   0.983987 0.776426 0.466882 0.042876
C55   C     C_R   0.775987 0.463358 0.143388 0.536481
C56   C     C_R   0.985716 0.775289 0.538531 0.024063
C57   C     C_R   0.503854 0.057775 0.536499 -0.167772
C58   C     C_R   0.501524 0.059513 0.462332 -0.174152
C59   C     C_R   0.003868 0.557773 0.536493 -0.167771
C60   C     C_R   0.001540 0.559512 0.462326 -0.174156
C61   C     C_R   0.522710 0.176993 0.842815 0.528488
C62   C     C_R   0.476679 0.176677 0.156502 0.522737
C63   C     C_R   0.022706 0.676994 0.842811 0.528476
C64   C     C_R   0.976680 0.676677 0.156503 0.522744
C65   C     C_3   0.509142 0.404732 0.461088 -0.262110
C66   C     C_R   0.703471 0.477874 0.033905 -0.004450
C67   C     C_3   0.513331 0.403859 0.541512 -0.263490
C68   C     C_3   0.009175 0.904732 0.461081 -0.262109
C69   C     C_3   0.013374 0.903854 0.541504 -0.263444
C70   C     C_R   0.759647 0.432283 0.426586 0.038170
C71   C     C_R   0.239549 0.435639 0.571126 0.029129
C72   C     C_R   0.259646 0.932277 0.426583 0.038155
C73   C     C_R   0.739555 0.935594 0.571135 0.029145
C74   C     C_R   0.804893 0.484998 0.476815 -0.027457
C75   C     C_R   0.182784 0.393507 0.530496 -0.018287
C76   C     C_R   0.304889 0.984996 0.476814 -0.027480
C77   C     C_R   0.308975 0.446591 0.958591 0.060690
C78   C     C_R   0.682778 0.893524 0.530499 -0.018271
C79   C     C_R   0.798239 0.461191 0.548454 -0.023265
C80   C     C_R   0.185645 0.384507 0.458427 -0.016424
C81   C     C_R   0.298237 0.961180 0.548451 -0.023278
C82   C     C_R   0.685644 0.884528 0.458428 -0.016433
C83   C     C_R   0.699683 0.328834 0.521412 -0.151164
C84   C     C_R   0.301473 0.473058 0.460544 -0.168901
C85   C     C_R   0.199695 0.828794 0.521406 -0.151101
C86   C     C_R   0.801497 0.972979 0.460562 -0.168842
C87   C     C_R   0.708268 0.349458 0.448141 0.209022
C88   C     C_R   0.203457 0.977815 0.033914 -0.004456
C89   C     C_R   0.297164 0.488790 0.534941 0.247277
C90   C     C_R   0.208279 0.849427 0.448135 0.209001
C91   C     C_R   0.797194 0.988672 0.534960 0.247246
C92   C     C_3   0.816979 0.617359 0.490748 -0.253303
C93   C     C_3   0.135204 0.285744 0.537669 -0.265199
C94   C     C_3   0.316972 0.117353 0.490752 -0.253322
C95   C     C_3   0.635195 0.785761 0.537662 -0.265194
C96   C     C_3   0.812732 0.589874 0.569186 -0.273981
C97   C     C_3   0.136735 0.276705 0.457254 -0.252778
C98   C     C_3   0.312729 0.089858 0.569189 -0.274019
C99   C     C_R   0.808980 0.946578 0.958588 0.060699
C100  C     C_3   0.636731 0.776728 0.457249 -0.252773
C101  C     C_R   0.743255 0.389213 0.571470 -0.020240
C102  C     C_R   0.247512 0.413210 0.422794 -0.054873
C103  C     C_R   0.243258 0.889190 0.571466 -0.020154
C104  C     C_R   0.747519 0.913201 0.422800 -0.054886
C105  C     C_R   0.738539 0.365102 0.852134 0.529642
C106  C     C_R   0.275516 0.313752 0.140047 0.554179
C107  C     C_R   0.238538 0.865102 0.852134 0.529627
C108  C     C_R   0.775516 0.813754 0.140046 0.554193
C109  C     C_R   0.726607 0.958604 0.645977 0.557481
C110  C     C_R   0.695672 0.466203 0.961273 0.005366
C111  C     C_R   0.272952 0.957406 0.352917 0.592301
C112  C     C_R   0.226604 0.458619 0.645972 0.557461
C113  C     C_R   0.772953 0.457407 0.352917 0.592284
C114  C     C_R   0.530424 0.176205 0.644610 0.534609
C115  C     C_R   0.471248 0.176654 0.354578 0.539506
C116  C     C_R   0.030426 0.676205 0.644609 0.534611
C117  C     C_R   0.971250 0.676654 0.354576 0.539493
C118  C     C_R   0.738081 0.358422 0.645347 0.543304
C119  C     C_R   0.260619 0.361726 0.353551 0.545323
C120  C     C_R   0.238080 0.858414 0.645345 0.543326
Cr1   Cr    Cr6+3 0.769260 0.163750 0.750730 1.037892
Cr2   Cr    Cr6+3 0.385810 0.322400 0.252290 1.003625
Cr3   Cr    Cr6+3 0.114190 0.822400 0.747710 1.004748
Cr4   Cr    Cr6+3 0.885810 0.822400 0.252290 1.003621
Cr5   Cr    Cr6+3 0.230740 0.163750 0.249270 1.012183
Cr6   Cr    Cr6+3 0.269260 0.663750 0.750730 1.037950
Cr7   Cr    Cr6+3 0.730740 0.663750 0.249270 1.012177
Cr8   Cr    Cr6+3 0.612640 0.009910 0.748780 1.000392
Cr9   Cr    Cr6+3 0.387360 0.009910 0.251220 1.002074
Cr10  Cr    Cr6+3 0.112640 0.509910 0.748780 1.000388
Cr11  Cr    Cr6+3 0.887360 0.509910 0.251220 1.002098
Cr12  Cr    Cr6+3 0.614190 0.322400 0.747710 1.004754
H1    H     H_    0.424095 0.183526 0.034688 0.142026
H2    H     H_    0.476113 0.466973 0.567126 0.188025
H3    H     H_    0.060779 0.914317 0.435363 0.199354
H4    H     H_    0.976176 0.966989 0.567124 0.188083
H5    H     H_    0.659216 0.266708 0.539297 0.128823
H6    H     H_    0.348485 0.500274 0.433074 0.129456
H7    H     H_    0.159235 0.766656 0.539290 0.128787
H8    H     H_    0.848525 0.000143 0.433103 0.129516
H9    H     H_    0.773682 0.674909 0.471126 0.140454
H10   H     H_    0.082792 0.309374 0.558435 0.137623
H11   H     H_    0.273674 0.174902 0.471135 0.140460
H12   H     H_    0.567156 0.114562 0.963189 0.144632
H13   H     H_    0.582781 0.809393 0.558424 0.137628
H14   H     H_    0.868833 0.647872 0.473703 0.158889
H15   H     H_    0.160475 0.207331 0.564571 0.131820
H16   H     H_    0.368821 0.147873 0.473704 0.158890
H17   H     H_    0.660462 0.707345 0.564565 0.131821
H18   H     H_    0.863584 0.599293 0.597841 0.142674
H19   H     H_    0.160420 0.190578 0.438144 0.162110
H20   H     H_    0.363582 0.099272 0.597841 0.142670
H21   H     H_    0.660418 0.690599 0.438141 0.162117
H22   H     H_    0.767978 0.634051 0.596129 0.127240
H23   H     H_    0.924119 0.683764 0.034685 0.142063
H24   H     H_    0.085459 0.298834 0.431946 0.127431
H25   H     H_    0.267978 0.134027 0.596139 0.127233
H26   H     H_    0.585457 0.798858 0.431936 0.127431
H27   H     H_    0.863913 0.394470 0.920052 0.136948
H28   H     H_    0.185452 0.212699 0.046011 0.143735
H29   H     H_    0.363911 0.894513 0.920050 0.136940
H30   H     H_    0.685432 0.712737 0.046018 0.143725
H31   H     H_    0.877556 0.416935 0.047719 0.147223
H32   H     H_    0.169991 0.260976 0.921327 0.137446
H33   H     H_    0.377554 0.916975 0.047717 0.147190
H34   H     H_    0.067146 0.614565 0.963187 0.144630
H35   H     H_    0.669975 0.761002 0.921334 0.137445
H36   H     H_    0.097569 0.009496 0.070266 0.137821
H37   H     H_    0.786223 0.140937 0.963860 0.156741
H38   H     H_    0.597593 0.509687 0.070244 0.137786
H39   H     H_    0.286199 0.640944 0.963867 0.156730
H40   H     H_    0.629442 0.348974 0.077864 0.180412
H41   H     H_    0.379517 0.600334 0.943726 0.144149
H42   H     H_    0.129474 0.848808 0.077853 0.180289
H43   H     H_    0.879536 0.100299 0.943716 0.144144
H44   H     H_    0.616502 0.323748 0.951799 0.164755
H45   H     H_    0.968215 0.966346 0.439770 0.133991
H46   H     H_    0.398156 0.545304 0.065335 0.145600
H47   H     H_    0.116532 0.823640 0.951789 0.164697
H48   H     H_    0.898175 0.045269 0.065326 0.145591
H49   H     H_    0.583046 0.483905 0.944589 0.146347
H50   H     H_    0.305049 0.586787 0.085639 0.148205
H51   H     H_    0.083027 0.983770 0.944607 0.146380
H52   H     H_    0.805074 0.086783 0.085633 0.148221
H53   H     H_    0.511690 0.972216 0.563552 0.131977
H54   H     H_    0.503241 0.974423 0.433259 0.129348
H55   H     H_    0.011704 0.472210 0.563545 0.131983
H56   H     H_    0.068125 0.911886 0.561539 0.161607
H57   H     H_    0.003260 0.474420 0.433253 0.129348
H58   H     H_    0.659610 0.127391 0.442297 0.132944
H59   H     H_    0.729851 0.155961 0.378240 0.122770
H60   H     H_    0.640581 0.137747 0.349284 0.133734
H61   H     H_    0.397150 0.713562 0.582481 0.155276
H62   H     H_    0.330412 0.704331 0.515034 0.124204
H63   H     H_    0.415517 0.634069 0.501946 0.086701
H64   H     H_    0.159638 0.627365 0.442340 0.132908
H65   H     H_    0.229840 0.655882 0.378208 0.122767
H66   H     H_    0.140536 0.637689 0.349330 0.133747
H67   H     H_    0.468176 0.466325 0.439767 0.133997
H68   H     H_    0.897315 0.213192 0.582623 0.155139
H69   H     H_    0.830386 0.204317 0.515380 0.124417
H70   H     H_    0.915415 0.134064 0.501925 0.086636
H71   H     H_    0.595158 0.052763 0.193560 0.137603
H72   H     H_    0.615105 0.215820 0.187033 0.114477
H73   H     H_    0.675734 0.104285 0.155291 0.150280
H74   H     H_    0.318025 0.199121 0.845920 0.140895
H75   H     H_    0.383085 0.091199 0.820359 0.103289
H76   H     H_    0.393531 0.253087 0.799158 0.134384
H77   H     H_    0.095086 0.552704 0.193616 0.137598
H78   H     H_    0.568078 0.411920 0.561553 0.161643
H79   H     H_    0.115166 0.715705 0.186978 0.114397
H80   H     H_    0.175695 0.603948 0.155291 0.150333
H81   H     H_    0.818023 0.699140 0.845906 0.140897
H82   H     H_    0.883092 0.591230 0.820335 0.103289
H83   H     H_    0.893532 0.753133 0.799153 0.134404
H84   H     H_    0.560749 0.414330 0.435377 0.199353
O1    O     O_R   0.784290 0.290360 0.830540 -0.531269
O2    O     O_R   0.456020 0.282110 0.333230 -0.511657
O3    O     O_R   0.043980 0.782110 0.666770 -0.524456
O4    O     O_R   0.956020 0.782110 0.333230 -0.511656
O5    O     O_R   0.679070 0.374030 0.674430 -0.513150
O6    O     O_R   0.320930 0.374030 0.325570 -0.503482
O7    O     O_R   0.179070 0.874030 0.674430 -0.513180
O8    O     O_R   0.820930 0.874030 0.325570 -0.503483
O9    O     O_3   0.665360 0.165350 0.749070 -0.252856
O10   O     O_3   0.334640 0.165350 0.250930 -0.270715
O11   O     O_3   0.165360 0.665350 0.749070 -0.252866
O12   O     O_R   0.215710 0.290360 0.169460 -0.520020
O13   O     O_3   0.834640 0.665350 0.250930 -0.270719
O14   O     O_R   0.762610 0.041070 0.825230 -0.499287
O15   O     O_R   0.237390 0.041070 0.174770 -0.512592
O16   O     O_R   0.262610 0.541070 0.825230 -0.499294
O17   O     O_R   0.737390 0.541070 0.174770 -0.512599
O18   O     O_R   0.667390 0.924160 0.829970 -0.523348
O19   O     O_R   0.332610 0.924160 0.170030 -0.522563
O20   O     O_R   0.167390 0.424160 0.829970 -0.523339
O21   O     O_R   0.832610 0.424160 0.170030 -0.522561
O22   O     O_R   0.553980 0.081420 0.821780 -0.522270
O23   O     O_R   0.284290 0.790360 0.830540 -0.531270
O24   O     O_R   0.446020 0.081420 0.178220 -0.515449
O25   O     O_R   0.053980 0.581420 0.821780 -0.522262
O26   O     O_R   0.946020 0.581420 0.178220 -0.515379
O27   O     O_R   0.543210 0.283170 0.826740 -0.518537
O28   O     O_R   0.456790 0.283170 0.173260 -0.537128
O29   O     O_R   0.043210 0.783170 0.826740 -0.518544
O30   O     O_R   0.956790 0.783170 0.173260 -0.537184
O31   O     O_R   0.678350 0.375000 0.822720 -0.499850
O32   O     O_R   0.321650 0.375000 0.177280 -0.501761
O33   O     O_R   0.178350 0.875000 0.822720 -0.499851
O34   O     O_R   0.715710 0.790360 0.169460 -0.520027
O35   O     O_R   0.821650 0.875000 0.177280 -0.501752
O36   O     O_R   0.785060 0.289300 0.670580 -0.505662
O37   O     O_R   0.214940 0.289300 0.329420 -0.518729
O38   O     O_R   0.285060 0.789300 0.670580 -0.505563
O39   O     O_R   0.714940 0.789300 0.329420 -0.518725
O40   O     O_R   0.763330 0.040090 0.676940 -0.446476
O41   O     O_R   0.236670 0.040090 0.323060 -0.493248
O42   O     O_R   0.263330 0.540090 0.676940 -0.446431
O43   O     O_R   0.736670 0.540090 0.323060 -0.493245
O44   O     O_R   0.668160 0.923110 0.670000 -0.532706
O45   O     O_R   0.554690 0.080440 0.673480 -0.513250
O46   O     O_R   0.331840 0.923110 0.330000 -0.523104
O47   O     O_R   0.168160 0.423110 0.670000 -0.532712
O48   O     O_R   0.831840 0.423110 0.330000 -0.523097
O49   O     O_3   0.662572 0.300556 0.398130 -0.590908
O50   O     O_3   0.350918 0.544413 0.573731 -0.557388
O51   O     O_3   0.162585 0.800526 0.398121 -0.590900
O52   O     O_3   0.850988 0.044145 0.573759 -0.557503
O53   O     O_3   0.588494 0.127483 0.091953 -0.608196
O54   O     O_3   0.408880 0.207174 0.905441 -0.586965
O55   O     O_3   0.088461 0.627249 0.091958 -0.608119
O56   O     O_R   0.445310 0.080440 0.326520 -0.514419
O57   O     O_3   0.908876 0.707188 0.905433 -0.586977
O58   O     O_R   0.054690 0.580440 0.673480 -0.513259
O59   O     O_R   0.945310 0.580440 0.326520 -0.514424
O60   O     O_R   0.543980 0.282110 0.666770 -0.524468

loop_
_geom_bond_atom_site_label_1
_geom_bond_atom_site_label_2
_ccdc_geom_bond_type
C100  H21   S    
C61   O27   A    
C7    C10   D    
C83   C87   A    
Cr4   O4    S    
C3    O8    A    
C80   C97   S    
C58   H54   S    
C50   C117  S    
C84   C102  A    
Cr11  O13   S    
C21   H71   S    
C37   C88   S    
C35   C39   S    
Cr6   O11   S    
C95   H13   S    
Cr7   O13   S    
C14   C31   A    
C117  O59   A    
C86   C104  A    
C20   O52   S    
C7    O55   S    
C13   C41   S    
C57   C58   A    
C21   O53   S    
C15   C32   A    
C98   H20   S    
C24   C42   S    
C17   H59   S    
C28   C46   A    
C50   C54   A    
C23   H79   S    
Cr9   O19   S    
Cr7   O39   S    
C94   H11   S    
Cr8   O44   S    
Cr2   O32   S    
C25   H82   S    
C114  O45   A    
C20   H69   S    
Cr3   O33   S    
Cr4   O35   S    
C86   C91   A    
C44   O20   A    
C13   C46   A    
C35   H38   S    
Cr10  O25   S    
C38   C99   S    
C14   C77   A    
C64   O26   A    
C23   H80   S    
C94   C98   S    
C21   H73   S    
C63   O25   A    
Cr5   O41   S    
C68   H45   S    
C92   C96   S    
Cr1   O9    S    
C22   H74   S    
C67   H78   S    
C89   O50   S    
C43   C105  S    
C97   H24   S    
C74   C92   S    
C6    O57   S    
C70   C74   A    
C20   H68   S    
C17   O49   S    
C15   C88   A    
C76   C94   S    
C37   H42   S    
C65   H67   S    
C1    O14   A    
C39   C110  S    
C96   H22   S    
C103  C120  S    
C106  O12   A    
Cr6   O23   S    
C60   H57   S    
C65   C67   S    
Cr9   O10   S    
C26   C43   A    
C11   H34   S    
C25   O57   S    
C73   C78   A    
C115  O2    A    
C59   H55   S    
C78   C95   S    
C95   H17   S    
C43   C110  A    
Cr10  O58   S    
Cr5   O12   S    
Cr2   O2    S    
C75   C80   A    
C85   H7    S    
C57   H53   S    
Cr10  O47   S    
C85   C103  A    
C72   C76   A    
Cr2   O10   S    
C16   C34   A    
C22   O54   S    
C49   C114  S    
C8    H1    S    
C72   C111  S    
C84   H6    S    
C36   H41   S    
C17   H60   S    
C32   H33   S    
C46   C107  S    
C18   H61   S    
Cr8   O18   S    
C35   H40   S    
C21   H72   S    
Cr9   O46   S    
Cr1   O1    S    
C30   H31   S    
C55   O17   A    
C3    C104  S    
C70   C87   A    
C119  O37   A    
C9    H12   S    
C28   H29   S    
C37   H36   S    
C40   H50   S    
C70   C113  S    
C4    O54   S    
C101  C118  S    
C63   O29   A    
C54   C56   A    
C19   H65   S    
Cr7   O17   S    
C107  O33   A    
C108  O35   A    
C92   H14   S    
Cr12  O5    S    
Cr4   O8    S    
C28   C32   A    
C24   C99   A    
C18   H62   S    
C73   C91   A    
C65   H84   S    
C10   C11   S    
C42   H48   S    
C6    C11   D    
C18   O50   S    
Cr6   O42   S    
C95   C100  S    
C68   C69   S    
Cr1   O36   S    
Cr2   O28   S    
C23   H77   S    
C94   H16   S    
C42   H52   S    
C27   H28   S    
C12   C66   A    
C4    C61   S    
Cr11  O26   S    
C119  O6    A    
C55   O21   A    
C80   C102  A    
C113  O48   A    
C6    C63   S    
C10   H23   S    
Cr4   O13   S    
Cr6   O16   S    
C111  O46   A    
Cr11  O59   S    
C2    C40   S    
C3    O39   A    
C72   C90   A    
C78   C82   A    
Cr12  O27   S    
C71   C89   A    
C98   H25   S    
C36   C40   S    
C1    O18   A    
C54   C68   S    
C23   O55   S    
C71   C112  S    
C67   H2    S    
C8    C9    S    
C19   H64   S    
C22   H76   S    
C26   H27   S    
Cr6   O38   S    
C1    C16   S    
C107  O23   A    
Cr8   O45   S    
C66   C110  A    
C116  O3    A    
C116  O58   A    
C92   H9    S    
C69   H56   S    
C39   H49   S    
C87   O49   S    
C48   C115  S    
C105  O31   A    
C29   C47   A    
Cr10  O11   S    
C114  O60   A    
C69   H4    S    
C105  O1    A    
C74   C79   A    
C27   C31   A    
C25   H83   S    
C40   H46   S    
C51   C59   A    
C84   C89   A    
C61   O22   A    
C34   H35   S    
C93   C97   S    
C48   C58   A    
C83   H5    S    
C112  O42   A    
C45   C106  S    
C75   C93   S    
Cr1   O40   S    
C14   C44   S    
Cr11  O48   S    
C81   C103  A    
C47   C108  S    
Cr3   O3    S    
C31   H32   S    
C19   H66   S    
C81   C98   S    
Cr1   O14   S    
C83   C101  A    
C12   C30   A    
C18   H63   S    
C115  O56   A    
C24   C47   A    
C82   C100  S    
C29   H30   S    
C41   H47   S    
C68   H3    S    
C41   H51   S    
C51   C56   A    
C39   H44   S    
Cr5   O15   S    
Cr3   O29   S    
C33   O19   A    
C76   C81   A    
Cr8   O9    S    
C5    C8    D    
C85   C90   A    
C16   C99   A    
C62   O28   A    
Cr5   O37   S    
C86   H8    S    
C17   H58   S    
C120  O7    A    
C113  O43   A    
C109  O40   A    
C5    O53   S    
C51   C116  S    
C35   C66   S    
C36   C77   S    
Cr7   O34   S    
C50   C60   A    
C109  O44   A    
C25   H81   S    
C90   O51   S    
C44   O16   A    
C20   H70   S    
C79   C96   S    
Cr9   O24   S    
Cr9   O56   S    
C118  O36   A    
Cr12  O9    S    
C93   H10   S    
C71   C75   A    
C36   H39   S    
C27   C45   A    
C38   H43   S    
C49   C57   A    
Cr3   O7    S    
C22   H75   S    
Cr11  O21   S    
C49   C53   A    
C96   H18   S    
C29   C34   A    
C13   C88   A    
Cr10  O20   S    
Cr12  O31   S    
C15   C33   S    
C5    C62   S    
C93   H15   S    
Cr7   O43   S    
C73   C109  S    
C19   O51   S    
C37   C41   S    
C33   O15   A    
C53   C67   S    
C120  O38   A    
C7    C64   S    
C12   C55   S    
C2    C45   A    
C102  C119  S    
C112  O47   A    
C38   H37   S    
C38   C42   S    
C100  H26   S    
C59   C60   A    
Cr3   O11   S    
C56   C69   S    
Cr2   O6    S    
C108  O34   A    
C2    C77   A    
C62   O24   A    
C82   C104  A    
Cr5   O10   S    
C79   C101  A    
C64   O30   A    
Cr4   O30   S    
C106  O32   A    
C4    C9    D    
C48   C52   A    
Cr8   O22   S    
C111  O41   A    
C97   H19   S    
C52   C65   S    
C91   O52   S    
C52   C53   A    
C117  O4    A    
C118  O5    A    
C26   C30   A    
Cr12  O60   S    
