data_mof_unit_15737.cif
_audit_creation_date              2012-12-11T14:36:25-0500
_audit_creation_method            fapswitch 2.2
_symmetry_space_group_name_H-M    P1
_symmetry_Int_Tables_number       1
_space_group_crystal_system       triclinic
_cell_length_a                    13.511577
_cell_length_b                    13.509615
_cell_length_c                    27.474199
_cell_angle_alpha                 90.548226
_cell_angle_beta                  90.225494
_cell_angle_gamma                 60.01173
_cell_volume                      4343.46090789

loop_
_atom_site_label
_atom_site_type_symbol
_atom_type_description
_atom_site_fract_x
_atom_site_fract_y
_atom_site_fract_z
_atom_type_partial_charge
C1    C     C_R   0.620303 0.101123 0.570219 0.544209
C2    C     C_1   0.651923 0.697282 0.657042 0.012840
C3    C     C_3   0.069702 0.219661 0.737143 -0.068799
C4    C     C_R   0.600162 0.778521 0.568405 0.545126
C5    C     C_3   0.106795 0.117564 0.771570 0.063852
C6    C     C_1   0.098762 0.201195 0.902557 0.022231
C7    C     C_1   0.234472 0.136403 0.618105 0.014677
C8    C     C_3   0.119484 0.270252 0.774246 0.415193
C9    C     C_3   0.154271 0.168667 0.808546 0.046161
C10   C     C_3   0.238189 0.206484 0.749488 -0.108791
C11   C     C_3   0.188895 0.154092 0.712977 -0.001296
C12   C     C_1   0.633188 0.727367 0.615337 0.019482
C13   C     C_3   0.273486 0.103226 0.784250 -0.144191
C14   C     C_3   0.223698 0.053127 0.747155 0.115381
C15   C     C_1   0.128590 0.182215 0.860663 0.014292
C16   C     C_R   0.278517 0.121535 0.569741 0.543922
C17   C     C_1   0.209873 0.145284 0.660556 -0.016726
C18   C     C_3   0.739376 0.183586 0.740878 -0.079288
C19   C     C_3   0.641876 0.278233 0.772666 -0.098977
C20   C     C_1   0.688044 0.207455 0.903877 0.007449
C21   C     C_1   0.635502 0.132396 0.618502 0.008561
C22   C     C_3   0.749832 0.094254 0.777991 0.131219
C23   C     C_3   0.736105 0.556704 0.768573 0.087136
C24   C     C_3   0.655124 0.186387 0.809548 0.040724
C25   C     C_3   0.662794 0.073252 0.750435 -0.116512
C26   C     C_3   0.649652 0.165013 0.713582 0.039902
C27   C     C_3   0.565450 0.167497 0.782353 -0.097754
C28   C     C_R   0.623387 0.100158 0.431582 0.583075
C29   C     C_3   0.554566 0.257031 0.745077 0.121242
C30   C     C_1   0.668502 0.196617 0.861965 -0.023005
C31   C     C_1   0.643511 0.150656 0.660928 -0.024479
C32   C     C_R   0.732620 0.703249 0.358597 -0.087586
C33   C     C_R   0.744998 0.685689 0.308138 -0.009968
C34   C     C_3   0.677098 0.654613 0.805855 0.001613
C35   C     C_R   0.763431 0.666467 0.205532 -0.026760
C36   C     C_R   0.859033 0.646561 0.234920 0.137958
C37   C     C_R   0.847160 0.660668 0.285362 0.452484
C38   C     C_R   0.768074 0.658892 0.153955 0.067565
C39   C     C_R   0.679853 0.653120 0.128597 0.049147
C40   C     C_R   0.600834 0.777255 0.429868 0.542003
C41   C     C_R   0.545041 0.722042 0.353785 -0.097142
C42   C     C_R   0.552164 0.712710 0.303313 0.048159
C43   C     C_R   0.652775 0.695415 0.280086 -0.032899
C44   C     C_R   0.458235 0.726272 0.275715 0.118303
C45   C     C_3   0.625567 0.605140 0.738726 0.373538
C46   C     C_R   0.463687 0.727581 0.225182 -0.052460
C47   C     C_R   0.564205 0.706672 0.201449 0.009331
C48   C     C_R   0.660482 0.689050 0.228974 -0.036358
C49   C     C_R   0.572773 0.694616 0.150740 0.077659
C50   C     C_R   0.630886 0.725803 0.381152 -0.031666
C51   C     C_R   0.189884 0.071048 0.360409 0.058122
C52   C     C_R   0.275481 0.122405 0.431278 0.577315
C53   C     C_R   0.165842 0.082961 0.309789 0.018670
C54   C     C_R   0.145415 0.093358 0.206925 -0.029948
C55   C     C_R   0.133124 0.011770 0.233302 -0.085705
C56   C     C_3   0.665441 0.675238 0.709321 -0.005111
C57   C     C_R   0.141170 0.007369 0.283716 0.381902
C58   C     C_R   0.133158 0.099965 0.155777 0.068033
C59   C     C_R   0.123364 0.197054 0.131845 0.053942
C60   C     C_R   0.188462 0.252000 0.360626 0.080480
C61   C     C_R   0.184487 0.255515 0.309283 0.057891
C62   C     C_R   0.172295 0.170293 0.283867 -0.056503
C63   C     C_R   0.196166 0.338388 0.282383 0.100291
C64   C     C_3   0.778151 0.625484 0.738957 -0.090680
C65   C     C_R   0.195718 0.335398 0.231790 -0.115906
C66   C     C_R   0.176038 0.256951 0.206378 0.001508
C67   C     C_3   0.564472 0.704201 0.776213 -0.109478
C68   C     C_R   0.163866 0.173969 0.232419 -0.005487
C69   C     C_R   0.161941 0.264083 0.155518 0.065812
C70   C     C_R   0.211087 0.150719 0.384608 0.047801
C71   C     C_R   0.575682 0.242235 0.364781 0.348459
C72   C     C_R   0.587218 0.262099 0.315541 -0.028178
C73   C     C_R   0.597570 0.291792 0.214862 -0.024521
C74   C     C_R   0.521863 0.383957 0.244449 0.373302
C75   C     C_R   0.515877 0.368910 0.294282 0.437285
C76   C     C_3   0.716770 0.724866 0.776462 0.385541
C77   C     C_R   0.606006 0.307012 0.165230 -0.132465
C78   C     C_3   0.606196 0.773013 0.746662 0.078463
C79   C     C_R   0.679521 0.214011 0.135865 0.030144
C80   C     C_R   0.743600 0.053042 0.357683 0.350750
C81   C     C_R   0.749628 0.067627 0.307916 -0.010913
C82   C     C_R   0.669516 0.171349 0.286399 -0.190333
C83   C     C_R   0.832941 0.979016 0.279176 0.512982
C84   C     C_R   0.832360 0.988566 0.228890 0.099304
C85   C     C_R   0.747227 0.089651 0.206054 -0.018387
C86   C     C_R   0.671515 0.184181 0.235740 -0.059619
C87   C     C_R   0.737395 0.103459 0.155036 0.110785
C88   C     C_1   0.695824 0.609629 0.900564 0.017588
C89   C     C_1   0.686188 0.635625 0.858361 0.014281
C90   C     C_R   0.650066 0.135300 0.385152 -0.020102
C91   C     C_R   0.049430 0.236263 0.949993 0.542810
C92   C     C_R   0.711167 0.563561 0.948410 0.540792
C93   C     C_R   0.721531 0.225388 0.951191 0.549681
C94   C     C_R   0.052631 0.242058 0.087295 0.566490
C95   C     C_R   0.706299 0.579029 0.085057 0.565729
C96   C     C_R   0.718045 0.233842 0.089131 0.570207
Cr1   Cr    Cr6+3 0.417550 0.169090 0.500530 1.108520
Cr2   Cr    Cr6+3 0.669180 0.913420 0.499920 1.092017
Cr3   Cr    Cr6+3 0.413260 0.917540 0.499520 1.074128
Cr4   Cr    Cr6+3 0.909170 0.177380 0.020380 1.050328
Cr5   Cr    Cr6+3 0.912710 0.429210 0.018220 1.064892
Cr6   Cr    Cr6+3 0.657170 0.432570 0.019030 1.044439
F1    F     F_    0.760796 0.789325 0.796151 -0.641172
F2    F     F_    0.581313 0.540901 0.719011 -0.645979
F3    F     F_    0.065850 0.383510 0.788956 -0.596357
F4    F     F_    0.938077 0.645270 0.312466 -0.573864
F5    F     F_    0.121224 0.930149 0.306240 -0.595116
F6    F     F_    0.489873 0.324248 0.392243 -0.554616
F7    F     F_    0.452124 0.488409 0.225006 -0.642480
F8    F     F_    0.440834 0.459448 0.321691 -0.567553
F9    F     F_    0.915748 0.880813 0.299512 -0.459205
F10   F     F_    0.824386 0.954318 0.378492 -0.521883
H1    H     H_    0.355219 0.055472 0.804297 0.120008
H2    H     H_    0.467063 0.737795 0.371507 0.176849
H3    H     H_    0.114449 0.951579 0.215347 0.165801
H4    H     H_    0.207357 0.398696 0.212834 0.137559
H5    H     H_    0.559427 0.391869 0.149824 0.186491
H6    H     H_    0.477426 0.737672 0.791411 0.131254
H7    H     H_    0.987774 0.265796 0.717134 0.117621
H8    H     H_    0.399606 0.398617 0.755469 0.245309
H9    H     H_    0.464520 0.397539 0.703361 0.282124
H10   H     H_    0.899919 0.946653 0.768225 0.239471
H11   H     H_    0.836786 0.957197 0.821907 0.280750
H12   H     H_    0.291352 0.244942 0.739904 0.154185
H13   H     H_    0.851721 0.741886 0.137981 0.198490
H14   H     H_    0.836788 0.678804 0.090530 0.246518
H15   H     H_    0.989743 0.528662 0.193748 0.243653
H16   H     H_    0.981661 0.659516 0.196769 0.264249
H17   H     H_    0.411051 0.803996 0.127702 0.213678
H18   H     H_    0.445096 0.664100 0.130282 0.258090
H19   H     H_    0.296298 0.748451 0.273090 0.298629
H20   H     H_    0.378558 0.666094 0.317975 0.320352
H21   H     H_    0.157620 0.007845 0.093235 0.237073
H22   H     H_    0.193318 0.931594 0.141988 0.200220
H23   H     H_    0.628869 0.363992 0.781949 0.154451
H24   H     H_    0.255744 0.900791 0.371883 0.295960
H25   H     H_    0.115027 0.985500 0.388447 0.313451
H26   H     H_    0.529916 0.941449 0.764262 0.237860
H27   H     H_    0.573330 0.911460 0.706080 0.226670
H28   H     H_    0.129647 0.423809 0.137434 0.245101
H29   H     H_    0.269627 0.319445 0.133796 0.232513
H30   H     H_    0.150678 0.503598 0.294225 0.325941
H31   H     H_    0.292558 0.411882 0.292839 0.286924
H32   H     H_    0.092162 0.422195 0.377062 0.284492
H33   H     H_    0.236391 0.363207 0.388135 0.322873
H34   H     H_    0.811642 0.188136 0.724162 0.124262
H35   H     H_    0.862898 0.967108 0.116560 0.249442
H36   H     H_    0.747031 0.953707 0.133681 0.220249
H37   H     H_    0.966727 0.933272 0.182366 0.235678
H38   H     H_    0.899716 0.853443 0.182053 0.207372
H39   H     H_    0.809139 0.388645 0.750940 0.238992
H40   H     H_    0.765932 0.418915 0.808869 0.227703
H41   H     H_    0.023556 0.034158 0.751579 0.229640
H42   H     H_    0.084405 0.998896 0.806802 0.245280
H43   H     H_    0.285240 0.885588 0.762032 0.225741
H44   H     H_    0.225616 0.925425 0.706794 0.235545
H45   H     H_    0.493127 0.162946 0.799016 0.115464
H46   H     H_    0.678192 0.986755 0.741266 0.153326
H47   H     H_    0.865617 0.591324 0.724060 0.169017
H48   H     H_    0.799487 0.704663 0.379994 0.215773
H49   H     H_    0.389480 0.740986 0.204766 0.126152
N1    N     N_3   0.446328 0.346988 0.726038 -0.606558
N2    N     N_3   0.185461 0.339096 0.127274 -0.601357
N3    N     N_3   0.214861 0.423068 0.305433 -0.576362
N4    N     N_3   0.166345 0.350393 0.389478 -0.562448
N5    N     N_3   0.774651 0.009003 0.121596 -0.622810
N6    N     N_3   0.927450 0.898694 0.203405 -0.554777
N7    N     N_3   0.807374 0.436789 0.781218 -0.543318
N8    N     N_3   0.036463 0.067856 0.783794 -0.596588
N9    N     N_3   0.279752 0.933902 0.731623 -0.565414
N10   N     N_3   0.856953 0.002643 0.797107 -0.587777
N11   N     N_3   0.856562 0.665249 0.127493 -0.622486
N12   N     N_3   0.972658 0.598454 0.216012 -0.564136
N13   N     N_3   0.475019 0.719509 0.121168 -0.608086
N14   N     N_3   0.356539 0.740854 0.298994 -0.580784
N15   N     N_3   0.129062 0.009899 0.128718 -0.610038
N16   N     N_3   0.195674 0.978327 0.387775 -0.561923
N17   N     N_3   0.533240 0.892624 0.733979 -0.579780
O1    O     O_R   0.301710 0.195650 0.554160 -0.498559
O2    O     O_R   0.635520 0.542770 0.964420 -0.510215
O3    O     O_R   0.665950 0.325030 0.970100 -0.497432
O4    O     O_R   0.522390 0.158990 0.550460 -0.487855
O5    O     O_R   0.816620 0.158530 0.074540 -0.477911
O6    O     O_R   0.004460 0.188870 0.069750 -0.494693
O7    O     O_R   0.025800 0.341780 0.072300 -0.469860
O8    O     O_R   0.807650 0.528950 0.067500 -0.499239
O9    O     O_R   0.633420 0.550490 0.071810 -0.480833
O10   O     O_R   0.664000 0.332180 0.069640 -0.515170
O11   O     O_3   0.826350 0.346390 0.019210 -0.263749
O12   O     O_R   0.658900 0.818120 0.449760 -0.488822
O13   O     O_R   0.694390 0.003530 0.554040 -0.505892
O14   O     O_R   0.657700 0.819660 0.549320 -0.501412
O15   O     O_R   0.501930 0.803280 0.552920 -0.486589
O16   O     O_R   0.318170 0.023580 0.549580 -0.491989
O17   O     O_R   0.303010 0.193990 0.446760 -0.479342
O18   O     O_R   0.523600 0.157450 0.450900 -0.449141
O19   O     O_R   0.695690 0.001860 0.446640 -0.436128
O20   O     O_R   0.503220 0.801620 0.445520 -0.508620
O21   O     O_R   0.319370 0.022040 0.450020 -0.474707
O22   O     O_3   0.499990 0.000010 0.499990 -0.287075
O23   O     O_R   0.818720 0.150820 0.967160 -0.494913
O24   O     O_R   0.006410 0.181720 0.970200 -0.502511
O25   O     O_R   0.027890 0.334070 0.964920 -0.489497
O26   O     O_R   0.809600 0.521790 0.967960 -0.486353

loop_
_geom_bond_atom_site_label_1
_geom_bond_atom_site_label_2
_ccdc_geom_bond_type
H15   N12   S    
C66   C68   A    
C20   C93   S    
C63   C65   A    
C52   C70   S    
C1    C21   S    
C23   C45   S    
C91   O25   A    
C27   C29   S    
Cr6   O2    S    
C41   C42   A    
C96   O10   A    
C35   C36   A    
H37   N6    S    
C24   C27   S    
C41   H2    S    
Cr2   O12   S    
C2    C12   T    
C8    F3    S    
C74   F7    S    
C79   C87   A    
C81   C82   A    
C95   O9    A    
Cr1   O4    S    
C47   C49   A    
C20   C30   T    
C85   C86   A    
H18   N13   S    
H28   N2    S    
C52   O17   A    
Cr3   O16   S    
H16   N12   S    
H22   N15   S    
C83   C84   A    
H27   N17   S    
Cr1   O18   S    
C36   C37   A    
C45   F2    S    
C76   C78   S    
C10   C13   S    
C93   O3    A    
Cr5   O11   S    
H30   N3    S    
C38   C39   A    
C11   C14   S    
Cr1   O1    S    
C87   N5    S    
C54   C68   A    
H38   N6    S    
C19   H23   S    
H39   N7    S    
Cr6   O11   S    
C56   C78   S    
C64   H47   S    
C18   C19   S    
C73   C74   A    
H44   N9    S    
C61   C63   A    
H13   N11   S    
C9    C13   S    
C60   N4    S    
C92   O2    A    
H40   N7    S    
C6    C15   T    
C46   C47   A    
Cr4   O24   S    
C11   C17   S    
C88   C92   S    
C45   C56   S    
C8    C9    S    
C7    C17   T    
C46   H49   S    
C18   C26   S    
Cr3   O22   S    
C45   C67   S    
C56   C64   S    
C26   C29   S    
C59   C94   S    
C13   C14   S    
C4    C12   S    
C93   O23   A    
C43   C48   A    
C22   N10   S    
C92   O26   A    
C16   O1    A    
H8    N1    S    
C76   F1    S    
C77   C79   A    
Cr6   O10   S    
C36   N12   S    
C18   C22   S    
C71   F6    S    
Cr1   O22   S    
C4    O15   A    
C67   C78   S    
C42   C44   A    
C72   C75   A    
Cr5   O7    S    
C35   C48   A    
C49   N13   S    
C81   C83   A    
C44   C46   A    
C24   C30   S    
C85   C87   A    
C63   N3    S    
C74   C75   A    
C33   C43   A    
C35   C38   A    
H14   N11   S    
C84   C85   A    
Cr2   O14   S    
C3    C8    S    
Cr5   O25   S    
C53   C57   A    
C27   H45   S    
Cr2   O13   S    
H33   N4    S    
C3    C5    S    
C25   C26   S    
C82   C86   A    
H24   N16   S    
C22   C25   S    
C33   C37   A    
H42   N8    S    
C60   C61   A    
C51   C53   A    
H20   N14   S    
C41   C50   A    
C5    C9    S    
H35   N5    S    
Cr4   O5    S    
C21   C31   T    
Cr4   O23   S    
C77   H5    S    
C47   C48   A    
C60   C70   A    
C23   C34   S    
C39   C95   S    
C80   F10   S    
C64   C76   S    
C40   O12   A    
C52   O21   A    
C32   C50   A    
C5    C14   S    
C3    H7    S    
C59   C69   A    
C1    O13   A    
C23   C64   S    
C51   C70   A    
C67   H6    S    
H29   N2    S    
C55   C57   A    
Cr4   O11   S    
C72   C82   A    
C65   H4    S    
C22   C24   S    
H17   N13   S    
C58   C59   A    
C25   C27   S    
C42   C43   A    
C96   O5    A    
Cr3   O21   S    
Cr5   O8    S    
C19   C29   S    
H31   N3    S    
C54   C58   A    
C94   O6    A    
C54   C55   A    
C7    C16   S    
C75   F8    S    
C5    N8    S    
Cr2   O19   S    
C39   C49   A    
C78   N17   S    
Cr6   O3    S    
C29   N1    S    
C58   N15   S    
C69   N2    S    
C37   F4    S    
C80   C81   A    
C18   H34   S    
Cr5   O26   S    
C34   C67   S    
C1    O4    A    
C38   N11   S    
C62   C68   A    
C3    C11   S    
Cr3   O15   S    
C10   H12   S    
Cr6   O9    S    
C94   O7    A    
Cr2   O22   S    
H32   N4    S    
C32   C33   A    
Cr1   O17   S    
C4    O14   A    
C19   C24   S    
C9    C15   S    
C34   C89   S    
C79   C96   S    
C84   N6    S    
C2    C56   S    
C28   O19   A    
C55   H3    S    
H43   N9    S    
C71   C90   A    
C40   O20   A    
C14   N9    S    
C40   C50   S    
H9    N1    S    
Cr3   O20   S    
H19   N14   S    
C28   O18   A    
C83   F9    S    
C65   C66   A    
C80   C90   A    
C61   C62   A    
Cr4   O6    S    
H21   N15   S    
H11   N10   S    
C73   C86   A    
C91   O24   A    
C16   O16   A    
C10   C11   S    
C44   N14   S    
C23   N7    S    
C66   C69   A    
C26   C31   S    
H25   N16   S    
C88   C89   T    
C53   C62   A    
C8    C10   S    
H10   N10   S    
H41   N8    S    
C25   H46   S    
C57   F5    S    
C73   C77   A    
H36   N5    S    
C28   C90   S    
C71   C72   A    
C51   N16   S    
C13   H1    S    
C6    C91   S    
C95   O8    A    
C34   C76   S    
C32   H48   S    
H26   N17   S    
