data_mof_unit_43682.cif
_audit_creation_date              2012-12-10T20:55:06-0500
_audit_creation_method            fapswitch 2.2
_symmetry_space_group_name_H-M    P1
_symmetry_Int_Tables_number       1
_space_group_crystal_system       triclinic
_cell_length_a                    15.833592
_cell_length_b                    15.094674
_cell_length_c                    10.653366
_cell_angle_alpha                 90.236529
_cell_angle_beta                  90.03523
_cell_angle_gamma                 89.802523
_cell_volume                      2546.14819117

loop_
_atom_site_label
_atom_site_type_symbol
_atom_type_description
_atom_site_fract_x
_atom_site_fract_y
_atom_site_fract_z
_atom_type_partial_charge
C1    C     C_R   0.338974 0.500084 0.501026 0.899313
C2    C     C_R   0.661062 0.499779 0.499988 0.872684
C3    C     C_R   0.956474 0.439900 0.411664 0.176040
C4    C     C_R   0.044835 0.440085 0.412269 0.174194
C5    C     C_1   0.824184 0.495968 0.500928 -0.056714
C6    C     C_1   0.175948 0.496943 0.502843 -0.052138
C7    C     C_1   0.250699 0.499675 0.502297 -0.182476
C8    C     C_1   0.749390 0.498755 0.500469 -0.191389
C9    C     C_R   0.432234 0.953217 0.446267 0.078258
C10   C     C_R   0.570421 0.952226 0.547689 0.097224
C11   C     C_R   0.500871 0.905194 0.497718 -0.141354
C12   C     C_R   0.572577 0.046912 0.543536 0.371950
C13   C     C_R   0.431058 0.047658 0.450039 0.330157
C14   C     C_R   0.501670 0.094982 0.497461 -0.309113
C15   C     C_1   0.500200 0.807012 0.499210 0.145931
C16   C     C_1   0.500744 0.193015 0.499074 0.397349
C17   C     C_R   0.498600 0.499679 0.260106 0.934987
C18   C     C_R   0.499145 0.500175 0.739800 0.885969
C19   C     C_R   0.655637 0.517936 0.130995 -0.134867
C20   C     C_R   0.655596 0.519779 0.869751 -0.128158
C21   C     C_R   0.731340 0.527915 0.065867 -0.127380
C22   C     C_R   0.731328 0.528779 0.935327 -0.122376
C23   C     C_R   0.578118 0.509758 0.934581 0.063681
C24   C     C_R   0.578162 0.508783 0.065686 0.045451
C25   C     C_R   0.500491 0.498317 0.127984 -0.182364
C26   C     C_R   0.500361 0.500460 0.871775 -0.182451
C27   C     C_R   0.423526 0.487304 0.064663 0.155392
C28   C     C_R   0.423258 0.489105 0.934689 0.135261
C29   C     C_R   0.956005 0.540169 0.592579 -0.212006
C30   C     C_R   0.043233 0.540412 0.593127 -0.208000
C31   C     C_R   0.913077 0.491511 0.501439 0.058790
C32   C     C_R   0.087152 0.491973 0.502556 0.058109
H1    H     H_    0.658449 0.517229 0.232350 0.121620
H2    H     H_    0.658383 0.520714 0.768399 0.124338
H3    H     H_    0.790111 0.534974 0.116812 0.130142
H4    H     H_    0.790100 0.536415 0.884681 0.136265
H5    H     H_    0.076512 0.579433 0.662923 0.163893
H6    H     H_    0.921938 0.578971 0.662004 0.158611
N1    N     N_1   0.500000 0.270550 0.500000 -0.061074
N2    N     N_1   0.500000 0.729450 0.500000 -0.098160
O1    O     O_R   0.378020 0.573650 0.500040 -0.613177
O2    O     O_R   0.621980 0.573650 0.499960 -0.619668
O3    O     O_R   0.378020 0.426320 0.500100 -0.602234
O4    O     O_R   0.621980 0.426320 0.499900 -0.594027
O5    O     O_R   0.500000 0.573680 0.316780 -0.619524
O6    O     O_R   0.500000 0.573680 0.683220 -0.620999
O7    O     O_R   0.500000 0.426350 0.316830 -0.604622
O8    O     O_R   0.500000 0.426350 0.683170 -0.610333
Zn1   Zn    Zn3+2 0.500000 0.598370 0.500000 0.968185
Zn2   Zn    Zn3+2 0.500000 0.401630 0.500000 1.028820
N3    N     N_2   0.346168 0.479450 0.132644 -0.330021
H7    H     H_    0.295243 0.513128 0.095463 0.243206
C33   C     C_3   0.325576 0.391518 0.177319 -0.673932
H8    H     H_    0.308159 0.395277 0.277782 0.251842
H9    H     H_    0.379421 0.344549 0.166744 0.272721
H10   H     H_    0.270451 0.364953 0.125018 0.223542
N4    N     N_2   0.345017 0.483157 0.868399 -0.320452
H11   H     H_    0.338967 0.526741 0.794620 0.217090
C34   C     C_3   0.318872 0.394215 0.835726 -0.726454
H12   H     H_    0.252455 0.395685 0.802314 0.236350
H13   H     H_    0.322845 0.349701 0.918020 0.257037
H14   H     H_    0.359058 0.366890 0.759573 0.260590
N5    N     N_2   0.912397 0.392685 0.315996 -0.298803
H15   H     H_    0.867506 0.430524 0.270678 0.218093
C35   C     C_3   0.879310 0.307840 0.354620 -0.656251
H16   H     H_    0.828596 0.316905 0.425528 0.237254
H17   H     H_    0.930044 0.265842 0.394843 0.243829
H18   H     H_    0.852397 0.272958 0.271908 0.250753
N6    N     N_2   0.089940 0.393310 0.316925 -0.309314
H19   H     H_    0.133569 0.431978 0.270883 0.222002
C36   C     C_3   0.125465 0.309362 0.356028 -0.636955
H20   H     H_    0.152565 0.274516 0.273295 0.258083
H21   H     H_    0.076140 0.266607 0.397631 0.243038
H22   H     H_    0.176588 0.319764 0.425915 0.255281
S1    S     S_3+6 0.341147 0.107893 0.394697 0.021843
O9    O     O_2   0.362887 0.148538 0.270386 -0.285450
O10   O     O_2   0.264824 0.050049 0.378335 -0.256876
O11   O     O_3   0.316566 0.189817 0.495926 -0.565801
H23   H     H_    0.305678 0.159645 0.576675 0.347197
S2    S     S_3+6 0.663979 0.105290 0.596846 0.012926
O12   O     O_2   0.653385 0.124912 0.734378 -0.306432
O13   O     O_2   0.742666 0.050966 0.578034 -0.290564
O14   O     O_3   0.676479 0.201147 0.519053 -0.564259
H24   H     H_    0.717942 0.235271 0.569189 0.381433
N7    N     N_2   0.363627 0.906511 0.390757 -0.244169
H25   H     H_    0.344726 0.851165 0.439582 0.227076
C37   C     C_3   0.373752 0.889397 0.257918 -0.634601
H26   H     H_    0.315534 0.858128 0.220466 0.232316
H27   H     H_    0.427945 0.843810 0.241520 0.207308
H28   H     H_    0.384390 0.952286 0.206533 0.271441
N8    N     N_2   0.636172 0.903301 0.607712 -0.282585
H29   H     H_    0.662756 0.930209 0.687464 0.280855
C38   C     C_3   0.692663 0.852493 0.527847 -0.648507
H30   H     H_    0.757847 0.878853 0.535190 0.259484
H31   H     H_    0.672963 0.854610 0.427660 0.232912
H32   H     H_    0.693153 0.782452 0.559124 0.227909

loop_
_geom_bond_atom_site_label_1
_geom_bond_atom_site_label_2
_ccdc_geom_bond_type
C6    C32   S    
C37   H26   S    
N5    C35   S    
C38   H30   S    
C18   C26   S    
C28   N4    S    
O6    Zn1   S    
C19   C21   A    
C17   O5    A    
N4    C34   S    
N2    Zn1   S    
C23   C26   A    
N6    C36   S    
C9    C13   A    
C36   H22   S    
C9    N7    S    
C11   C15   S    
C1    O3    A    
C13   S1    S    
C2    O4    A    
C35   H17   S    
C29   H6    S    
C23   C24   A    
C20   H2    S    
O8    Zn2   S    
C34   H12   S    
C38   H31   S    
C21   C22   A    
S2    O14   S    
C18   O6    A    
O1    Zn1   S    
C4    N6    S    
C27   N3    S    
O7    Zn2   S    
C33   H9    S    
C34   H13   S    
N7    C37   S    
N3    H7    S    
C24   C25   A    
S2    O13   D    
C19   H1    S    
N8    H29   S    
C36   H21   S    
O11   H23   S    
O2    Zn1   S    
N7    H25   S    
C30   H5    S    
N3    C33   S    
S1    O9    D    
C29   C30   A    
N8    C38   S    
C9    C11   A    
O14   H24   S    
C20   C23   A    
O5    Zn1   S    
C35   H18   S    
C3    C31   A    
S1    O10   D    
C4    C32   A    
C10   C12   A    
C1    O1    A    
C20   C22   A    
C10   N8    S    
C38   H32   S    
C37   H27   S    
C14   C16   S    
C3    C4    A    
C33   H10   S    
O4    Zn2   S    
C34   H14   S    
C1    C7    S    
C2    C8    S    
C17   O7    A    
C12   C14   A    
S2    O12   D    
C18   O8    A    
C5    C8    T    
O3    Zn2   S    
C33   H8    S    
C6    C7    T    
C21   H3    S    
C3    N5    S    
C25   C27   A    
C22   H4    S    
C26   C28   A    
C17   C25   S    
C19   C24   A    
C36   H20   S    
C29   C31   A    
C30   C32   A    
N4    H11   S    
C2    O2    A    
C12   S2    S    
N6    H19   S    
S1    O11   S    
C15   N2    T    
C10   C11   A    
C16   N1    T    
N5    H15   S    
N1    Zn2   S    
C35   H16   S    
C37   H28   S    
C27   C28   A    
C13   C14   A    
C5    C31   S    
