data_mof_unit_47216.cif
_audit_creation_date              2012-12-10T18:42:42-0500
_audit_creation_method            fapswitch 2.2
_symmetry_space_group_name_H-M    P1
_symmetry_Int_Tables_number       1
_space_group_crystal_system       triclinic
_cell_length_a                    10.984899
_cell_length_b                    15.082403
_cell_length_c                    13.910832
_cell_angle_alpha                 88.564462
_cell_angle_beta                  91.248721
_cell_angle_gamma                 91.016979
_cell_volume                      2303.11643345

loop_
_atom_site_label
_atom_site_type_symbol
_atom_type_description
_atom_site_fract_x
_atom_site_fract_y
_atom_site_fract_z
_atom_type_partial_charge
C1    C     C_R   0.507054 0.329113 0.501365 0.843454
C2    C     C_R   0.503417 0.671028 0.498349 0.868984
C3    C     C_R   0.872110 0.487847 0.500796 -0.200125
C4    C     C_R   0.128187 0.480607 0.495708 -0.189537
C5    C     C_R   0.940824 0.470870 0.586807 -0.181980
C6    C     C_R   0.059347 0.487478 0.408466 -0.169568
C7    C     C_R   0.531273 0.083246 0.579668 -0.071942
C8    C     C_R   0.505621 0.916554 0.420202 -0.061651
C9    C     C_R   0.505608 0.174733 0.582412 -0.156472
C10   C     C_R   0.472649 0.825697 0.424809 -0.168091
C11   C     C_R   0.535957 0.232377 0.503764 -0.192516
C12   C     C_R   0.530172 0.768273 0.493577 -0.191227
C13   C     C_R   0.601874 0.197891 0.426895 0.406448
C14   C     C_R   0.627240 0.802250 0.551002 0.410131
C15   C     C_R   0.634654 0.107666 0.428017 0.322125
C16   C     C_R   0.656184 0.894035 0.549114 0.312631
C17   C     C_R   0.591987 0.049404 0.501147 -0.084237
C18   C     C_R   0.589077 0.951755 0.487632 -0.082899
C19   C     C_R   0.571342 0.567613 0.109874 0.157043
C20   C     C_R   0.412461 0.448485 0.891910 0.173242
C21   C     C_R   0.569778 0.562714 0.212624 0.443039
C22   C     C_R   0.423663 0.443102 0.789499 0.454249
C23   C     C_R   0.262300 0.492874 0.498777 0.829229
C24   C     C_R   0.738128 0.497327 0.500848 0.871946
C25   C     C_R   0.450396 0.431195 0.207284 0.401800
C26   C     C_R   0.550681 0.570579 0.789540 0.342171
C27   C     C_R   0.467492 0.426722 0.107222 0.327883
C28   C     C_R   0.528100 0.583006 0.887552 0.319941
C29   C     C_R   0.504688 0.503723 0.054593 0.002657
C30   C     C_R   0.484674 0.510874 0.943982 0.012440
C31   C     C_R   0.186821 0.569259 0.171068 -0.218591
C32   C     C_R   0.770004 0.403427 0.813646 -0.197342
C33   C     C_R   0.159546 0.566145 0.268447 0.454653
C34   C     C_R   0.814844 0.400820 0.720685 0.447770
C35   C     C_R   0.114844 0.486111 0.311187 -0.018896
C36   C     C_R   0.886841 0.473191 0.684811 -0.009120
C37   C     C_R   0.099124 0.409689 0.253746 -0.041526
C38   C     C_R   0.917903 0.544779 0.746563 -0.049435
C39   C     C_R   0.125742 0.415372 0.153689 0.037307
C40   C     C_R   0.868973 0.546375 0.840186 0.006001
C41   C     C_R   0.168404 0.495953 0.114310 -0.271550
C42   C     C_R   0.796249 0.474835 0.872412 -0.282517
C43   C     C_R   0.932092 0.493556 0.411556 0.403688
C44   C     C_R   0.067521 0.460730 0.581878 0.414155
Cu1   Cu    Cu3+1 0.500000 0.499990 0.596430 1.035628
Cu2   Cu    Cu3+1 0.500000 0.500010 0.403570 1.045289
H1    H     H_    0.187335 0.502826 0.038528 0.209765
H2    H     H_    0.757707 0.474721 0.943420 0.184905
H3    H     H_    0.218699 0.630139 0.137311 0.170541
H4    H     H_    0.713960 0.349121 0.841037 0.154338
N1    N     N_R   0.500000 0.500020 0.258690 -0.251281
N2    N     N_R   0.500000 0.499980 0.741310 -0.261430
O1    O     O_R   0.500010 0.371450 0.581430 -0.531813
O2    O     O_R   0.499990 0.628550 0.418570 -0.536885
O3    O     O_R   0.500010 0.371460 0.418560 -0.529781
O4    O     O_R   0.499990 0.628540 0.581440 -0.538611
O5    O     O_R   0.319640 0.500000 0.581430 -0.480351
O6    O     O_R   0.680360 0.500000 0.418570 -0.463222
O7    O     O_R   0.319640 0.500010 0.418560 -0.631419
O8    O     O_R   0.680360 0.499990 0.581440 -0.619637
O9    O     O_3   0.703965 0.077566 0.354331 -0.788536
H5    H     H_    0.737521 0.018810 0.372377 0.319038
O10   O     O_3   0.750642 0.924794 0.607468 -0.773096
H6    H     H_    0.772833 0.986536 0.588302 0.325154
O11   O     O_3   0.650028 0.626377 0.065201 -0.674526
H7    H     H_    0.646224 0.683839 0.098025 0.334104
O12   O     O_3   0.316626 0.407474 0.938298 -0.717819
H8    H     H_    0.310508 0.345432 0.918092 0.354112
O13   O     O_3   0.642146 0.617651 0.268348 -0.689880
H9    H     H_    0.716381 0.634895 0.232948 0.316952
O14   O     O_3   0.354684 0.385335 0.735267 -0.646767
H10   H     H_    0.284244 0.363418 0.771963 0.336748
O15   O     O_3   0.386389 0.363167 0.251328 -0.739011
H11   H     H_    0.342549 0.388856 0.304536 0.353307
O16   O     O_3   0.621968 0.633046 0.744051 -0.698781
H12   H     H_    0.672224 0.601242 0.699203 0.384378
O17   O     O_3   0.459687 0.346192 0.061904 -0.719198
H13   H     H_    0.446065 0.297310 0.109489 0.355040
O18   O     O_3   0.530531 0.667280 0.924396 -0.695035
H14   H     H_    0.548788 0.712110 0.873232 0.360398
O19   O     O_3   0.173650 0.643705 0.317960 -0.738479
H15   H     H_    0.152186 0.634823 0.386109 0.317563
O20   O     O_3   0.786718 0.326161 0.668406 -0.767159
H16   H     H_    0.827731 0.329187 0.605877 0.324036
C45   C     C_R   0.052234 0.325375 0.298000 0.123913
C46   C     C_R   0.114885 0.285130 0.376408 -0.148014
C47   C     C_R   0.078204 0.201444 0.411456 -0.181959
C48   C     C_R   0.981563 0.156143 0.366684 -0.092222
C49   C     C_R   0.918809 0.195934 0.289015 -0.091753
C50   C     C_R   0.950484 0.281503 0.257394 -0.101624
H17   H     H_    0.194088 0.317109 0.408684 0.125027
H18   H     H_    0.127488 0.170312 0.471003 0.123588
H19   H     H_    0.956412 0.089891 0.391471 0.137114
H20   H     H_    0.847188 0.160143 0.251448 0.173761
H21   H     H_    0.900037 0.311475 0.197602 0.140438
C51   C     C_R   0.011344 0.612151 0.716525 0.118531
C52   C     C_R   0.993796 0.664753 0.632686 -0.161874
C53   C     C_R   0.088309 0.718952 0.597855 -0.167181
C54   C     C_R   0.200848 0.721456 0.646558 -0.127395
C55   C     C_R   0.218146 0.671398 0.731515 -0.087376
C56   C     C_R   0.123840 0.616979 0.766573 -0.086294
H22   H     H_    0.908577 0.661177 0.592450 0.161371
H23   H     H_    0.074839 0.757774 0.532148 0.137568
H24   H     H_    0.274733 0.761994 0.618280 0.130402
H25   H     H_    0.305323 0.673555 0.769257 0.136277
H26   H     H_    0.139912 0.576110 0.830610 0.129778
C57   C     C_R   0.107051 0.339637 0.087677 0.162709
C58   C     C_R   0.041063 0.351052 0.000453 -0.132464
C59   C     C_R   0.015640 0.278843 0.941805 -0.141010
C60   C     C_R   0.054531 0.194365 0.969956 -0.138504
C61   C     C_R   0.123017 0.182611 0.054870 -0.191163
C62   C     C_R   0.152107 0.255283 0.111999 -0.111088
H27   H     H_    0.007949 0.415415 0.978150 0.124411
H28   H     H_    0.964689 0.288139 0.875011 0.143265
H29   H     H_    0.033132 0.138203 0.925319 0.126119
H30   H     H_    0.154051 0.117149 0.075961 0.134034
H31   H     H_    0.206845 0.245698 0.176604 0.150284
C63   C     C_R   0.887539 0.623571 0.904079 0.137065
C64   C     C_R   0.867506 0.710397 0.868623 -0.068937
C65   C     C_R   0.881447 0.782695 0.929054 -0.129872
C66   C     C_R   0.914746 0.769210 0.025687 -0.138586
C67   C     C_R   0.933695 0.683358 0.062128 -0.116448
C68   C     C_R   0.919542 0.610838 0.001954 -0.098453
H32   H     H_    0.839405 0.722186 0.794548 0.152090
H33   H     H_    0.865592 0.849185 0.901036 0.129671
H34   H     H_    0.924883 0.825225 0.072502 0.115667
H35   H     H_    0.958047 0.672909 0.137320 0.133088
H36   H     H_    0.932425 0.544996 0.032296 0.117289
O21   O     O_3   0.864475 0.504889 0.327034 -0.690974
H37   H     H_    0.910184 0.542875 0.280813 0.312394
O22   O     O_3   0.134738 0.433853 0.661935 -0.702230
H38   H     H_    0.082660 0.398168 0.706020 0.310829
C69   C     C_R   0.490008 0.021613 0.658315 0.163992
C70   C     C_R   0.374764 0.980092 0.652629 -0.155381
C71   C     C_R   0.334993 0.924465 0.727910 -0.152359
C72   C     C_R   0.410774 0.908464 0.808244 -0.107777
C73   C     C_R   0.525896 0.949162 0.814086 -0.122259
C74   C     C_R   0.565212 0.006039 0.739700 -0.084546
H39   H     H_    0.315231 0.991880 0.590820 0.109448
H40   H     H_    0.245117 0.894121 0.724220 0.138277
H41   H     H_    0.380042 0.864909 0.866150 0.130946
H42   H     H_    0.584353 0.937063 0.876509 0.124039
H43   H     H_    0.653973 0.038104 0.745444 0.130144
C75   C     C_R   0.458820 0.974428 0.340020 0.177898
C76   C     C_R   0.366345 0.035309 0.354626 -0.162704
C77   C     C_R   0.331136 0.093952 0.280288 -0.126080
C78   C     C_R   0.387328 0.091834 0.191116 -0.114842
C79   C     C_R   0.477250 0.029964 0.175489 -0.124345
C80   C     C_R   0.513022 0.971404 0.249631 -0.083477
H44   H     H_    0.323672 0.038597 0.423766 0.110428
H45   H     H_    0.261344 0.141544 0.292434 0.145580
H46   H     H_    0.362156 0.138242 0.134046 0.122514
H47   H     H_    0.520435 0.028237 0.106375 0.120932
H48   H     H_    0.585064 0.925117 0.237542 0.110842
C81   C     C_R   0.444739 0.204678 0.669039 0.228750
C82   C     C_R   0.516303 0.217469 0.752611 -0.091784
C83   C     C_R   0.463941 0.209777 0.843013 -0.167087
C84   C     C_R   0.340084 0.189088 0.850418 -0.140836
C85   C     C_R   0.266736 0.181463 0.767549 -0.144833
C86   C     C_R   0.318721 0.189817 0.676872 -0.093853
H49   H     H_    0.614097 0.225178 0.748075 0.158728
H50   H     H_    0.520209 0.216405 0.907358 0.155724
H51   H     H_    0.301242 0.179981 0.920604 0.153966
H52   H     H_    0.170512 0.166354 0.773502 0.130334
H53   H     H_    0.263101 0.176883 0.613437 0.095763
C87   C     C_R   0.376381 0.796338 0.356162 0.175327
C88   C     C_R   0.410847 0.771105 0.264305 -0.066168
C89   C     C_R   0.329444 0.778872 0.186122 -0.165727
C90   C     C_R   0.212102 0.810211 0.199203 -0.068509
C91   C     C_R   0.175558 0.832945 0.290864 -0.060828
C92   C     C_R   0.257087 0.825608 0.369233 -0.128226
H54   H     H_    0.504187 0.754136 0.251422 0.144362
H55   H     H_    0.358388 0.762611 0.114881 0.134975
H56   H     H_    0.149730 0.816942 0.138326 0.107961
H57   H     H_    0.085060 0.857902 0.300864 0.105431
H58   H     H_    0.230805 0.849675 0.438362 0.096062
O23   O     O_3   0.636526 0.254583 0.352296 -0.685816
H59   H     H_    0.656479 0.219891 0.295493 0.357202
O24   O     O_3   0.696774 0.743002 0.604491 -0.736411
H60   H     H_    0.761889 0.774666 0.640718 0.360614

loop_
_geom_bond_atom_site_label_1
_geom_bond_atom_site_label_2
_ccdc_geom_bond_type
C40   C63   S    
C47   C48   A    
Cu1   O8    S    
C83   C84   A    
Cu2   O7    S    
C27   C29   A    
O15   H11   S    
C20   O12   S    
C78   C79   A    
C1    C11   S    
C73   H42   S    
C2    C12   S    
O19   H15   S    
C71   C72   A    
C39   C41   A    
C20   C30   A    
C45   C46   A    
C58   C59   A    
C44   O22   S    
C23   O7    A    
C3    C43   A    
C55   H25   S    
C72   H41   S    
O20   H16   S    
C37   C45   S    
C82   C83   A    
C35   C37   A    
C7    C69   S    
C74   H43   S    
C62   H31   S    
C91   C92   A    
C53   H23   S    
C53   C54   A    
C5    C36   S    
C52   C53   A    
C49   H20   S    
C6    C35   S    
C23   O5    A    
C90   C91   A    
C67   H35   S    
C28   O18   S    
C1    O1    A    
C63   C64   A    
O16   H12   S    
C60   C61   A    
C61   C62   A    
Cu1   O4    S    
C7    C17   A    
Cu2   O3    S    
C52   H22   S    
C57   C58   A    
C31   C33   A    
C61   H30   S    
C16   O10   S    
C25   O15   S    
C14   O24   S    
C24   O8    A    
O9    H5    S    
C40   C42   A    
C54   H24   S    
Cu1   O1    S    
C87   C92   A    
C64   H32   S    
C51   C56   A    
Cu2   O6    S    
C3    C24   S    
C89   H55   S    
C70   H39   S    
C31   H3    S    
C76   C77   A    
C7    C9    A    
C91   H57   S    
C15   O9    S    
C71   H40   S    
C45   C50   A    
O12   H8    S    
C50   H21   S    
C79   C80   A    
C4    C6    A    
C2    O2    A    
C49   C50   A    
C88   C89   A    
C4    C23   S    
C65   H33   S    
C72   C73   A    
C4    C44   A    
Cu1   N2    S    
C3    C5    A    
O17   H13   S    
Cu2   N1    S    
C8    C18   A    
O18   H14   S    
C21   O13   S    
C77   H45   S    
C32   C34   A    
C58   H27   S    
C90   H56   S    
C39   C57   S    
C80   H48   S    
C25   N1    A    
C29   C30   S    
C26   N2    A    
C85   C86   A    
C43   O21   S    
C10   C87   S    
Cu1   O5    S    
C51   C52   A    
Cu2   O2    S    
C17   C18   S    
C41   H1    S    
C8    C75   S    
C57   C62   A    
C42   H2    S    
C86   H53   S    
C69   C74   A    
C9    C11   A    
C32   H4    S    
C66   C67   A    
C70   C71   A    
C10   C12   A    
C59   H28   S    
C84   H51   S    
C8    C10   A    
C89   C90   A    
C5    C44   A    
C12   C14   A    
C82   H49   S    
O11   H7    S    
C6    C43   A    
C13   C15   A    
C84   C85   A    
C14   C16   A    
C79   H47   S    
O22   H38   S    
C19   C29   A    
C22   O14   S    
C21   N1    A    
C65   C66   A    
C22   N2    A    
C77   C78   A    
C92   H58   S    
C56   H26   S    
C15   C17   A    
C48   H19   S    
C31   C41   A    
C75   C80   A    
C19   C21   A    
C81   C86   A    
C46   C47   A    
C16   C18   A    
C76   H44   S    
C20   C22   A    
C75   C76   A    
C27   O17   S    
C64   C65   A    
C88   H54   S    
O24   H60   S    
C25   C27   A    
C73   C74   A    
C26   C28   A    
C54   C55   A    
C46   H17   S    
C26   O16   S    
C28   C30   A    
C78   H46   S    
O21   H37   S    
C66   H34   S    
C37   C39   A    
C2    O4    A    
C59   C60   A    
C38   C40   A    
C11   C13   A    
C68   H36   S    
C69   C70   A    
C87   C88   A    
C13   O23   S    
C60   H29   S    
C36   C38   A    
C55   C56   A    
C33   C35   A    
C19   O11   S    
C34   C36   A    
C63   C68   A    
C1    O3    A    
O13   H9    S    
O10   H6    S    
Cu1   Cu2   S    
O14   H10   S    
C48   C49   A    
C9    C81   S    
C24   O6    A    
O23   H59   S    
C34   O20   S    
C38   C51   S    
C81   C82   A    
C32   C42   A    
C85   H52   S    
C67   C68   A    
C47   H18   S    
C33   O19   S    
C83   H50   S    
