data_mof_unit_46278.cif
_audit_creation_date              2012-12-10T20:26:32-0500
_audit_creation_method            fapswitch 2.2
_symmetry_space_group_name_H-M    P1
_symmetry_Int_Tables_number       1
_space_group_crystal_system       triclinic
_cell_length_a                    10.635328
_cell_length_b                    10.668926
_cell_length_c                    9.862259
_cell_angle_alpha                 89.140223
_cell_angle_beta                  90.588377
_cell_angle_gamma                 90.927992
_cell_volume                      1118.71713733

loop_
_atom_site_label
_atom_site_type_symbol
_atom_type_description
_atom_site_fract_x
_atom_site_fract_y
_atom_site_fract_z
_atom_type_partial_charge
C1    C     C_R   0.507716 0.260265 0.501098 0.919137
C2    C     C_R   0.539189 0.130817 0.504152 -0.245235
C3    C     C_R   0.588322 0.072622 0.388910 0.389471
C4    C     C_R   0.584073 0.941177 0.382549 0.280236
C5    C     C_R   0.537386 0.872771 0.497786 -0.301916
C6    C     C_R   0.525146 0.934995 0.620210 -0.013790
C7    C     C_3   0.431225 0.923387 0.732271 0.396168
C8    C     C_3   0.433614 0.066092 0.735670 -0.440848
C9    C     C_R   0.403833 0.444373 0.071514 0.174455
C10   C     C_R   0.602452 0.540111 0.072050 -0.014168
C11   C     C_R   0.601838 0.541871 0.928186 -0.149617
C12   C     C_R   0.262068 0.496179 0.498276 0.914423
C13   C     C_R   0.403976 0.442785 0.929119 0.211986
C14   C     C_3   0.267249 0.473981 0.923202 0.283282
C15   C     C_3   0.269420 0.478070 0.077697 -0.585127
C16   C     C_R   0.509012 0.740480 0.498636 0.988929
C17   C     C_R   0.736817 0.514669 0.500921 0.844073
C18   C     C_2   0.934830 0.561264 0.395597 -0.326458
C19   C     C_2   0.863946 0.562838 0.505954 0.403147
C20   C     C_2   0.070126 0.575033 0.414585 0.432367
C21   C     C_2   0.128808 0.484151 0.486607 0.184767
C22   C     C_R   0.526979 0.062113 0.623735 -0.007720
H1    H     H_    0.897957 0.533354 0.297219 0.146619
H2    H     H_    0.475850 0.103433 0.830696 0.195825
H3    H     H_    0.684841 0.573512 0.125716 0.199192
H4    H     H_    0.682653 0.578983 0.874320 0.172947
H5    H     H_    0.249267 0.565145 0.870562 0.092647
H6    H     H_    0.256001 0.573837 0.117413 0.199953
H7    H     H_    0.212462 0.403033 0.128403 0.244417
H8    H     H_    0.471976 0.875972 0.823879 0.115289
H9    H     H_    0.343792 0.109679 0.703990 0.258298
N1    N     N_R   0.499170 0.499140 0.142800 -0.095655
N2    N     N_R   0.499170 0.499180 0.857150 -0.147114
O1    O     O_R   0.500020 0.316790 0.614690 -0.597892
O2    O     O_R   0.500000 0.316760 0.385350 -0.578013
O3    O     O_R   0.319080 0.500020 0.614640 -0.592889
O4    O     O_R   0.319070 0.499980 0.385300 -0.617130
O5    O     O_R   0.500000 0.683240 0.614650 -0.630402
O6    O     O_R   0.499980 0.683210 0.385310 -0.524641
O7    O     O_R   0.680930 0.500020 0.614700 -0.600097
O8    O     O_R   0.680920 0.499980 0.385360 -0.647968
Zn1   Zn    Zn3+2 0.500010 0.500020 0.653130 0.994827
Zn2   Zn    Zn3+2 0.499990 0.499980 0.346870 1.033474
O9    O     O_3   0.195763 0.371262 0.874372 -0.557894
C23   C     C_3   0.067428 0.402281 0.873680 -0.105122
H10   H     H_    0.048606 0.476955 0.797045 0.209316
H11   H     H_    0.035172 0.431975 0.975081 0.107567
H12   H     H_    0.011263 0.317740 0.846624 0.231587
O10   O     O_3   0.914283 0.600099 0.629621 -0.617420
C24   C     C_3   0.879724 0.725120 0.651704 -0.351686
H13   H     H_    0.775776 0.735868 0.651230 0.155509
H14   H     H_    0.923430 0.789603 0.575299 0.187260
H15   H     H_    0.914864 0.753117 0.753252 0.196455
O11   O     O_3   0.136214 0.685283 0.379953 -0.612421
C25   C     C_3   0.077865 0.752066 0.272778 -0.216625
H16   H     H_    0.993646 0.800740 0.309436 0.184990
H17   H     H_    0.053603 0.690323 0.185992 0.137289
H18   H     H_    0.144839 0.824996 0.234990 0.200450
S1    S     S_3+6 0.066656 0.328722 0.503982 -0.022200
O12   O     O_2   0.951918 0.323942 0.591372 -0.317079
O13   O     O_2   0.031354 0.281214 0.365794 -0.384087
O14   O     O_3   0.175546 0.234541 0.573641 -0.522644
H19   H     H_    0.230680 0.211999 0.497725 0.346927
O15   O     O_3   0.628447 0.143248 0.278300 -0.567138
C26   C     C_3   0.751049 0.189305 0.306203 -0.055495
H20   H     H_    0.818038 0.111262 0.322523 0.177750
H21   H     H_    0.753348 0.251611 0.395557 0.152976
H22   H     H_    0.783738 0.245624 0.217513 0.179811
S2    S     S_3+6 0.636909 0.867633 0.232474 0.029398
O16   O     O_2   0.525402 0.816013 0.155488 -0.279085
O17   O     O_2   0.708242 0.955772 0.139999 -0.266413
O18   O     O_3   0.732608 0.750589 0.277598 -0.595619
H23   H     H_    0.778190 0.781600 0.358682 0.302141
O19   O     O_3   0.315155 0.873741 0.684856 -0.558901
C27   C     C_3   0.233679 0.855771 0.795466 -0.233582
H24   H     H_    0.211047 0.946656 0.842569 0.179247
H25   H     H_    0.273954 0.790461 0.872786 0.132537
H26   H     H_    0.144517 0.813056 0.757827 0.192948

loop_
_geom_bond_atom_site_label_1
_geom_bond_atom_site_label_2
_ccdc_geom_bond_type
C25   H16   S    
O3    Zn1   S    
O1    Zn1   S    
C7    C8    S    
C3    O15   S    
N2    Zn1   S    
C21   S1    S    
C5    C6    A    
C6    C22   A    
C1    C2    S    
C12   O4    A    
S2    O17   D    
C9    C13   A    
C5    C16   S    
C9    N1    A    
C17   C19   S    
C26   H21   S    
C2    C22   A    
C8    C22   S    
C14   H5    S    
C12   O3    A    
O2    Zn2   S    
O18   H23   S    
O7    Zn1   S    
S1    O12   D    
C7    H8    S    
C13   C14   S    
O8    Zn2   S    
C4    S2    S    
C1    O1    A    
C15   H7    S    
C7    O19   S    
C23   H11   S    
S1    O13   D    
C24   H15   S    
O19   C27   S    
C18   H1    S    
C11   N2    A    
C20   O11   S    
C18   C19   D    
O6    Zn2   S    
C11   H4    S    
C23   H10   S    
C12   C21   S    
C17   O7    A    
O4    Zn2   S    
S2    O18   S    
C27   H24   S    
C13   N2    A    
O14   H19   S    
C19   O10   S    
C24   H14   S    
C26   H22   S    
C24   H13   S    
C27   H25   S    
C10   H3    S    
C26   H20   S    
C25   H17   S    
C3    C4    A    
O9    C23   S    
C1    O2    A    
C14   O9    S    
C23   H12   S    
O11   C25   S    
S1    O14   S    
C8    H9    S    
C4    C5    A    
O5    Zn1   S    
C6    C7    S    
O15   C26   S    
C2    C3    A    
C9    C15   S    
C15   H6    S    
C8    H2    S    
N1    Zn2   S    
C18   C20   S    
S2    O16   D    
C27   H26   S    
C17   O8    A    
C10   C11   A    
C16   O6    A    
C10   N1    A    
C20   C21   D    
O10   C24   S    
C25   H18   S    
C14   C15   S    
C16   O5    A    
