data_mof_unit_39021.cif
_audit_creation_date              2012-12-10T18:01:14-0500
_audit_creation_method            fapswitch 2.2
_symmetry_space_group_name_H-M    P1
_symmetry_Int_Tables_number       1
_space_group_crystal_system       triclinic
_cell_length_a                    9.62583
_cell_length_b                    10.866996
_cell_length_c                    17.222027
_cell_angle_alpha                 93.251586
_cell_angle_beta                  86.055232
_cell_angle_gamma                 89.667058
_cell_volume                      1794.24373227

loop_
_atom_site_label
_atom_site_type_symbol
_atom_type_description
_atom_site_fract_x
_atom_site_fract_y
_atom_site_fract_z
_atom_type_partial_charge
C1    C     C_R   0.499662 0.737532 0.499032 0.881767
C2    C     C_R   0.500337 0.262467 0.500966 0.879862
C3    C     C_R   0.624689 0.934980 0.502528 -0.248756
C4    C     C_R   0.375307 0.065019 0.497452 -0.247900
C5    C     C_R   0.625988 0.062388 0.505646 0.651753
C6    C     C_R   0.374007 0.937609 0.494344 0.650341
C7    C     C_R   0.501022 0.128496 0.501842 -0.288079
C8    C     C_R   0.498975 0.871502 0.498147 -0.286953
C9    C     C_R   0.918453 0.578578 0.550084 0.069391
C10   C     C_R   0.081550 0.421431 0.449912 0.077705
C11   C     C_R   0.067262 0.582328 0.548273 0.015309
C12   C     C_R   0.932742 0.417685 0.451721 0.019466
C13   C     C_R   0.481970 0.497281 0.649863 0.790362
C14   C     C_R   0.517987 0.503292 0.350180 0.779392
C15   C     C_R   0.473714 0.485668 0.734252 -0.065504
C16   C     C_R   0.525833 0.518169 0.266114 -0.068750
C17   C     C_R   0.591449 0.445927 0.769737 -0.156373
C18   C     C_R   0.408211 0.560996 0.231837 -0.161749
C19   C     C_R   0.586071 0.434671 0.849537 -0.070426
C20   C     C_R   0.413265 0.576943 0.152565 -0.141289
C21   C     C_R   0.463660 0.464367 0.895297 0.162180
C22   C     C_R   0.535185 0.548903 0.106004 -0.046483
C23   C     C_R   0.342640 0.501886 0.860598 0.050504
C24   C     C_R   0.656005 0.507903 0.139465 0.017611
C25   C     C_R   0.349068 0.511524 0.779511 -0.150660
C26   C     C_R   0.650019 0.493694 0.220156 -0.146350
C27   C     C_2   0.468697 0.461399 0.980121 -0.130165
C28   C     C_2   0.528684 0.555084 0.021521 -0.174484
Cu1   Cu    Cu3+1 0.359340 0.499980 0.500000 0.987819
Cu2   Cu    Cu3+1 0.640660 0.500020 0.500000 0.987958
H1    H     H_    0.688058 0.423196 0.735829 0.161284
H2    H     H_    0.311931 0.582735 0.266319 0.164188
H3    H     H_    0.741031 0.461554 0.247019 0.172616
H4    H     H_    0.257982 0.541340 0.751765 0.172819
H5    H     H_    0.320630 0.608256 0.126841 0.159797
H6    H     H_    0.678672 0.405565 0.876202 0.145112
H7    H     H_    0.722843 0.886563 0.503650 0.259817
H8    H     H_    0.277156 0.113437 0.496322 0.260742
N1    N     N_R   0.147930 0.499970 0.499980 -0.242840
N2    N     N_R   0.852070 0.500030 0.500020 -0.242833
O1    O     O_R   0.381260 0.680340 0.500000 -0.549417
O2    O     O_R   0.618740 0.319660 0.500000 -0.548509
O3    O     O_R   0.618830 0.680370 0.500010 -0.560300
O4    O     O_R   0.381170 0.319630 0.499990 -0.559077
O5    O     O_R   0.367440 0.500000 0.613600 -0.624847
O6    O     O_R   0.632560 0.500000 0.386400 -0.624693
O7    O     O_R   0.605010 0.500030 0.613600 -0.602881
O8    O     O_R   0.394990 0.499970 0.386400 -0.603507
C29   C     C_2   0.585252 0.669755 0.987996 0.420283
H9    H     H_    0.641776 0.733725 0.024603 0.091902
O9    O     O_2   0.567863 0.696104 0.921377 -0.513415
C30   C     C_2   0.413285 0.349188 0.017164 0.373854
H10   H     H_    0.419416 0.337662 0.078960 0.108716
O10   O     O_2   0.360042 0.267181 0.978215 -0.504533
C31   C     C_2   0.211524 0.533710 0.908324 0.423896
H11   H     H_    0.206390 0.529398 0.971221 0.083548
O11   O     O_2   0.107055 0.565264 0.877926 -0.538861
C32   C     C_2   0.786492 0.477446 0.090837 0.364721
H12   H     H_    0.791352 0.485701 0.028243 0.087861
O12   O     O_2   0.890740 0.442638 0.120141 -0.534227
F1    F     F_    0.749323 0.119733 0.513843 -0.592592
F2    F     F_    0.250667 0.880262 0.486163 -0.594711
C33   C     C_2   0.836090 0.647380 0.613903 0.528712
H13   H     H_    0.815114 0.605317 0.669056 0.039870
O13   O     O_2   0.797652 0.753021 0.607112 -0.495827
C34   C     C_2   0.163924 0.352654 0.386087 0.520442
H14   H     H_    0.185106 0.394823 0.330981 0.029133
O14   O     O_2   0.202213 0.246956 0.392831 -0.503616
C35   C     C_2   0.133317 0.681084 0.596323 0.475425
H15   H     H_    0.228893 0.667132 0.622977 0.097009
O15   O     O_2   0.081152 0.783955 0.605813 -0.449991
C36   C     C_2   0.866702 0.318956 0.403649 0.468870
H16   H     H_    0.771274 0.332997 0.376859 0.093944
O16   O     O_2   0.918743 0.216027 0.394268 -0.455379

loop_
_geom_bond_atom_site_label_1
_geom_bond_atom_site_label_2
_ccdc_geom_bond_type
C12   N2    A    
C34   O14   D    
C31   H11   S    
C11   C35   S    
C23   C31   S    
Cu1   Cu2   S    
C1    C8    S    
C5    C7    A    
C28   C29   S    
C26   H3    S    
C2    C7    S    
C13   C15   S    
Cu2   O6    S    
C25   H4    S    
Cu1   O1    S    
Cu1   N1    S    
C33   O13   D    
C34   H14   S    
C21   C27   S    
C5    F1    S    
C14   O6    A    
C31   O11   D    
C22   C28   S    
C30   H10   S    
C11   N1    A    
C9    C11   A    
C6    F2    S    
C10   N1    A    
C10   C12   A    
C2    O2    A    
C4    C7    A    
C6    C8    A    
C22   C24   A    
C1    O1    A    
C19   C21   A    
C30   O10   D    
C20   H5    S    
C3    C8    A    
C18   C20   A    
C19   H6    S    
C10   C34   S    
Cu1   O4    S    
C12   C36   S    
C35   H15   S    
C17   H1    S    
C14   C16   S    
Cu2   O3    S    
C15   C25   A    
C4    C6    A    
C18   H2    S    
C9    N2    A    
Cu1   O8    S    
C32   O12   D    
C33   H13   S    
C24   C32   S    
C3    C5    A    
Cu2   O7    S    
Cu2   N2    S    
C23   C25   A    
C27   C30   S    
C13   O5    A    
C36   O16   D    
C29   H9    S    
Cu1   O5    S    
C27   C28   D    
C35   O15   D    
Cu2   O2    S    
C4    H8    S    
C14   O8    A    
C17   C19   A    
C32   H12   S    
C15   C17   A    
C9    C33   S    
C13   O7    A    
C21   C23   A    
C1    O3    A    
C16   C18   A    
C2    O4    A    
C24   C26   A    
C3    H7    S    
C20   C22   A    
C36   H16   S    
C29   O9    D    
C16   C26   A    
