data_mof_unit_28915.cif
_audit_creation_date              2012-12-10T17:11:03-0500
_audit_creation_method            fapswitch 2.2
_symmetry_space_group_name_H-M    P1
_symmetry_Int_Tables_number       1
_space_group_crystal_system       triclinic
_cell_length_a                    11.657884
_cell_length_b                    13.030156
_cell_length_c                    13.451004
_cell_angle_alpha                 91.909544
_cell_angle_beta                  76.471675
_cell_angle_gamma                 99.679331
_cell_volume                      1958.25146658

loop_
_atom_site_label
_atom_site_type_symbol
_atom_type_description
_atom_site_fract_x
_atom_site_fract_y
_atom_site_fract_z
_atom_type_partial_charge
C1    C     C_R   0.520502 0.700894 0.501488 0.890960
C2    C     C_R   0.445801 0.487011 0.975942 0.082248
C3    C     C_R   0.471100 0.461677 0.870456 0.081164
C4    C     C_R   0.530903 0.475844 0.033823 0.073882
C5    C     C_R   0.633736 0.431313 0.988131 0.162292
C6    C     C_R   0.649572 0.396163 0.887765 -0.237312
C7    C     C_R   0.568730 0.409598 0.830270 -0.198339
C8    C     C_R   0.517366 0.507983 0.135851 -0.243609
C9    C     C_R   0.700242 0.448939 0.146650 -0.191304
C10   C     C_R   0.396980 0.488052 0.808347 -0.099196
C11   C     C_R   0.467422 0.186275 0.497550 -0.072584
C12   C     C_R   0.435833 0.491348 0.695983 0.782174
C13   C     C_R   0.531417 0.814302 0.502524 -0.266603
C14   C     C_R   0.650753 0.983807 0.513224 0.604089
C15   C     C_R   0.639236 0.875938 0.512031 -0.347730
C16   C     C_R   0.434208 0.861700 0.494174 0.534579
C17   C     C_R   0.445092 0.969736 0.495337 -0.019885
C18   C     C_R   0.554094 0.031316 0.504902 -0.040904
C19   C     C_R   0.564303 0.139308 0.505925 -0.173669
C20   C     C_R   0.359622 0.124891 0.488128 -0.208640
C21   C     C_R   0.348479 0.017256 0.487028 -0.103027
C22   C     C_R   0.944160 0.594333 0.597550 -0.312846
C23   C     C_R   0.479287 0.299296 0.498547 0.798186
C24   C     C_R   0.825461 0.585533 0.587970 0.097559
C25   C     C_R   0.858028 0.459430 0.457729 0.036665
C26   C     C_R   0.978206 0.465685 0.464621 0.064798
C27   C     C_R   0.021688 0.534139 0.535543 0.056956
C28   C     C_R   0.141900 0.540466 0.542367 0.083890
C29   C     C_R   0.174445 0.414311 0.412173 0.086191
C30   C     C_R   0.055711 0.405439 0.402662 -0.317648
C31   C     C_R   0.563528 0.502579 0.304136 0.800583
C32   C     C_R   0.718403 0.419974 0.044270 -0.188764
C33   C     C_R   0.597953 0.490636 0.193206 -0.046124
C34   C     C_R   0.289503 0.522798 0.854208 -0.182538
C35   C     C_R   0.258250 0.536975 0.959090 -0.143174
C36   C     C_R   0.335882 0.521477 0.019366 -0.177380
Cu1   Cu    Cu3+1 0.386470 0.492430 0.492410 0.972035
Cu2   Cu    Cu3+1 0.613530 0.507570 0.507590 0.940581
H1    H     H_    0.763150 0.434579 0.190346 0.148365
H2    H     H_    0.283790 0.159925 0.481482 0.166330
H3    H     H_    0.264230 0.971600 0.479632 0.197241
H4    H     H_    0.714968 0.840744 0.518655 0.210918
H5    H     H_    0.176576 0.592822 0.596564 0.137531
H6    H     H_    0.233694 0.367619 0.364209 0.129693
H7    H     H_    0.974925 0.647726 0.652898 0.149462
H8    H     H_    0.024917 0.351980 0.347373 0.146953
H9    H     H_    0.766189 0.632170 0.635979 0.135277
H10   H     H_    0.724915 0.357925 0.853391 0.154116
H11   H     H_    0.823342 0.407065 0.403542 0.119313
H12   H     H_    0.796904 0.385874 0.009739 0.136913
H13   H     H_    0.443616 0.545578 0.173718 0.152531
H14   H     H_    0.230721 0.541920 0.808532 0.150980
H15   H     H_    0.305645 0.535088 0.099924 0.132711
H16   H     H_    0.174743 0.563380 0.993668 0.144464
H17   H     H_    0.582662 0.376067 0.754740 0.177384
H18   H     H_    0.647630 0.186821 0.513247 0.201929
N1    N     N_R   0.215880 0.481050 0.481000 -0.186879
N2    N     N_R   0.784100 0.518950 0.519000 -0.186703
O1    O     O_R   0.419710 0.645650 0.494620 -0.514192
O2    O     O_R   0.611450 0.658430 0.507430 -0.598399
O3    O     O_R   0.357340 0.490460 0.641450 -0.589553
O4    O     O_R   0.549080 0.503250 0.654260 -0.592102
O5    O     O_R   0.388550 0.341570 0.492570 -0.589794
O6    O     O_R   0.580290 0.354350 0.505380 -0.598686
O7    O     O_R   0.450920 0.496750 0.345740 -0.588100
O8    O     O_R   0.642660 0.509540 0.358550 -0.586781
F1    F     F_    0.756182 0.041434 0.522505 -0.669672
F2    F     F_    0.328870 0.803522 0.484771 -0.668807

loop_
_geom_bond_atom_site_label_1
_geom_bond_atom_site_label_2
_ccdc_geom_bond_type
C19   H18   S    
C31   O8    A    
Cu1   O3    S    
C14   F1    S    
C31   C33   S    
Cu1   N1    S    
C29   C30   A    
C16   F2    S    
C12   O4    A    
C14   C18   A    
C28   H5    S    
C2    C4    A    
C35   C36   A    
C9    C32   A    
C7    H17   S    
C4    C8    A    
C5    C32   A    
C32   H12   S    
C23   O5    A    
C17   C18   A    
C10   C34   A    
C3    C10   A    
C28   N1    A    
C35   H16   S    
C9    C33   A    
C12   O3    A    
C8    H13   S    
C11   C19   A    
C26   C27   A    
Cu1   O1    S    
C6    H10   S    
Cu2   O2    S    
C4    C5    A    
C10   C12   S    
C22   C24   A    
C11   C23   S    
C23   O6    A    
Cu1   O5    S    
Cu1   Cu2   S    
C29   N1    A    
C26   C30   A    
C6    C7    A    
Cu2   O6    S    
C8    C33   A    
C13   C15   A    
C29   H6    S    
C5    C6    A    
C20   H2    S    
C21   H3    S    
C11   C20   A    
C1    O2    A    
C1    C13   S    
C25   N2    A    
C16   C17   A    
C22   C27   A    
C22   H7    S    
C20   C21   A    
C24   N2    A    
C34   C35   A    
C13   C16   A    
C2    C36   A    
C27   C28   A    
C31   O7    A    
C14   C15   A    
C18   C19   A    
C2    C3    A    
C36   H15   S    
C3    C7    A    
C25   C26   A    
Cu2   N2    S    
C24   H9    S    
C34   H14   S    
C30   H8    S    
C9    H1    S    
C17   C21   A    
Cu2   O8    S    
C15   H4    S    
C1    O1    A    
Cu2   O4    S    
C25   H11   S    
Cu1   O7    S    
