data_mof_unit_33501.cif
_audit_creation_date              2012-12-10T21:42:35-0500
_audit_creation_method            fapswitch 2.2
_symmetry_space_group_name_H-M    P1
_symmetry_Int_Tables_number       1
_space_group_crystal_system       triclinic
_cell_length_a                    10.749629
_cell_length_b                    16.177959
_cell_length_c                    16.865676
_cell_angle_alpha                 88.976344
_cell_angle_beta                  90.779334
_cell_angle_gamma                 93.481206
_cell_volume                      2926.95044026

loop_
_atom_site_label
_atom_site_type_symbol
_atom_type_description
_atom_site_fract_x
_atom_site_fract_y
_atom_site_fract_z
_atom_type_partial_charge
C1    C     C_R   0.498809 0.489502 0.652291 0.890910
C2    C     C_R   0.499721 0.510360 0.347762 0.887615
C3    C     C_R   0.127531 0.497830 0.503386 -0.088478
C4    C     C_R   0.872683 0.502062 0.497885 -0.089423
C5    C     C_R   0.054362 0.426525 0.526855 0.005375
C6    C     C_R   0.946113 0.573426 0.475172 -0.003144
C7    C     C_R   0.494182 0.482254 0.736979 -0.087494
C8    C     C_R   0.490867 0.515983 0.263175 -0.084672
C9    C     C_R   0.416520 0.531546 0.778522 -0.271175
C10   C     C_R   0.565515 0.468328 0.217937 -0.254873
C11   C     C_R   0.410869 0.523650 0.860090 -0.181987
C12   C     C_R   0.552028 0.469648 0.136536 -0.186074
C13   C     C_R   0.484665 0.466735 0.900487 0.251892
C14   C     C_R   0.461221 0.517661 0.099917 0.268058
C15   C     C_R   0.559554 0.415839 0.857956 0.259417
C16   C     C_R   0.387859 0.566385 0.145900 0.256831
C17   C     C_R   0.564185 0.423670 0.776151 -0.277441
C18   C     C_R   0.403551 0.565997 0.227691 -0.285254
C19   C     C_R   0.476920 0.758939 0.443387 -0.050306
C20   C     C_R   0.561381 0.239530 0.538543 -0.056137
C21   C     C_R   0.487363 0.846514 0.437995 -0.323844
C22   C     C_R   0.561940 0.152181 0.535386 -0.317649
C23   C     C_R   0.740095 0.500880 0.498330 0.870464
C24   C     C_R   0.260003 0.499098 0.502064 0.866315
C25   C     C_R   0.544765 0.892906 0.499642 0.261423
C26   C     C_R   0.479751 0.107461 0.483571 0.257606
C27   C     C_R   0.587514 0.850133 0.565884 0.133353
C28   C     C_R   0.399383 0.152264 0.436174 0.138008
C29   C     C_R   0.563408 0.762925 0.573542 0.148854
C30   C     C_R   0.406515 0.240322 0.436822 0.164481
C31   C     C_R   0.820184 0.744734 0.346318 0.163018
C32   C     C_R   0.217453 0.271137 0.657121 0.159545
C33   C     C_R   0.855649 0.666070 0.371496 -0.150108
C34   C     C_R   0.173630 0.346176 0.628033 -0.116123
C35   C     C_R   0.896257 0.653096 0.449932 0.122845
C36   C     C_R   0.105422 0.348434 0.556456 0.109950
C37   C     C_R   0.901139 0.718861 0.503049 -0.157799
C38   C     C_R   0.080556 0.275061 0.514440 -0.185101
C39   C     C_R   0.862489 0.796250 0.478969 -0.154733
C40   C     C_R   0.125455 0.200751 0.542567 -0.147482
C41   C     C_R   0.822160 0.809307 0.401005 -0.123408
C42   C     C_R   0.194176 0.198706 0.613298 -0.132882
C43   C     C_R   0.073322 0.570113 0.478014 -0.238270
C44   C     C_R   0.926880 0.429600 0.523064 -0.240860
H1    H     H_    0.794749 0.870237 0.383000 0.143830
H2    H     H_    0.227564 0.140335 0.634382 0.147191
H3    H     H_    0.623182 0.384871 0.743233 0.180328
H4    H     H_    0.345695 0.602718 0.263610 0.177450
H5    H     H_    0.623639 0.272624 0.579566 0.154009
H6    H     H_    0.436663 0.724722 0.393919 0.154631
H7    H     H_    0.623652 0.119895 0.574765 0.208780
H8    H     H_    0.454672 0.877512 0.384961 0.196308
H9    H     H_    0.856146 0.616094 0.329583 0.123653
H10   H     H_    0.191509 0.402465 0.661286 0.110163
H11   H     H_    0.936626 0.710205 0.562804 0.133230
H12   H     H_    0.026976 0.275612 0.459593 0.147274
H13   H     H_    0.866140 0.846670 0.520386 0.181822
H14   H     H_    0.106476 0.144507 0.509628 0.188864
H15   H     H_    0.130167 0.624529 0.459228 0.174154
H16   H     H_    0.869810 0.375419 0.542151 0.167435
H17   H     H_    0.634052 0.430338 0.245678 0.160878
H18   H     H_    0.360040 0.575554 0.747832 0.161819
H19   H     H_    0.612465 0.433010 0.102474 0.197299
H20   H     H_    0.350240 0.562668 0.891350 0.195124
N1    N     N_2   0.490698 0.461606 0.983670 -0.159433
N2    N     N_2   0.445521 0.520559 0.017030 -0.153711
N3    N     N_R   0.515300 0.716920 0.509720 -0.103636
N4    N     N_R   0.484700 0.283080 0.490280 -0.110947
N5    N     N_2   0.563404 0.981686 0.497286 -0.128100
N6    N     N_2   0.466919 0.018327 0.481382 -0.107129
O1    O     O_R   0.494530 0.422540 0.612660 -0.624831
O2    O     O_R   0.505470 0.577460 0.387340 -0.632038
O3    O     O_R   0.504350 0.561840 0.618900 -0.630982
O4    O     O_R   0.495650 0.438160 0.381100 -0.629522
O5    O     O_R   0.678330 0.430350 0.496870 -0.624980
O6    O     O_R   0.321670 0.569650 0.503130 -0.622321
O7    O     O_R   0.688150 0.569660 0.503110 -0.620305
O8    O     O_R   0.311850 0.430340 0.496890 -0.636026
Zn1   Zn    Zn3+2 0.493440 0.406980 0.495830 0.936533
Zn2   Zn    Zn3+2 0.506560 0.593020 0.504170 0.940061
Br1   Br    Br    0.677467 0.914566 0.646413 -0.558219
Br2   Br    Br    0.278812 0.089865 0.370929 -0.560897
C45   C     C_3   0.578266 0.726399 0.656243 -0.326889
C46   C     C_3   0.706313 0.691237 0.669946 -0.319214
C47   C     C_3   0.726218 0.665605 0.756478 -0.837807
H21   H     H_    0.723871 0.720218 0.795298 0.278794
H22   H     H_    0.653212 0.618428 0.775383 0.276635
H23   H     H_    0.818513 0.638882 0.763653 0.251409
H24   H     H_    0.717217 0.637192 0.632079 0.252491
H25   H     H_    0.780111 0.739531 0.654379 0.233593
H26   H     H_    0.567677 0.774637 0.701119 0.218815
H27   H     H_    0.497841 0.684589 0.672117 0.208741
C48   C     C_3   0.328389 0.284475 0.375864 -0.356944
C49   C     C_3   0.383844 0.281330 0.292468 -0.339801
C50   C     C_3   0.302450 0.323749 0.231092 -0.806384
H28   H     H_    0.209444 0.290156 0.226786 0.268991
H29   H     H_    0.290220 0.388832 0.247642 0.262083
H30   H     H_    0.347201 0.323677 0.172141 0.263215
H31   H     H_    0.478925 0.312073 0.292302 0.238399
H32   H     H_    0.392599 0.216416 0.274327 0.260541
H33   H     H_    0.231647 0.256291 0.375425 0.210906
H34   H     H_    0.317963 0.348951 0.390304 0.251659
C51   C     C_3   0.788847 0.761380 0.260400 -0.446227
C52   C     C_3   0.662750 0.719398 0.236733 -0.347596
C53   C     C_3   0.630175 0.740106 0.150570 -0.785312
H35   H     H_    0.628587 0.808216 0.141447 0.264953
H36   H     H_    0.699387 0.715408 0.110270 0.264508
H37   H     H_    0.536597 0.711953 0.135307 0.272921
H38   H     H_    0.666193 0.651219 0.243837 0.235203
H39   H     H_    0.588777 0.740707 0.275588 0.231887
H40   H     H_    0.786389 0.829221 0.248969 0.212179
H41   H     H_    0.863458 0.738643 0.222864 0.222523
C54   C     C_3   0.286357 0.267910 0.735389 -0.442361
C55   C     C_3   0.198832 0.282020 0.804312 -0.357102
C56   C     C_3   0.262429 0.267370 0.884309 -0.767410
H42   H     H_    0.288854 0.202190 0.889985 0.267261
H43   H     H_    0.347100 0.309408 0.890682 0.273318
H44   H     H_    0.197564 0.279657 0.932806 0.254745
H45   H     H_    0.168848 0.346589 0.801512 0.228575
H46   H     H_    0.114534 0.238892 0.799782 0.243854
H47   H     H_    0.327274 0.206785 0.743810 0.216408
H48   H     H_    0.364555 0.315843 0.735202 0.225165
Br3   Br    Br    0.659168 0.336691 0.910586 -0.520266
Br4   Br    Br    0.264632 0.633053 0.098422 -0.525464

loop_
_geom_bond_atom_site_label_1
_geom_bond_atom_site_label_2
_ccdc_geom_bond_type
C38   C40   A    
C48   C49   S    
C27   C29   A    
C50   H28   S    
O1    Zn1   S    
C55   C56   S    
C50   H30   S    
C39   C41   A    
C13   N1    S    
C47   H21   S    
C45   H27   S    
C53   H36   S    
C3    C43   A    
C1    O1    A    
C15   Br3   S    
C35   C37   A    
C29   C45   S    
C30   C48   S    
C52   H38   S    
C47   H23   S    
C56   H42   S    
C39   H13   S    
C5    C36   S    
C6    C35   S    
C51   H40   S    
C42   H2    S    
C29   N3    A    
C54   H48   S    
C7    C17   A    
C31   C33   A    
C19   N3    A    
C32   C54   S    
C55   H45   S    
C2    O4    A    
C43   H15   S    
N4    Zn1   S    
C40   C42   A    
C3    C24   S    
C49   C50   S    
C46   H25   S    
C2    O2    A    
C52   C53   S    
C47   H22   S    
C33   H9    S    
C37   C39   A    
C53   H37   S    
C40   H14   S    
C28   Br2   S    
C9    H18   S    
O6    Zn2   S    
C27   Br1   S    
C46   C47   S    
C4    C6    A    
C11   H20   S    
C48   H33   S    
C12   H19   S    
O8    Zn1   S    
C24   O6    A    
C4    C44   A    
C56   H43   S    
C8    C18   A    
C51   H41   S    
C31   C51   S    
C20   H5    S    
C45   C46   S    
C49   H32   S    
C56   H44   S    
C14   N2    S    
C54   H47   S    
C23   O7    A    
C9    C11   A    
C10   C12   A    
C24   O8    A    
C5    C44   A    
C12   C14   A    
C34   H10   S    
C6    C43   A    
C13   C15   A    
C26   N6    S    
C14   C16   A    
C10   H17   S    
C25   N5    S    
C46   H24   S    
C23   O5    A    
C54   C55   S    
O7    Zn2   S    
C15   C17   A    
C21   C25   A    
C32   C42   A    
C31   C41   A    
C19   C21   A    
C1    C7    S    
C20   N4    A    
C8    C10   A    
C2    C8    S    
N3    Zn2   S    
C17   H3    S    
C20   C22   A    
C3    C5    A    
C18   H4    S    
C48   H34   S    
C50   H29   S    
C25   C27   A    
C45   H26   S    
C53   H35   S    
C26   C28   A    
O4    Zn1   S    
C1    O3    A    
C28   C30   A    
C16   Br4   S    
O2    Zn2   S    
C52   H39   S    
C11   C13   A    
C19   H6    S    
C49   H31   S    
C44   H16   S    
C36   C38   A    
C33   C35   A    
O3    Zn2   S    
C34   C36   A    
N5    N6    D    
C55   H46   S    
C37   H11   S    
C7    C9    A    
C38   H12   S    
C16   C18   A    
N1    N2    D    
C22   C26   A    
C51   C52   S    
C41   H1    S    
C4    C23   S    
O5    Zn1   S    
C21   H8    S    
C30   N4    A    
C32   C34   A    
C22   H7    S    
