data_mof_unit_5829.cif
_audit_creation_date              2012-12-10T19:06:28-0500
_audit_creation_method            fapswitch 2.2
_symmetry_space_group_name_H-M    P1
_symmetry_Int_Tables_number       1
_space_group_crystal_system       triclinic
_cell_length_a                    23.523634
_cell_length_b                    10.822325
_cell_length_c                    9.531137
_cell_angle_alpha                 89.907762
_cell_angle_beta                  90.242095
_cell_angle_gamma                 90.165644
_cell_volume                      2426.40589026

loop_
_atom_site_label
_atom_site_type_symbol
_atom_type_description
_atom_site_fract_x
_atom_site_fract_y
_atom_site_fract_z
_atom_type_partial_charge
C1    C     C_R   0.500998 0.262256 0.500049 0.805869
C2    C     C_R   0.970819 0.282469 0.438413 -0.157608
C3    C     C_R   0.030132 0.283529 0.438557 -0.158000
C4    C     C_R   0.060172 0.392334 0.470583 -0.012024
C5    C     C_R   0.030022 0.500731 0.503449 -0.013307
C6    C     C_R   0.059717 0.610355 0.535853 -0.016012
C7    C     C_R   0.029231 0.717788 0.568931 -0.158665
C8    C     C_R   0.969926 0.716568 0.569386 -0.156169
C9    C     C_R   0.119779 0.395993 0.469992 0.578747
C10   C     C_R   0.119329 0.609665 0.533327 0.594356
C11   C     C_R   0.238714 0.511094 0.367188 0.015779
C12   C     C_R   0.390885 0.500106 0.499692 0.812651
C13   C     C_R   0.298414 0.507863 0.370570 -0.250867
C14   C     C_R   0.328235 0.501423 0.498424 -0.071634
C15   C     C_R   0.297852 0.497419 0.624543 -0.194231
C16   C     C_R   0.238728 0.499391 0.622936 -0.108589
C17   C     C_R   0.208853 0.505947 0.495761 0.285184
C18   C     C_R   0.761305 0.490313 0.374847 -0.099018
C19   C     C_R   0.702020 0.490938 0.374093 -0.213490
C20   C     C_R   0.671805 0.497965 0.500813 -0.040790
C21   C     C_R   0.702102 0.503170 0.628148 -0.211275
C22   C     C_R   0.761356 0.503021 0.628610 -0.098961
C23   C     C_R   0.501031 0.737722 0.499865 0.806664
C24   C     C_R   0.791120 0.496812 0.502038 0.356162
C25   C     C_R   0.508270 0.063320 0.625750 0.137267
C26   C     C_R   0.506663 0.129196 0.499780 -0.095408
C27   C     C_R   0.513187 0.064678 0.372905 -0.205974
C28   C     C_R   0.513162 0.935890 0.372777 -0.206949
C29   C     C_R   0.506672 0.870803 0.499524 -0.095517
C30   C     C_R   0.508243 0.936144 0.625595 0.118517
C31   C     C_3   0.469771 0.928996 0.749663 -0.451308
C32   C     C_3   0.469878 0.069289 0.750001 -0.475488
C33   C     C_R   0.520058 0.599928 0.073683 0.257529
C34   C     C_R   0.609133 0.499438 0.500224 0.801154
C35   C     C_R   0.474380 0.407868 0.074354 -0.072868
C36   C     C_R   0.474311 0.407960 0.925398 -0.073852
C37   C     C_R   0.520072 0.599877 0.926292 0.256465
C38   C     C_3   0.578546 0.652899 0.920832 -0.498066
C39   C     C_3   0.578534 0.653069 0.080138 -0.498886
C40   C     C_R   0.880264 0.604681 0.535548 0.535516
C41   C     C_R   0.880682 0.391421 0.470668 0.535697
C42   C     C_R   0.940322 0.390134 0.470571 -0.015875
C43   C     C_R   0.970030 0.499563 0.503670 -0.017037
C44   C     C_R   0.939884 0.607909 0.536672 -0.015433
Cu1   Cu    Cu3+1 0.500000 0.499980 0.640670 0.947988
Cu2   Cu    Cu3+1 0.500000 0.500020 0.359330 0.948695
H1    H     H_    0.948984 0.197119 0.412884 0.191863
H2    H     H_    0.679979 0.485565 0.274432 0.150523
H3    H     H_    0.680179 0.507351 0.727442 0.148876
H4    H     H_    0.515459 0.112959 0.273438 0.162637
H5    H     H_    0.515326 0.888063 0.273254 0.158688
H6    H     H_    0.427584 0.888137 0.723752 0.208692
H7    H     H_    0.491244 0.888425 0.842989 0.192217
H8    H     H_    0.427736 0.110143 0.724581 0.202491
H9    H     H_    0.491580 0.109229 0.843384 0.193962
H10   H     H_    0.454483 0.332201 0.129967 0.143847
H11   H     H_    0.454205 0.332646 0.869607 0.140571
H12   H     H_    0.609905 0.587737 0.876077 0.212148
H13   H     H_    0.579134 0.747177 0.874453 0.196566
H14   H     H_    0.579043 0.747521 0.125663 0.192436
H15   H     H_    0.051065 0.803194 0.594225 0.191623
H16   H     H_    0.947741 0.801058 0.595115 0.191557
H17   H     H_    0.321813 0.512135 0.273009 0.193274
H18   H     H_    0.319710 0.492325 0.724612 0.173735
H19   H     H_    0.215803 0.495114 0.721148 0.162846
H20   H     H_    0.784144 0.485358 0.276620 0.141223
N1    N     N_R   0.852048 0.497629 0.502713 -0.471348
N2    N     N_R   0.147922 0.503884 0.499456 -0.451124
N3    N     N_R   0.500360 0.500930 0.147930 -0.185720
N4    N     N_R   0.500360 0.500890 0.852020 -0.184671
O1    O     O_R   0.500000 0.319640 0.618810 -0.583067
O2    O     O_2   0.851487 0.287356 0.439880 -0.528957
O3    O     O_2   0.149464 0.292992 0.439677 -0.528847
O4    O     O_2   0.148557 0.713911 0.563096 -0.523615
O5    O     O_R   0.500010 0.319680 0.381230 -0.590234
O6    O     O_R   0.417880 0.499940 0.618820 -0.582249
O7    O     O_R   0.417880 0.499980 0.381240 -0.578270
O8    O     O_R   0.499990 0.680320 0.618770 -0.578937
O9    O     O_R   0.500000 0.680360 0.381190 -0.583665
O10   O     O_R   0.582120 0.500020 0.618760 -0.582532
O11   O     O_R   0.582120 0.500060 0.381180 -0.583305
O12   O     O_2   0.850665 0.707789 0.565955 -0.529309
H21   H     H_    0.784224 0.507463 0.727326 0.140701
H22   H     H_    0.052324 0.198997 0.413033 0.193042
H23   H     H_    0.610001 0.588243 0.126216 0.213908
C45   C     C_2   0.209025 0.521162 0.229135 0.876814
O13   O     O_2   0.234554 0.497561 0.120892 -0.604780
O14   O     O_R   0.152377 0.559432 0.221352 -0.755372
H24   H     H_    0.137415 0.562448 0.121494 0.340820

loop_
_geom_bond_atom_site_label_1
_geom_bond_atom_site_label_2
_ccdc_geom_bond_type
C35   H10   S    
Cu1   O1    S    
C10   O4    S    
C41   C42   A    
C35   C36   A    
C31   H6    S    
C21   H3    S    
C7    C8    A    
C41   N1    A    
Cu1   Cu2   S    
C26   C27   A    
C29   C30   A    
Cu1   O6    S    
C18   C24   A    
C23   C29   S    
C21   C22   A    
C28   C29   A    
C5    C6    A    
C28   H5    S    
C45   O14   S    
C11   C45   S    
C15   C16   A    
C18   C19   A    
C7    H15   S    
Cu2   N3    S    
C24   N1    S    
C34   O10   A    
C38   H12   S    
C33   C39   S    
Cu2   O9    S    
C19   C20   A    
C16   C17   A    
C40   N1    A    
C15   H18   S    
Cu1   O8    S    
C34   O11   A    
C32   H9    S    
C27   H4    S    
C33   N3    A    
C20   C34   S    
O14   H24   S    
C25   C32   S    
C5    C43   A    
C13   C14   A    
C9    O3    S    
C32   H8    S    
Cu2   O5    S    
C36   N4    A    
C1    O5    A    
C40   O12   S    
C36   H11   S    
C45   O13   D    
C25   C26   A    
C33   C37   A    
C43   C44   A    
C37   C38   S    
Cu2   O11   S    
C31   C32   S    
C13   H17   S    
C30   C31   S    
C12   O7    A    
C1    O1    A    
C31   H7    S    
C41   O2    S    
C12   C14   S    
C12   O6    A    
C1    C26   S    
C22   C24   A    
C42   C43   A    
C39   H23   S    
C3    C4    A    
C27   C28   A    
C25   C30   A    
C11   C17   A    
C17   N2    S    
Cu1   N4    S    
C19   H2    S    
C8    C44   A    
C4    C5    A    
C6    C10   A    
Cu2   O7    S    
C6    C7    A    
C10   N2    A    
C2    H1    S    
C18   H20   S    
C22   H21   S    
C2    C3    A    
C9    N2    A    
C11   C13   A    
C38   C39   S    
C2    C42   A    
C39   H14   S    
Cu1   O10   S    
C23   O8    A    
C38   H13   S    
C40   C44   A    
C20   C21   A    
C35   N3    A    
C3    H22   S    
C14   C15   A    
C16   H19   S    
C23   O9    A    
C4    C9    A    
C37   N4    A    
C8    H16   S    
