data_mof_unit_32342.cif
_audit_creation_date              2013-03-05T16:09:45-0500
_audit_creation_method            fapswitch 2.2
_symmetry_space_group_name_H-M    P1
_symmetry_Int_Tables_number       1
_space_group_crystal_system       triclinic
_cell_length_a                    12.795633
_cell_length_b                    10.660175
_cell_length_c                    9.953251
_cell_angle_alpha                 90.554912
_cell_angle_beta                  99.224598
_cell_angle_gamma                 92.629854
_cell_volume                      1338.49092293

loop_
_atom_site_label
_atom_site_type_symbol
_atom_site_description
_atom_site_fract_x
_atom_site_fract_y
_atom_site_fract_z
_atom_type_partial_charge
O1    O     O_R   0.499990 0.316750 0.614620 -0.575833
O2    O     O_R   0.500010 0.683250 0.385380 -0.586579
O3    O     O_R   0.499990 0.316780 0.385290 -0.657748
O4    O     O_R   0.500010 0.683220 0.614710 -0.658894
C1    C     C_R   0.504463 0.260907 0.500284 0.870567
C2    C     C_R   0.495468 0.739218 0.499538 0.875558
O5    O     O_R   0.346360 0.499970 0.595710 -0.571420
O6    O     O_R   0.653640 0.500030 0.404290 -0.565329
O7    O     O_R   0.346360 0.499990 0.366380 -0.664235
O8    O     O_R   0.653640 0.500010 0.633620 -0.656696
C3    C     C_R   0.298432 0.493517 0.471215 0.883282
C4    C     C_R   0.702160 0.502714 0.528871 0.892933
Zn1   Zn    Zn3+2 0.500000 0.499980 0.653120 1.005921
Zn2   Zn    Zn3+2 0.500000 0.500020 0.346880 1.007559
C5    C     C_R   0.816510 0.506436 0.549658 -0.247273
C6    C     C_R   0.185506 0.473639 0.452356 -0.190241
C7    C     C_R   0.039781 0.323398 0.466157 -0.109368
C8    C     C_R   0.980328 0.633194 0.602422 -0.112229
C9    C     C_R   0.143263 0.349509 0.442389 0.265729
C10   C     C_R   0.873302 0.612560 0.613377 0.312142
C11   C     C_R   0.126960 0.572963 0.485845 -0.123645
C12   C     C_R   0.867760 0.410978 0.491378 -0.099061
C13   C     C_R   0.028584 0.545457 0.527174 0.021146
C14   C     C_R   0.978165 0.424640 0.495331 0.096369
C15   C     C_R   0.569365 0.065949 0.605203 -0.060467
C16   C     C_R   0.431446 0.934533 0.392697 -0.052990
C17   C     C_R   0.558254 0.936783 0.605751 -0.013166
C18   C     C_R   0.441036 0.063856 0.393894 0.003812
H1    H     H_    0.604823 0.885901 0.685765 0.221074
H2    H     H_    0.393419 0.115286 0.315251 0.220600
C19   C     C_R   0.492286 0.871956 0.499817 -0.150665
C20   C     C_R   0.507581 0.128368 0.499310 -0.137311
C21   C     C_R   0.560174 0.587698 0.086097 0.376660
C22   C     C_R   0.439753 0.412275 0.914062 0.367829
C23   C     C_R   0.559482 0.588756 0.941985 -0.185667
C24   C     C_R   0.439531 0.411903 0.058124 -0.170158
N1    N     N_R   0.499970 0.499970 0.857200 -0.210853
N2    N     N_R   0.500030 0.500030 0.142800 -0.208328
C25   C     C_2   0.802789 0.306578 0.412944 0.563059
H3    H     H_    0.733653 0.265558 0.449527 0.015688
O9    O     O_2   0.823430 0.269753 0.304049 -0.511414
C26   C     C_2   0.166976 0.704039 0.466202 0.423180
H4    H     H_    0.250864 0.729883 0.490595 0.010889
O10   O     O_2   0.106405 0.783128 0.417789 -0.475587
N3    N     N_R   0.820112 0.704764 0.678809 0.201231
O11   O     O_R   0.760533 0.781879 0.604715 -0.366080
O12   O     O_R   0.847449 0.727470 0.808704 -0.317983
N4    N     N_R   0.208702 0.248664 0.418886 0.144729
O13   O     O_R   0.263524 0.195396 0.522275 -0.344413
O14   O     O_R   0.193756 0.192305 0.300425 -0.373277
C27   C     C_2   0.006549 0.189691 0.484477 0.611843
H5    H     H_    0.031391 0.116028 0.422350 0.155266
O15   O     O_2   0.955475 0.160110 0.573908 -0.512436
C28   C     C_2   0.043794 0.739188 0.679388 0.614588
H6    H     H_    0.125416 0.726241 0.725002 0.030406
O16   O     O_2   0.007433 0.842305 0.688364 -0.405126
C29   C     C_2   0.649172 0.132533 0.710369 0.563991
H7    H     H_    0.673965 0.229733 0.697704 0.036023
O17   O     O_2   0.689664 0.078747 0.812055 -0.441688
C30   C     C_2   0.354803 0.868435 0.283325 0.555828
H8    H     H_    0.333104 0.769621 0.290232 0.044619
O18   O     O_2   0.313597 0.924463 0.183627 -0.456452
N5    N     N_R   0.627834 0.675222 0.173487 0.260517
O19   O     O_R   0.596227 0.787360 0.192461 -0.301494
O20   O     O_R   0.727870 0.653793 0.206426 -0.303368
N6    N     N_R   0.372502 0.324335 0.826872 0.267529
O21   O     O_R   0.272282 0.345012 0.794390 -0.337158
O22   O     O_R   0.404487 0.212158 0.809125 -0.279813
C31   C     C_2   0.623908 0.685137 0.882505 0.581147
H9    H     H_    0.649922 0.666343 0.787865 0.139205
O23   O     O_2   0.647483 0.787864 0.936861 -0.442012
C32   C     C_2   0.372494 0.317200 0.117097 0.554533
H10   H     H_    0.342568 0.337603 0.209121 0.128442
O24   O     O_2   0.350422 0.213510 0.064460 -0.447439

loop_
_geom_bond_atom_site_label_1
_geom_bond_atom_site_label_2
_geom_bond_distance
_ccdc_geom_bond_type
N6    O22   1.301041 A    
O7    Zn2   2.006189 S    
N5    O20   1.300723 A    
C32   O24   1.220139 D    
C6    C11   1.392627 A    
C27   H5    1.084698 S    
C17   H1    1.081391 S    
C22   N1    1.368177 A    
C3    C6    1.432551 S    
Zn1   N1    2.031322 S    
C21   N2    1.366625 A    
C4    C5    1.443169 S    
O6    C4    1.294100 A    
C13   C14   1.423275 A    
C1    C20   1.415265 S    
C22   N6    1.429412 S    
C15   C20   1.404751 A    
N4    O14   1.300454 A    
N6    O21   1.300764 A    
O3    C1    1.289731 A    
C16   C19   1.408242 A    
C25   O9    1.221331 D    
N3    O11   1.299933 A    
C32   H10   1.071967 S    
O5    C3    1.291163 A    
O7    C3    1.293186 A    
C7    C27   1.489940 S    
C29   H7    1.084143 S    
O2    C2    1.289038 A    
O3    Zn2   1.994059 S    
C26   O10   1.221398 D    
C6    C9    1.402722 A    
O1    C1    1.289809 A    
C12   C25   1.493101 S    
O8    C4    1.296049 A    
C12   C14   1.407714 A    
C24   N2    1.378730 A    
N4    O13   1.299961 A    
C23   N1    1.378479 A    
C2    C19   1.417449 S    
C22   C24   1.434388 A    
C31   H9    1.068295 S    
N3    O12   1.301410 A    
C11   C13   1.405065 A    
C5    C10   1.404651 A    
O2    Zn2   1.986843 S    
C28   O16   1.221129 D    
C21   N5    1.430155 S    
C29   O17   1.221450 D    
C7    C14   1.419915 A    
Zn2   N2    2.031322 S    
C26   H4    1.083986 S    
C8    C28   1.490842 S    
C17   C19   1.396009 A    
C8    C13   1.415867 A    
C15   C29   1.489525 S    
C7    C9    1.398079 A    
C24   C32   1.480854 S    
O5    Zn1   1.957342 S    
C16   C30   1.490887 S    
O1    Zn1   1.986843 S    
C23   C31   1.475198 S    
C8    C10   1.398716 A    
C30   O18   1.221500 D    
O4    C2    1.291853 A    
C5    C12   1.404928 A    
C10   N3    1.429877 S    
C25   H3    1.085018 S    
C31   O23   1.220170 D    
C9    N4    1.432506 S    
C30   H8    1.082630 S    
O6    Zn2   1.957340 S    
C11   C26   1.491495 S    
C21   C23   1.433148 A    
C28   H6    1.085535 S    
C16   C18   1.378200 A    
O8    Zn1   2.006188 S    
C18   C20   1.394537 A    
N5    O19   1.301040 A    
O4    Zn1   1.994059 S    
C18   H2    1.081927 S    
C27   O15   1.221431 D    
C15   C17   1.377907 A    
