data_mof_unit_20014.cif
_audit_creation_date              2012-12-11T14:52:45-0500
_audit_creation_method            fapswitch 2.2
_symmetry_space_group_name_H-M    P1
_symmetry_Int_Tables_number       1
_space_group_crystal_system       triclinic
_cell_length_a                    20.58176
_cell_length_b                    7.257033
_cell_length_c                    20.239212
_cell_angle_alpha                 90.001636
_cell_angle_beta                  101.724088
_cell_angle_gamma                 89.996551
_cell_volume                      2959.91252628

loop_
_atom_site_label
_atom_site_type_symbol
_atom_type_description
_atom_site_fract_x
_atom_site_fract_y
_atom_site_fract_z
_atom_type_partial_charge
O1    O     O_R   0.673670 0.377510 0.185950 -0.536407
O2    O     O_R   0.326330 0.622490 0.814050 -0.534419
O3    O     O_R   0.826330 0.877510 0.314050 -0.536459
O4    O     O_R   0.173670 0.122490 0.685950 -0.534439
O5    O     O_R   0.806260 0.705340 0.185590 -0.533841
O6    O     O_R   0.193740 0.294660 0.814410 -0.533407
O7    O     O_R   0.693740 0.205340 0.314410 -0.533856
O8    O     O_R   0.306260 0.794660 0.685590 -0.533440
C1    C     C_R   0.825548 0.538597 0.170739 0.726089
C2    C     C_R   0.174426 0.461396 0.829235 0.726654
C3    C     C_R   0.674453 0.038604 0.329263 0.726164
C4    C     C_R   0.325573 0.961388 0.670763 0.726633
O9    O     O_R   0.672940 0.707120 0.178050 -0.524749
O10   O     O_R   0.327060 0.292880 0.821950 -0.526867
O11   O     O_R   0.827060 0.207120 0.321950 -0.524782
O12   O     O_R   0.172940 0.792880 0.678050 -0.526905
O13   O     O_R   0.692060 0.879040 0.306460 -0.529720
O14   O     O_R   0.307940 0.120960 0.693540 -0.530768
O15   O     O_R   0.807940 0.379040 0.193540 -0.529721
O16   O     O_R   0.192060 0.620960 0.806460 -0.530754
C5    C     C_R   0.648584 0.538990 0.161397 0.743240
C6    C     C_R   0.351419 0.461012 0.838598 0.745563
C7    C     C_R   0.851405 0.038978 0.338613 0.743138
C8    C     C_R   0.148587 0.961022 0.661394 0.745541
O17   O     O_3   0.756430 0.544390 0.292140 -0.375003
O18   O     O_3   0.243570 0.455610 0.707860 -0.375680
O19   O     O_3   0.743570 0.044390 0.207860 -0.374936
O20   O     O_3   0.256430 0.955610 0.792140 -0.375599
V1    V     V_3+5 0.748810 0.818610 0.242180 1.535393
V2    V     V_3+5 0.251190 0.181390 0.757820 1.537755
V3    V     V_3+5 0.751190 0.318610 0.257820 1.535381
V4    V     V_3+5 0.248810 0.681390 0.742180 1.537676
C9    C     C_R   0.085893 0.968369 0.609844 -0.188791
C10   C     C_R   0.914082 0.031624 0.390180 -0.172292
C11   C     C_R   0.414111 0.468326 0.890154 -0.188891
C12   C     C_R   0.585899 0.531683 0.109835 -0.172424
C13   C     C_R   0.034747 0.064792 0.423825 0.374796
C14   C     C_R   0.965220 0.935089 0.576201 0.436487
C15   C     C_R   0.465254 0.565493 0.076128 0.376010
C16   C     C_R   0.534765 0.434582 0.923855 0.436564
C17   C     C_R   0.975051 0.086092 0.374860 0.053231
C18   C     C_R   0.024923 0.913906 0.625182 0.084152
C19   C     C_R   0.524953 0.586630 0.125109 0.053598
C20   C     C_R   0.475065 0.413486 0.874862 0.084136
C21   C     C_R   0.912349 0.968515 0.455076 -0.137341
C22   C     C_R   0.087617 0.031465 0.544946 -0.144119
C23   C     C_R   0.587616 0.468295 0.044969 -0.137173
C24   C     C_R   0.412395 0.531693 0.955022 -0.143715
C25   C     C_R   0.968940 0.976229 0.507994 -0.062103
C26   C     C_R   0.031040 0.023629 0.492029 -0.046128
C27   C     C_R   0.531042 0.476071 0.992035 -0.062136
C28   C     C_R   0.468963 0.523899 0.007955 -0.046153
H1    H     H_    0.134190 0.085394 0.536728 0.197911
H2    H     H_    0.865740 0.914862 0.463317 0.196546
H3    H     H_    0.365821 0.585699 0.963213 0.198087
H4    H     H_    0.634210 0.414427 0.036756 0.196616
C29   C     C_3   0.559001 0.057356 0.534984 0.188497
C30   C     C_3   0.441265 0.942485 0.465278 0.187077
C31   C     C_3   0.940986 0.557269 0.965013 0.188533
C32   C     C_3   0.058747 0.442578 0.034724 0.187036
C33   C     C_3   0.522618 0.880444 0.549887 0.161503
C34   C     C_3   0.477643 0.119394 0.450378 0.156170
C35   C     C_3   0.977400 0.380377 0.950130 0.161517
C36   C     C_3   0.022337 0.619466 0.049605 0.156085
H5    H     H_    0.512968 0.694693 0.451837 0.188358
H6    H     H_    0.487296 0.305153 0.548425 0.188584
H7    H     H_    0.987095 0.194723 0.048205 0.188387
H8    H     H_    0.012641 0.805127 0.951533 0.188625
C37   C     C_1   0.371124 0.970311 0.624868 -0.098671
C38   C     C_1   0.628990 0.029644 0.375245 -0.100544
C39   C     C_1   0.128873 0.470332 0.875128 -0.098606
C40   C     C_1   0.871013 0.529625 0.124759 -0.100586
C41   C     C_3   0.493227 0.167317 0.526634 -0.246179
C42   C     C_3   0.507037 0.832527 0.473629 -0.250369
C43   C     C_3   0.006738 0.667304 0.973342 -0.246209
C44   C     C_3   0.992998 0.332545 0.026394 -0.250306
C45   C     C_3   0.457252 0.989502 0.541026 -0.032998
C46   C     C_3   0.543009 0.010342 0.459235 -0.028660
C47   C     C_3   0.042745 0.489510 0.958970 -0.032972
C48   C     C_3   0.956994 0.510339 0.040769 -0.028727
C49   C     C_1   0.409739 0.978803 0.586923 0.090772
C50   C     C_1   0.590456 0.021096 0.413272 0.091620
C51   C     C_1   0.090257 0.478820 0.913072 0.090837
C52   C     C_1   0.909548 0.521081 0.086734 0.091567
I1    I     I_    0.026197 0.792426 0.722132 -0.201827
I2    I     I_    0.973862 0.207742 0.277948 -0.228191
I3    I     I_    0.473757 0.291499 0.777985 -0.201824
I4    I     I_    0.526235 0.708894 0.221938 -0.228258
S1    S     S_3+6 0.113103 0.075799 0.398420 0.098577
O21   O     O_2   0.138297 0.270469 0.406554 -0.260958
O22   O     O_2   0.163178 0.950538 0.440666 -0.317525
O23   O     O_3   0.107089 0.011377 0.317607 -0.414195
H9    H     H_    0.092955 0.880681 0.316170 0.369859
S2    S     S_3+6 0.886807 0.923769 0.601443 0.075934
O24   O     O_2   0.837513 0.051959 0.559658 -0.314861
O25   O     O_2   0.861208 0.729567 0.592152 -0.294271
O26   O     O_3   0.893128 0.986369 0.682501 -0.442411
H10   H     H_    0.849205 0.958358 0.692975 0.407294
S3    S     S_3+6 0.386833 0.577411 0.101377 0.098020
O27   O     O_2   0.361474 0.771810 0.092332 -0.261545
O28   O     O_2   0.336968 0.450829 0.059520 -0.317781
O29   O     O_3   0.392618 0.515575 0.182423 -0.414550
H11   H     H_    0.405931 0.384165 0.184290 0.370857
S4    S     S_3+6 0.613207 0.422725 0.898688 0.075867
O30   O     O_2   0.662444 0.551360 0.940308 -0.314843
O31   O     O_2   0.638822 0.228597 0.908336 -0.294450
O32   O     O_3   0.607000 0.484241 0.817541 -0.442332
H12   H     H_    0.651003 0.456407 0.807230 0.407279
I5    I     I_    0.557234 0.685535 0.628360 -0.207462
I6    I     I_    0.443055 0.314273 0.371891 -0.204940
I7    I     I_    0.942805 0.185363 0.871686 -0.207766
I8    I     I_    0.056904 0.814455 0.128061 -0.203769
I9    I     I_    0.652567 0.153607 0.590135 -0.119335
I10   I     I_    0.347715 0.846111 0.410153 -0.047888
I11   I     I_    0.847399 0.653378 0.909857 -0.119348
I12   I     I_    0.152321 0.346355 0.089853 -0.048043

loop_
_geom_bond_atom_site_label_1
_geom_bond_atom_site_label_2
_ccdc_geom_bond_type
C30   C34   S    
C24   H3    S    
C4    C37   S    
C32   C47   S    
O1    C5    A    
O19   V1    S    
O13   V1    S    
O3    C7    A    
C1    C40   S    
C48   C52   S    
C33   I5    S    
S4    O31   D    
O26   H10   S    
C3    C38   S    
C5    C12   S    
C35   C47   S    
H8    C43   S    
O7    C3    A    
C17   I2    S    
C19   I4    S    
O9    V1    S    
C14   C18   A    
O4    C8    A    
C36   I8    S    
C35   C44   S    
O1    V3    S    
C12   C23   A    
O2    V4    S    
C29   C41   S    
O3    V1    S    
C30   C45   S    
C1    O15   A    
C2    O16   A    
O2    C6    A    
O32   H12   S    
C34   C41   S    
O14   V2    S    
C45   C49   S    
S1    O22   D    
C20   I3    S    
C16   C20   A    
O5    V1    S    
C2    C39   S    
O11   C7    A    
C15   C28   A    
O15   V3    S    
O12   C8    A    
C35   I7    S    
C9    C22   A    
C36   C48   S    
S2    O24   D    
C10   C17   A    
O10   V2    S    
C11   C24   A    
S4    O30   D    
C39   C51   T    
C15   C19   A    
O7    V3    S    
C27   C28   A    
O8    V4    S    
C33   C45   S    
C18   I1    S    
O18   V4    S    
C29   I9    S    
S2    O26   S    
H6    C41   S    
O11   V3    S    
C32   C44   S    
H5    C42   S    
O5    C1    A    
C6    C11   S    
C16   S4    S    
C46   C50   S    
C15   S3    S    
S3    O27   D    
C34   I6    S    
C21   C25   A    
O8    C4    A    
C7    C10   S    
C14   S2    S    
O9    C5    A    
C10   C21   A    
S1    O23   S    
S2    O25   D    
C11   C20   A    
C40   C52   T    
O6    V2    S    
C21   H2    S    
C32   I12   S    
C9    C18   A    
C31   C43   S    
C14   C25   A    
C30   C42   S    
O17   V3    S    
O16   V4    S    
C3    O13   A    
S3    O28   D    
C29   C46   S    
C34   C46   S    
C44   C48   S    
C31   C48   S    
O6    C2    A    
C23   C27   A    
C29   C33   S    
C33   C42   S    
O12   V4    S    
C16   C27   A    
C22   C26   A    
C31   C35   S    
C8    C9    S    
C13   S1    S    
C32   C36   S    
O10   C6    A    
O20   V2    S    
C47   C51   S    
C13   C26   A    
C22   H1    S    
O23   H9    S    
C36   C43   S    
C13   C17   A    
O29   H11   S    
C38   C50   T    
C37   C49   T    
C24   C28   A    
S3    O29   S    
C31   I11   S    
C25   C26   A    
C42   C46   S    
C4    O14   A    
C30   I10   S    
C41   C45   S    
C12   C19   A    
H7    C44   S    
S1    O21   D    
C43   C47   S    
S4    O32   S    
O4    V2    S    
C23   H4    S    
