data_mof_unit_49272.cif
_audit_creation_date              2012-12-11T17:47:25-0500
_audit_creation_method            fapswitch 2.2
_symmetry_space_group_name_H-M    P1
_symmetry_Int_Tables_number       1
_space_group_crystal_system       triclinic
_cell_length_a                    14.876539
_cell_length_b                    14.890953
_cell_length_c                    15.143666
_cell_angle_alpha                 110.420391
_cell_angle_beta                  109.025921
_cell_angle_gamma                 108.773778
_cell_volume                      2588.14317047

loop_
_atom_site_label
_atom_site_type_symbol
_atom_type_description
_atom_site_fract_x
_atom_site_fract_y
_atom_site_fract_z
_atom_type_partial_charge
C1    C     C_R   0.973245 0.247178 0.060576 -0.125643
C2    C     C_R   0.064950 0.140120 0.161706 -0.231232
C3    C     C_R   0.144049 0.022137 0.788347 -0.152124
C4    C     C_R   0.915398 0.937621 0.301168 -0.125301
C5    C     C_R   0.113322 0.034563 0.867726 -0.164708
C6    C     C_R   0.995684 0.998409 0.285069 -0.193823
C7    C     C_R   0.609898 0.309393 0.114659 -0.119811
C8    C     C_R   0.327007 0.680183 0.807961 -0.106352
C9    C     C_R   0.698336 0.387092 0.218416 -0.122082
C10   C     C_R   0.222428 0.612095 0.717283 -0.101195
C11   C     C_R   0.743612 0.353267 0.289015 0.100368
C12   C     C_R   0.093301 0.806155 0.008376 -0.144050
C13   C     C_R   0.156058 0.656884 0.687272 0.095592
C14   C     C_R   0.694413 0.240894 0.256354 -0.163395
C15   C     C_R   0.195693 0.770394 0.748959 -0.185416
C16   C     C_R   0.315390 0.759041 0.225050 -0.129957
C17   C     C_R   0.704901 0.194327 0.794344 -0.138000
C18   C     C_R   0.604004 0.163492 0.153136 -0.104771
C19   C     C_R   0.300064 0.838040 0.839922 -0.099876
C20   C     C_R   0.562746 0.197537 0.081778 -0.116440
C21   C     C_R   0.365778 0.792942 0.869368 -0.131415
C22   C     C_R   0.855558 0.436238 0.487768 -0.249715
C23   C     C_R   0.323914 0.787235 0.327050 0.050344
C24   C     C_R   0.036077 0.583839 0.497006 -0.250513
C25   C     C_R   0.954053 0.510123 0.585070 0.076285
C26   C     C_R   0.939776 0.507625 0.399003 0.067426
C27   C     C_R   0.045564 0.585147 0.590284 0.017214
C28   C     C_R   0.847074 0.433913 0.392830 0.025860
C29   C     C_R   0.187045 0.120922 0.975328 0.111276
C30   C     C_R   0.967013 0.992924 0.184892 0.119695
C31   C     C_R   0.321020 0.181709 0.921909 -0.139003
C32   C     C_R   0.775924 0.879515 0.123761 -0.152484
C33   C     C_R   0.225190 0.015247 0.513778 -0.120480
C34   C     C_R   0.703420 0.129585 0.701531 0.066148
C35   C     C_R   0.916286 0.034347 0.609140 -0.140338
C36   C     C_R   0.312119 0.000121 0.510513 -0.133577
C37   C     C_R   0.813922 0.984845 0.600089 -0.146349
C38   C     C_R   0.332744 0.923951 0.535450 0.108938
C39   C     C_R   0.722731 0.974773 0.521357 0.123324
C40   C     C_R   0.214130 0.409402 0.908940 -0.125849
C41   C     C_R   0.775857 0.592355 0.024881 -0.045182
C42   C     C_R   0.268275 0.866522 0.568083 -0.187972
C43   C     C_R   0.733957 0.007686 0.447284 -0.194453
C44   C     C_R   0.177332 0.877213 0.564653 -0.140186
C45   C     C_R   0.307231 0.502070 0.943822 0.102727
C46   C     C_R   0.836773 0.057963 0.457553 -0.125765
C47   C     C_R   0.155667 0.951312 0.537349 -0.114970
C48   C     C_R   0.928116 0.072423 0.539242 -0.116740
C49   C     C_R   0.522787 0.977826 0.625069 -0.228930
C50   C     C_R   0.522556 0.865178 0.435318 -0.244251
C51   C     C_R   0.619737 0.013543 0.621155 0.052968
C52   C     C_R   0.423759 0.851673 0.432495 0.070572
C53   C     C_R   0.621593 0.948884 0.528107 0.028681
C54   C     C_R   0.424478 0.908301 0.530255 0.018256
C55   C     C_R   0.247701 0.096424 0.815380 -0.084266
C56   C     C_R   0.674762 0.500002 0.950486 0.068068
C57   C     C_R   0.805461 0.879232 0.221171 -0.058189
C58   C     C_R   0.051783 0.043260 0.160750 0.022000
C59   C     C_R   0.160448 0.119193 0.060228 0.023674
C60   C     C_R   0.291715 0.194218 0.002444 -0.164238
C61   C     C_R   0.856486 0.935180 0.105020 -0.155152
C62   C     C_R   0.101509 0.988587 0.115209 0.053949
C63   C     C_R   0.099268 0.165487 0.093358 0.059132
C64   C     C_R   0.000045 0.592354 0.300808 -0.158344
C65   C     C_R   0.944104 0.409045 0.685963 -0.128608
C66   C     C_3   0.462551 0.396344 0.877861 -0.336273
C67   C     C_R   0.947362 0.501722 0.305737 0.059098
C68   C     C_3   0.510151 0.608530 0.985983 -0.362841
C69   C     C_3   0.408468 0.453601 0.831319 0.615068
C70   C     C_3   0.563209 0.551238 0.032099 0.621308
C71   C     C_3   0.399795 0.504340 0.932280 0.077843
C72   C     C_3   0.573448 0.500283 0.931611 0.067906
C73   C     C_3   0.454453 0.448940 0.981057 -0.332119
C74   C     C_3   0.519776 0.556781 0.882837 -0.345858
C75   C     C_R   0.304020 0.592892 0.002390 -0.157173
C76   C     C_R   0.684894 0.407682 0.934245 -0.139864
C77   C     C_R   0.913561 0.408931 0.212221 -0.125977
C78   C     C_R   0.963622 0.503303 0.679090 0.039315
C79   C     C_R   0.026937 0.593570 0.781591 -0.105822
C80   C     C_R   0.219534 0.748962 0.312089 -0.120160
C81   C     C_R   0.792361 0.196764 0.700384 -0.144954
C82   C     C_R   0.068150 0.250632 0.972092 -0.141352
C83   C     C_R   0.002730 0.803763 0.099196 -0.152071
C84   C     C_R   0.051512 0.221062 0.045307 0.058485
C85   C     C_R   0.064593 0.870379 0.073842 0.069776
C86   C     C_R   0.173247 0.042297 0.086994 -0.226258
H1    H     H_    0.937712 0.233914 0.109464 0.093061
H2    H     H_    0.378045 0.645578 0.830514 0.140450
H3    H     H_    0.734327 0.473270 0.242082 0.145327
H4    H     H_    0.193183 0.524804 0.670506 0.144065
H5    H     H_    0.728216 0.212817 0.309154 0.108024
H6    H     H_    0.144472 0.805655 0.728662 0.115340
H7    H     H_    0.567457 0.076880 0.127580 0.100299
H8    H     H_    0.329684 0.925227 0.887819 0.115855
H9    H     H_    0.786368 0.379766 0.486011 0.131840
H10   H     H_    0.107982 0.636880 0.499581 0.133959
H11   H     H_    0.033513 0.974873 0.846355 0.117102
H12   H     H_    0.152356 0.833808 0.983893 0.096619
H13   H     H_    0.080352 0.043552 0.346922 0.117014
H14   H     H_    0.429597 0.411931 0.027006 0.145043
H15   H     H_    0.547022 0.598539 0.841025 0.146549
H16   H     H_    0.380846 0.776071 0.206247 0.090525
H17   H     H_    0.658542 0.167493 0.830801 0.088985
H18   H     H_    0.351056 0.258460 0.085685 0.123401
H19   H     H_    0.833192 0.931605 0.027713 0.116457
H20   H     H_    0.086715 0.961194 0.537280 0.103049
H21   H     H_    0.008096 0.113196 0.548414 0.119906
H22   H     H_    0.212157 0.076763 0.498405 0.107356
H23   H     H_    0.087639 0.954260 0.706265 0.107035
H24   H     H_    0.987138 0.047580 0.673228 0.125734
H25   H     H_    0.363798 0.048022 0.489200 0.113147
H26   H     H_    0.807058 0.961298 0.658666 0.112880
H27   H     H_    0.284957 0.809497 0.590064 0.129186
H28   H     H_    0.664927 0.001915 0.386952 0.113341
H29   H     H_    0.123184 0.828009 0.582662 0.115199
H30   H     H_    0.846025 0.088004 0.403724 0.127960
H31   H     H_    0.519447 0.020394 0.697021 0.123806
H32   H     H_    0.523156 0.817967 0.362742 0.123463
H33   H     H_    0.221354 0.008940 0.062520 0.127021
H34   H     H_    0.938457 0.934752 0.375100 0.126863
H35   H     H_    0.028666 0.181798 0.199067 0.127649
H36   H     H_    0.442309 0.309791 0.830334 0.135730
H37   H     H_    0.528386 0.694515 0.032196 0.129160
H38   H     H_    0.187565 0.325488 0.851810 0.121811
H39   H     H_    0.794788 0.677313 0.059298 0.124467
H40   H     H_    0.024065 0.676488 0.354484 0.116854
H41   H     H_    0.900828 0.324835 0.620309 0.105898
H42   H     H_    0.358525 0.677634 0.030910 0.096100
H43   H     H_    0.621060 0.322603 0.885230 0.098769
H44   H     H_    0.860714 0.324460 0.185767 0.108393
H45   H     H_    0.401603 0.235803 0.941766 0.112536
H46   H     H_    0.055899 0.678971 0.805027 0.109886
H47   H     H_    0.193377 0.746123 0.369129 0.123210
H48   H     H_    0.822905 0.176404 0.645736 0.135262
H49   H     H_    0.123664 0.245641 0.942418 0.122598
H50   H     H_    0.983335 0.827010 0.162633 0.133029
H51   H     H_    0.272631 0.087579 0.754810 0.130417
H52   H     H_    0.743339 0.833823 0.234686 0.132828
H53   H     H_    0.351174 0.377059 0.677790 0.303379
H54   H     H_    0.615211 0.626266 0.185019 0.299552
H55   H     H_    0.691035 0.834792 0.061795 0.115718
H56   H     H_    0.494877 0.137021 0.000885 0.107423
H57   H     H_    0.446625 0.845264 0.939800 0.097808
H58   H     H_    0.580006 0.336631 0.059683 0.126579
N1    N     N_R   0.947560 0.293820 0.002910 -0.041729
N2    N     N_R   0.789450 0.443190 0.997090 -0.042312
N3    N     N_R   0.945970 0.443180 0.152110 -0.040174
N4    N     N_R   0.054030 0.556820 0.847890 -0.040101
N5    N     N_R   0.151530 0.706170 0.208880 -0.043623
N6    N     N_R   0.848470 0.293830 0.791120 -0.043035
N7    N     N_R   0.004980 0.293810 0.946140 -0.041806
N8    N     N_R   0.995020 0.706190 0.053860 -0.048466
N9    N     N_R   0.052440 0.706180 0.997090 -0.041942
N10   N     N_R   0.208960 0.706170 0.152110 -0.039669
N11   N     N_R   0.791040 0.293830 0.847890 -0.040607
N12   N     N_R   0.154330 0.443160 0.946140 -0.047779
N13   N     N_R   0.845670 0.556840 0.053860 -0.048374
N14   N     N_R   0.002190 0.556820 0.208880 -0.040203
N15   N     N_R   0.997810 0.443180 0.791120 -0.040035
N16   N     N_R   0.210550 0.556810 0.002910 -0.038651
Ni1   Ni    Ni4+2 0.869690 0.369690 0.000000 0.213136
Ni2   Ni    Ni4+2 0.130310 0.630310 0.000000 0.216932
Ni3   Ni    Ni4+2 0.001390 0.369680 0.869810 0.219815
Ni4   Ni    Ni4+2 0.998610 0.630320 0.130190 0.221714
O1    O     O_3   0.322337 0.402616 0.726217 -0.784865
O2    O     O_3   0.646561 0.602012 0.138810 -0.788574

loop_
_geom_bond_atom_site_label_1
_geom_bond_atom_site_label_2
_ccdc_geom_bond_type
C75   N16   A    
C1    H1    S    
C73   H14   S    
C58   C62   A    
C56   C76   A    
C64   H40   S    
C45   C71   S    
C22   H9    S    
C14   C18   A    
C1    N1    A    
C67   C77   A    
C24   C27   A    
C12   N9    A    
C65   N15   A    
C81   H48   S    
N2    N13   A    
C26   C28   A    
N11   Ni1   S    
C1    C84   A    
C15   C19   A    
N6    Ni3   S    
C62   C86   A    
C34   C51   S    
C12   C85   A    
C26   C67   S    
C65   H41   S    
C19   C21   A    
C24   C26   A    
C32   C61   A    
C38   C42   A    
C70   O2    S    
C43   H28   S    
C11   C14   A    
C48   H21   S    
C68   C74   S    
C81   N6    A    
C33   C36   A    
C18   C20   A    
C69   C71   S    
C75   H42   S    
C82   H49   S    
H53   O1    S    
C37   H26   S    
C31   H45   S    
C15   H6    S    
C3    C55   A    
C66   C72   S    
C29   C59   S    
N12   Ni3   S    
C49   C51   A    
C22   C25   A    
C4    C57   A    
C50   C52   A    
C66   H36   S    
C86   H33   S    
C34   C81   A    
C23   C80   A    
C61   H19   S    
C77   N3    A    
C12   H12   S    
C82   N7    A    
C44   C47   A    
N14   Ni4   S    
C76   N2    A    
C22   C28   A    
C40   C45   A    
C33   H22   S    
C42   C44   A    
C32   C57   A    
C36   H25   S    
C35   C48   A    
C68   H37   S    
C7    H58   S    
N2    Ni1   S    
C52   C54   A    
C5    C29   A    
H54   O2    S    
C80   N5    A    
C40   H38   S    
C62   C85   S    
C46   C48   A    
C50   C53   A    
C25   C78   S    
C64   C67   A    
C41   H39   S    
N12   N16   A    
C44   H29   S    
C72   C74   S    
N3    Ni1   S    
C9    H3    S    
C71   C73   S    
C78   C79   A    
C39   C43   A    
C56   C72   S    
C66   C73   S    
C80   H47   S    
C51   C53   A    
N4    N15   A    
N16   Ni2   S    
C31   C60   A    
N5    N10   A    
C41   C56   A    
C20   H56   S    
C76   H43   S    
C42   H27   S    
C40   N12   A    
C38   C54   S    
C29   C60   A    
C47   H20   S    
C70   C73   S    
C8    C21   A    
C32   H55   S    
C69   C74   S    
N5    Ni4   S    
N1    N7    A    
C9    C11   A    
N13   Ni4   S    
C21   H57   S    
C83   H50   S    
N8    Ni4   S    
C35   H24   S    
C74   H15   S    
C41   N13   A    
C4    C6    A    
C83   C85   A    
C5    H11   S    
C16   C23   A    
N7    Ni3   S    
N6    N11   A    
C13   C15   A    
C16   N10   A    
C33   C47   A    
C49   H31   S    
C17   C34   A    
C17   N11   A    
C2    C63   A    
C35   C37   A    
C83   N8    A    
C2    H35   S    
C16   H16   S    
C7    C9    A    
C65   C78   A    
C6    C30   A    
C50   H32   S    
C59   C63   A    
N10   Ni2   S    
C8    C10   A    
C13   C27   S    
C3    C5    A    
C10   C13   A    
C2    C58   A    
C79   N4    A    
C25   C27   A    
C63   C84   S    
C82   C84   A    
C55   H51   S    
C46   H30   S    
N9    Ni2   S    
C45   C75   A    
N4    Ni2   S    
C6    H13   S    
C31   C55   A    
C24   H10   S    
C17   H17   S    
C59   C86   A    
C37   C39   A    
C23   C52   S    
C39   C53   S    
N1    Ni1   S    
C11   C28   S    
C3    H23   S    
C68   C71   S    
C79   H46   S    
C30   C58   S    
C36   C38   A    
C57   H52   S    
N15   Ni3   S    
C77   H44   S    
C43   C46   A    
C69   O1    S    
C14   H5    S    
C66   C69   S    
N8    N9    A    
C10   H4    S    
C68   C70   S    
C7    C20   A    
C30   C61   A    
C64   N14   A    
C18   H7    S    
C4    H34   S    
C70   C72   S    
C8    H2    S    
C60   H18   S    
N3    N14   A    
C19   H8    S    
C49   C54   A    
