data_mof_unit_49678.cif
_audit_creation_date              2012-12-10T17:01:35-0500
_audit_creation_method            fapswitch 2.2
_symmetry_space_group_name_H-M    P1
_symmetry_Int_Tables_number       1
_space_group_crystal_system       triclinic
_cell_length_a                    12.838228
_cell_length_b                    10.7141
_cell_length_c                    10.066158
_cell_angle_alpha                 89.579931
_cell_angle_beta                  98.261821
_cell_angle_gamma                 90.565039
_cell_volume                      1370.13980404

loop_
_atom_site_label
_atom_site_type_symbol
_atom_type_description
_atom_site_fract_x
_atom_site_fract_y
_atom_site_fract_z
_atom_type_partial_charge
C1    C     C_R   0.495942 0.262848 0.499673 0.935016
C2    C     C_2   0.479913 0.131653 0.498003 -0.424772
C3    C     C_2   0.560167 0.571681 0.937049 0.189508
C4    C     C_R   0.298134 0.501562 0.472333 0.921306
C5    C     C_2   0.571943 0.552002 0.085597 -0.119878
C6    C     C_R   0.497431 0.737313 0.498582 0.972259
C7    C     C_R   0.701558 0.501007 0.527509 0.951496
C8    C     C_R   0.813785 0.497030 0.546401 -0.193562
C9    C     C_R   0.185088 0.503617 0.453221 -0.244337
C10   C     C_R   0.023987 0.602615 0.361019 -0.207905
C11   C     C_R   0.130435 0.588414 0.362330 0.114610
C12   C     C_R   0.026718 0.454598 0.548174 -0.104663
C13   C     C_R   0.132186 0.429005 0.538674 0.440187
C14   C     C_3   0.849177 0.782354 0.435410 0.053235
C15   C     C_3   0.754993 0.852070 0.473657 -0.328321
C16   C     C_3   0.785255 0.984271 0.521162 -0.941592
C17   C     C_3   0.013154 0.357584 0.876270 0.112429
C18   C     C_3   0.066755 0.483713 0.917587 -0.347026
C19   C     C_3   0.991830 0.594338 0.894184 -0.836274
C20   C     C_3   0.209174 0.235024 0.546734 0.121536
C21   C     C_3   0.120412 0.137514 0.539174 -0.357786
C22   C     C_3   0.147629 0.020348 0.466264 -0.911156
C23   C     C_R   0.972848 0.542375 0.457082 -0.120585
C24   C     C_3   0.472406 0.900499 0.153031 0.127797
C25   C     C_3   0.397056 0.970881 0.047162 -0.335021
C26   C     C_3   0.446353 0.996140 0.920226 -0.927782
C27   C     C_R   0.868068 0.569830 0.463718 0.447410
C28   C     C_R   0.865302 0.412521 0.638166 -0.417679
C29   C     C_R   0.973842 0.397157 0.647079 0.561751
C30   C     C_2   0.469388 0.933953 0.381129 0.524437
C31   C     C_2   0.499857 0.869824 0.495319 -0.448913
C32   C     C_2   0.478369 0.069100 0.383710 -0.258076
H1    H     H_    0.465334 0.088166 0.591273 0.159645
H2    H     H_    0.692769 0.857090 0.384878 0.226146
H3    H     H_    0.723581 0.800063 0.555410 0.227850
H4    H     H_    0.846542 0.981514 0.611066 0.274032
H5    H     H_    0.714969 0.032185 0.548097 0.269650
H6    H     H_    0.815599 0.038595 0.440208 0.261678
H7    H     H_    0.051798 0.285622 0.946095 0.146563
H8    H     H_    0.929429 0.355245 0.892660 0.125215
H9    H     H_    0.096905 0.479977 0.026738 0.222804
H10   H     H_    0.134872 0.499821 0.862683 0.272987
H11   H     H_    0.968243 0.612395 0.785520 0.257489
H12   H     H_    0.481868 0.415523 0.888319 0.188253
H13   H     H_    0.032236 0.679496 0.938781 0.272391
H14   H     H_    0.920564 0.577215 0.942780 0.269863
H15   H     H_    0.282115 0.192572 0.600076 0.163805
H16   H     H_    0.225630 0.258997 0.443694 0.101262
H17   H     H_    0.106894 0.111265 0.642380 0.260839
H18   H     H_    0.046615 0.177510 0.484972 0.215646
H19   H     H_    0.159797 0.043733 0.361860 0.279875
H20   H     H_    0.082051 0.951474 0.462550 0.261726
H21   H     H_    0.220304 0.977254 0.519858 0.275510
H22   H     H_    0.491728 0.810032 0.109692 0.193211
H23   H     H_    0.642455 0.588827 0.145298 0.183432
H24   H     H_    0.548623 0.952290 0.176681 0.099229
H25   H     H_    0.323939 0.914580 0.020454 0.256256
H26   H     H_    0.375152 0.061139 0.088602 0.222850
H27   H     H_    0.519907 0.052030 0.944195 0.268059
H28   H     H_    0.390391 0.049264 0.846959 0.265062
H29   H     H_    0.464254 0.906837 0.873358 0.287708
H30   H     H_    0.820456 0.356760 0.700452 0.183072
H31   H     H_    0.982700 0.666389 0.288389 0.199710
H32   H     H_    0.536201 0.913340 0.587541 0.140939
H33   H     H_    0.484246 0.117782 0.290194 0.184231
H34   H     H_    0.880625 0.835638 0.354511 0.166549
H35   H     H_    0.912689 0.780518 0.524046 0.133180
I1    I     I_    0.658456 0.712700 0.872543 -0.428051
I2    I     I_    0.346650 0.462940 0.059402 -0.308264
I3    I     I_    0.201085 0.714152 0.237302 -0.347533
N1    N     N_2   0.501130 0.501330 0.852280 -0.181452
N2    N     N_2   0.501160 0.501360 0.147950 -0.040136
O1    O     O_R   0.499980 0.319060 0.613040 -0.629745
O2    O     O_3   0.027477 0.320400 0.745041 -0.606050
O3    O     O_3   0.186303 0.340038 0.622131 -0.584670
O4    O     O_3   0.421447 0.873634 0.265937 -0.588040
O5    O     O_R   0.500020 0.319100 0.386900 -0.608248
O6    O     O_R   0.346340 0.499960 0.594380 -0.575652
O7    O     O_R   0.346380 0.500000 0.368250 -0.571680
O8    O     O_R   0.499980 0.680900 0.613100 -0.598147
O9    O     O_R   0.500020 0.680940 0.386960 -0.560586
O10   O     O_R   0.653620 0.500000 0.631750 -0.609773
O11   O     O_R   0.653660 0.500040 0.405620 -0.598661
O12   O     O_3   0.815890 0.662978 0.384445 -0.643548
Zn1   Zn    Zn3+2 0.499980 0.499970 0.650990 0.990586
Zn2   Zn    Zn3+2 0.500020 0.500030 0.349010 1.025286

loop_
_geom_bond_atom_site_label_1
_geom_bond_atom_site_label_2
_ccdc_geom_bond_type
C7    O11   A    
C12   C29   A    
C1    O5    A    
C3    I1    S    
C14   O12   S    
C10   H31   S    
C21   H17   S    
C11   I3    S    
C7    C8    S    
C12   C23   A    
C27   O12   S    
C26   H29   S    
C18   C19   S    
C5    N2    D    
C18   H10   S    
C30   C31   D    
C24   H22   S    
C15   C16   S    
H12   N1    S    
C2    C32   D    
C1    C2    S    
C17   H7    S    
C9    C13   A    
N1    Zn1   S    
C13   O3    S    
C14   H35   S    
C23   C27   A    
C26   H27   S    
C15   H2    S    
O9    Zn2   S    
C16   H5    S    
C6    C31   S    
C6    O9    A    
C21   C22   S    
C25   H25   S    
C15   H3    S    
C21   H18   S    
C19   H11   S    
C22   H21   S    
C19   H14   S    
C24   C25   S    
C4    O7    A    
C18   H9    S    
C24   O4    S    
C29   O2    S    
C25   C26   S    
C20   O3    S    
C17   H8    S    
I2    N2    S    
C3    N1    D    
C4    O6    A    
O8    Zn1   S    
C30   O4    S    
C6    O8    A    
O11   Zn2   S    
C17   C18   S    
C14   H34   S    
C12   C13   A    
C9    C11   A    
O1    Zn1   S    
C20   H16   S    
C2    H1    S    
O5    Zn2   S    
C17   O2    S    
C8    C28   A    
C25   H26   S    
O6    Zn1   S    
C22   H20   S    
C28   C29   A    
C31   H32   S    
C5    H23   S    
C3    C5    S    
N2    Zn2   S    
C19   H13   S    
C10   C23   A    
C24   H24   S    
O10   Zn1   S    
C1    O1    A    
C16   H4    S    
C30   C32   S    
C20   H15   S    
C10   C11   A    
C7    O10   A    
C20   C21   S    
C8    C27   A    
C14   C15   S    
C22   H19   S    
C4    C9    S    
C26   H28   S    
O7    Zn2   S    
C16   H6    S    
C32   H33   S    
C28   H30   S    
