data_mof_unit_66854.cif
_audit_creation_date              2013-03-05T15:57:20-0500
_audit_creation_method            fapswitch 2.2
_symmetry_space_group_name_H-M    P1
_symmetry_Int_Tables_number       1
_space_group_crystal_system       triclinic
_cell_length_a                    17.131017
_cell_length_b                    18.337391
_cell_length_c                    8.365565
_cell_angle_alpha                 90.000035
_cell_angle_beta                  101.883092
_cell_angle_gamma                 89.996523
_cell_volume                      2571.625801

loop_
_atom_site_label
_atom_site_type_symbol
_atom_site_description
_atom_site_fract_x
_atom_site_fract_y
_atom_site_fract_z
_atom_type_partial_charge
P1    P     P_3+3 0.834140 0.419320 0.003900 0.450959
P2    P     P_3+3 0.834140 0.580680 0.503900 0.449369
P3    P     P_3+3 0.334140 0.919320 0.003900 0.452451
P4    P     P_3+3 0.334140 0.080680 0.503900 0.450794
O1    O     O_2   0.841960 0.394640 0.833410 -0.373322
O2    O     O_2   0.841960 0.605360 0.333410 -0.370492
O3    O     O_2   0.341960 0.894640 0.833410 -0.365818
O4    O     O_2   0.341960 0.105360 0.333410 -0.372100
O5    O     O_3   0.907950 0.463080 0.102990 -0.397381
O6    O     O_3   0.907950 0.536920 0.602990 -0.398699
O7    O     O_3   0.407950 0.963080 0.102990 -0.401844
O8    O     O_3   0.407950 0.036920 0.602990 -0.397657
O9    O     O_3   0.972780 0.329600 0.629720 -0.393564
O10   O     O_3   0.972780 0.670400 0.129720 -0.393235
O11   O     O_3   0.472780 0.829600 0.629720 -0.390767
O12   O     O_3   0.472780 0.170400 0.129720 -0.390491
O13   O     O_2   0.841402 0.271545 0.694964 -0.370245
O14   O     O_2   0.841460 0.728536 0.194699 -0.375371
O15   O     O_2   0.339031 0.774481 0.690264 -0.372530
O16   O     O_2   0.340060 0.226737 0.192062 -0.370871
O17   O     O_3   0.751130 0.477140 0.968590 -0.582808
O18   O     O_3   0.751046 0.522959 0.467815 -0.583052
O19   O     O_3   0.251059 0.977040 0.967621 -0.583959
O20   O     O_3   0.251101 0.022933 0.468648 -0.581245
O21   O     O_3   0.947533 0.178503 0.640561 -0.455075
O22   O     O_3   0.947469 0.821503 0.140161 -0.458126
O23   O     O_3   0.442407 0.677908 0.642638 -0.474994
O24   O     O_3   0.445489 0.321515 0.144989 -0.460323
H1    H     H_    0.067340 0.202790 0.707803 0.127617
H2    H     H_    0.066733 0.795068 0.208875 0.128319
H3    H     H_    0.560231 0.702532 0.736916 0.150462
H4    H     H_    0.566145 0.300017 0.201077 0.120624
C1    C     C_3   0.047951 0.100190 0.579727 -0.990438
C2    C     C_3   0.049959 0.899302 0.087379 -0.985499
C3    C     C_3   0.548327 0.598753 0.613745 -1.018261
C4    C     C_3   0.541393 0.405144 0.085316 -0.990591
H5    H     H_    0.612006 0.596574 0.604449 0.233160
H6    H     H_    0.602548 0.410082 0.061116 0.234598
H7    H     H_    0.110095 0.098095 0.560135 0.235805
H8    H     H_    0.112081 0.900962 0.067553 0.233367
H9    H     H_    0.043086 0.067107 0.688041 0.278511
H10   H     H_    0.045826 0.930838 0.198285 0.277106
H11   H     H_    0.539475 0.567518 0.722133 0.282574
H12   H     H_    0.537585 0.435450 0.198253 0.274156
P5    P     P_3+3 0.165830 0.418670 0.685610 0.490579
P6    P     P_3+3 0.165830 0.581330 0.185610 0.499640
P7    P     P_3+3 0.665830 0.918670 0.685610 0.484745
P8    P     P_3+3 0.665830 0.081330 0.185610 0.484780
P9    P     P_3+3 0.100844 0.262626 0.109597 0.444983
P10   P     P_3+3 0.101081 0.737223 0.608141 0.444296
P11   P     P_3+3 0.598125 0.760664 0.108286 0.454867
P12   P     P_3+3 0.600607 0.237566 0.609508 0.446126
O25   O     O_2   0.157990 0.394030 0.856030 -0.342075
O26   O     O_2   0.157990 0.605970 0.356030 -0.340998
O27   O     O_2   0.657990 0.894030 0.856030 -0.351570
O28   O     O_2   0.657990 0.105970 0.356030 -0.347419
O29   O     O_3   0.027110 0.329490 0.059550 -0.377415
O30   O     O_3   0.027110 0.670510 0.559550 -0.377372
O31   O     O_3   0.527110 0.829490 0.059550 -0.350938
O32   O     O_3   0.527110 0.170510 0.559550 -0.378778
O33   O     O_2   0.163438 0.276271 0.004116 -0.375510
O34   O     O_2   0.162255 0.724560 0.499009 -0.382053
O35   O     O_2   0.654860 0.767164 0.987193 -0.390260
O36   O     O_2   0.662743 0.224695 0.502509 -0.375280
O37   O     O_3   0.251070 0.472857 0.726589 -0.545052
O38   O     O_3   0.248781 0.524062 0.226539 -0.523089
O39   O     O_3   0.748703 0.976049 0.726789 -0.539734
O40   O     O_3   0.749308 0.024676 0.226037 -0.542700
O41   O     O_3   0.059891 0.178493 0.039532 -0.518153
O42   O     O_3   0.059654 0.821765 0.542488 -0.519093
O43   O     O_3   0.545652 0.679434 0.055323 -0.500034
O44   O     O_3   0.558680 0.321648 0.541537 -0.517906
C5    C     C_3   0.989696 0.166715 0.098010 0.445677
C6    C     C_3   0.988688 0.831794 0.599370 0.445947
C7    C     C_3   0.512035 0.658795 0.188406 0.357604
C8    C     C_3   0.486737 0.330987 0.595190 0.452324
H13   H     H_    0.937850 0.188092 0.007876 0.113061
H14   H     H_    0.937505 0.811195 0.506278 0.112961
H15   H     H_    0.486549 0.706172 0.243361 0.067718
H16   H     H_    0.436368 0.311728 0.498594 0.115196
H17   H     H_    0.990291 0.192773 0.218087 0.025220
H18   H     H_    0.988518 0.803855 0.717161 0.027584
H19   H     H_    0.558385 0.631434 0.281293 0.072258
H20   H     H_    0.484613 0.301371 0.710109 0.026273
C9    C     C_3   0.980009 0.085152 0.118474 -0.988986
C10   C     C_3   0.978241 0.912927 0.625194 -0.991626
C11   C     C_3   0.443818 0.605963 0.132689 -0.883588
C12   C     C_3   0.476421 0.411682 0.626024 -1.002469
H21   H     H_    0.392927 0.636023 0.058036 0.227157
H22   H     H_    0.420146 0.420949 0.669448 0.251444
H23   H     H_    0.925033 0.073803 0.165115 0.252549
H24   H     H_    0.922365 0.922935 0.669834 0.253723
H25   H     H_    0.976572 0.057199 0.999524 0.281870
H26   H     H_    0.976057 0.942712 0.508752 0.280182
H27   H     H_    0.463038 0.560846 0.061165 0.264611
H28   H     H_    0.475044 0.442968 0.511853 0.280309
C13   C     C_3   0.225318 0.454033 0.262913 0.284875
C14   C     C_3   0.231827 0.544816 0.756541 0.233944
C15   C     C_3   0.726464 0.954454 0.262298 0.263102
C16   C     C_3   0.724877 0.046065 0.762384 0.269112
H29   H     H_    0.206370 0.454790 0.381430 0.021813
H30   H     H_    0.222222 0.549344 0.882994 0.023204
H31   H     H_    0.707574 0.955053 0.380961 0.021511
H32   H     H_    0.704056 0.045131 0.878948 0.020159
H33   H     H_    0.176811 0.432209 0.165771 0.109611
H34   H     H_    0.178944 0.565457 0.668321 0.119377
H35   H     H_    0.678081 0.932431 0.165089 0.113211
H36   H     H_    0.677532 0.068052 0.663107 0.116014
C17   C     C_3   0.296532 0.404259 0.273873 0.415824
C18   C     C_3   0.302453 0.590961 0.738052 0.416384
C19   C     C_3   0.798115 0.905098 0.273349 0.413315
C20   C     C_3   0.796463 0.095770 0.778258 0.416015
H37   H     H_    0.343679 0.420893 0.378391 0.070584
H38   H     H_    0.355781 0.572953 0.827184 0.094267
H39   H     H_    0.844984 0.921826 0.378330 0.067339
H40   H     H_    0.842018 0.079168 0.885526 0.065707
H41   H     H_    0.279755 0.347003 0.291130 0.030743
H42   H     H_    0.290160 0.649220 0.757381 0.053047
H43   H     H_    0.781691 0.847715 0.290300 0.033797
H44   H     H_    0.779354 0.153022 0.794136 0.032009
Ba1   Ba    Ba6+2 0.000000 0.447380 0.844850 1.559839
Ba2   Ba    Ba6+2 0.000000 0.552620 0.344850 1.558101
Ba3   Ba    Ba6+2 0.500000 0.947380 0.844850 1.564795
Ba4   Ba    Ba6+2 0.500000 0.052620 0.344850 1.559830
C21   C     C_3   0.769893 0.543806 0.904407 0.387250
C22   C     C_3   0.770678 0.455607 0.408076 0.365378
C23   C     C_3   0.270797 0.044583 0.909039 0.364217
C24   C     C_3   0.270048 0.956101 0.405583 0.366455
H45   H     H_    0.762929 0.537780 0.770963 0.111074
H46   H     H_    0.770105 0.461424 0.276552 0.114606
H47   H     H_    0.270224 0.039246 0.777471 0.113819
H48   H     H_    0.266126 0.962402 0.273032 0.112009
H49   H     H_    0.831014 0.563204 0.958816 0.119351
H50   H     H_    0.829489 0.434609 0.473480 0.124512
H51   H     H_    0.329572 0.065420 0.974767 0.125664
H52   H     H_    0.330049 0.935702 0.465109 0.121858
C25   C     C_3   0.711412 0.601010 0.939239 -0.910960
C26   C     C_3   0.707706 0.400341 0.430474 -0.869876
C27   C     C_3   0.207889 0.099674 0.932389 -0.867871
C28   C     C_3   0.209137 0.899909 0.433793 -0.873281
H53   H     H_    0.650875 0.577437 0.925796 0.272971
H54   H     H_    0.647618 0.425444 0.401440 0.271569
H55   H     H_    0.147793 0.074835 0.901224 0.270739
H56   H     H_    0.148942 0.924617 0.413905 0.274041
H57   H     H_    0.709176 0.647631 0.854180 0.223636
H58   H     H_    0.708748 0.352610 0.349660 0.218120
H59   H     H_    0.209558 0.148102 0.854012 0.219176
H60   H     H_    0.207972 0.853036 0.349750 0.216242
H61   H     H_    0.730290 0.620954 0.065987 0.274314
H62   H     H_    0.719215 0.381707 0.559177 0.271772
H63   H     H_    0.218803 0.117087 0.061715 0.272367
H64   H     H_    0.224572 0.880100 0.561264 0.274439
O45   O     O_3   0.092100 0.536880 0.086720 -0.405198
O46   O     O_3   0.092100 0.463120 0.586720 -0.403071
O47   O     O_3   0.592100 0.036880 0.086720 -0.404334
O48   O     O_3   0.592100 0.963120 0.586720 -0.404399
P13   P     P_3+3 0.900930 0.738304 0.080376 0.492595
P14   P     P_3+3 0.900922 0.261694 0.580719 0.496671
P15   P     P_3+3 0.400585 0.238093 0.080648 0.493245
P16   P     P_3+3 0.399803 0.762453 0.579836 0.488309
C29   C     C_3   0.024084 0.178476 0.604201 0.496094
C30   C     C_3   0.024451 0.821034 0.106011 0.496152
C31   C     C_3   0.522515 0.677389 0.627149 0.521532
C32   C     C_3   0.520637 0.325312 0.102733 0.504734
H65   H     H_    0.026968 0.209094 0.491093 0.007406
H66   H     H_    0.027372 0.791707 0.991214 0.005522
H67   H     H_    0.532343 0.707232 0.517669 -0.019446
H68   H     H_    0.522289 0.297699 0.985310 0.003070
H69   H     H_    0.511686 0.573052 0.503602 0.266806
H70   H     H_    0.498069 0.429991 0.982935 0.269844
H71   H     H_    0.007019 0.076598 0.472255 0.271134
H72   H     H_    0.009388 0.924886 0.982048 0.272936
H73   H     H_    0.423741 0.582766 0.239985 0.248508
H74   H     H_    0.527599 0.431411 0.719790 0.265967
H75   H     H_    0.032431 0.063540 0.206273 0.263160
H76   H     H_    0.029899 0.933847 0.716297 0.262447
C33   C     C_R   0.138112 0.676941 0.920755 -0.537072
C34   C     C_R   0.135697 0.321372 0.424032 -0.544010
C35   C     C_R   0.635813 0.178632 0.923929 -0.539764
C36   C     C_R   0.637715 0.822725 0.420899 -0.526402
C37   C     C_R   0.864046 0.322074 0.266719 -0.524144
C38   C     C_R   0.864220 0.678125 0.766162 -0.522910
C39   C     C_R   0.363954 0.822301 0.265771 -0.502809
C40   C     C_R   0.364226 0.178075 0.766391 -0.523375
C41   C     C_R   0.792309 0.211626 0.300814 -0.177442
C42   C     C_R   0.792153 0.788321 0.800488 -0.183632
C43   C     C_R   0.291632 0.712447 0.299980 -0.168875
C44   C     C_R   0.292251 0.288349 0.800689 -0.177740
C45   C     C_R   0.849212 0.264256 0.364315 0.207181
C46   C     C_R   0.849172 0.735774 0.863947 0.210970
C47   C     C_R   0.348745 0.764806 0.363407 0.203464
C48   C     C_R   0.349447 0.235936 0.863904 0.205238
C49   C     C_R   0.817215 0.333019 0.110801 0.280006
C50   C     C_R   0.817470 0.667204 0.610185 0.275050
C51   C     C_R   0.317243 0.833059 0.109860 0.290591
C52   C     C_R   0.317240 0.167023 0.610685 0.279013
C53   C     C_R   0.755648 0.281663 0.047703 -0.068549
C54   C     C_R   0.756478 0.718976 0.546235 -0.053627
C55   C     C_R   0.256059 0.781432 0.046104 -0.063159
C56   C     C_R   0.255548 0.218302 0.547754 -0.070401
C57   C     C_R   0.243967 0.719402 0.142101 -0.103589
C58   C     C_R   0.243565 0.280506 0.643598 -0.106554
C59   C     C_R   0.743798 0.219374 0.143454 -0.106044
C60   C     C_R   0.744351 0.781059 0.642273 -0.104101
C61   C     C_R   0.183372 0.667272 0.078260 0.263888
C62   C     C_R   0.182092 0.331937 0.580276 0.267439
C63   C     C_R   0.682517 0.167840 0.079861 0.264853
C64   C     C_R   0.683404 0.832809 0.578221 0.263425
C65   C     C_R   0.152138 0.735319 0.824291 0.200942
C66   C     C_R   0.150220 0.263349 0.327065 0.196344
C67   C     C_R   0.650263 0.236676 0.826943 0.194608
C68   C     C_R   0.652331 0.764770 0.323639 0.160496
C69   C     C_R   0.207815 0.788827 0.888598 -0.197095
C70   C     C_R   0.206855 0.210492 0.390707 -0.195585
C71   C     C_R   0.706923 0.289512 0.890624 -0.194539
C72   C     C_R   0.708376 0.711554 0.388396 -0.210574
H77   H     H_    0.284036 0.667584 0.377024 0.247810
H78   H     H_    0.285405 0.333796 0.877841 0.242173
H79   H     H_    0.785623 0.166043 0.377877 0.238129
H80   H     H_    0.784995 0.833565 0.878001 0.238688
H81   H     H_    0.713361 0.335279 0.814013 0.178972
H82   H     H_    0.714090 0.665287 0.312797 0.173856
H83   H     H_    0.213568 0.834979 0.812596 0.180199
H84   H     H_    0.213320 0.164748 0.314099 0.179396
H85   H     H_    0.094055 0.636509 0.869199 0.177181
H86   H     H_    0.091047 0.361375 0.372906 0.176027
H87   H     H_    0.591024 0.138729 0.872948 0.176018
H88   H     H_    0.592737 0.862499 0.370142 0.174247
H89   H     H_    0.909539 0.361482 0.316814 0.172216
H90   H     H_    0.909876 0.638843 0.816121 0.172711
H91   H     H_    0.409545 0.861621 0.315871 0.167194
H92   H     H_    0.409726 0.138668 0.816493 0.172245
F1    F     F_    0.325038 0.410334 0.131607 -0.634954
F2    F     F_    0.317826 0.580461 0.584107 -0.650831
F3    F     F_    0.826901 0.911461 0.131354 -0.634368
F4    F     F_    0.827615 0.089776 0.639151 -0.631926

loop_
_geom_bond_atom_site_label_1
_geom_bond_atom_site_label_2
_geom_bond_distance
_ccdc_geom_bond_type
P6    C61   1.868581 S    
C15   H31   1.105694 S    
C12   H28   1.110240 S    
P1    O17   1.749409 S    
P5    C62   1.866730 S    
C14   C18   1.510284 S    
O1    Ba1   2.857975 S    
H4    C32   1.111571 S    
P3    O19   1.749289 S    
O7    Ba4   2.821815 S    
C2    H10   1.107819 S    
C20   H40   1.103870 S    
P4    O4    1.528279 D    
O6    Ba1   2.821705 S    
C54   C72   1.411724 A    
C28   H60   1.108024 S    
C9    H23   1.110811 S    
C12   H74   1.109805 S    
Ba3   Ba4   4.606507 S    
O43   C7    1.406564 S    
Ba3   O47   2.821790 S    
C26   H62   1.107892 S    
C20   H44   1.105322 S    
C34   C66   1.391074 A    
C1    H7    1.110651 S    
O11   Ba3   2.788451 S    
P7    C64   1.867611 S    
C29   H65   1.110063 S    
P1    O1    1.528273 D    
O15   P16   1.543360 D    
O28   Ba4   2.861326 S    
O38   C13   1.397726 S    
C25   H57   1.107900 S    
C3    H5    1.110235 S    
C23   H51   1.110942 S    
O37   C14   1.395203 S    
P6    O38   1.743213 S    
P3    O3    1.528273 D    
C24   H52   1.110674 S    
P4    O20   1.749100 S    
O18   C22   1.399073 S    
P7    O48   1.585454 S    
C22   H46   1.103464 S    
C35   C67   1.391114 A    
C18   F2    1.380079 S    
C16   H32   1.105274 S    
P9    O29   1.748190 S    
P4    Ba4   3.415427 S    
O22   P13   1.746215 S    
C19   H43   1.105891 S    
C33   C65   1.390966 A    
O32   Ba4   2.787752 S    
P13   C46   1.845343 S    
C40   C52   1.397815 A    
C10   H26   1.110665 S    
C36   C68   1.392126 A    
C30   H66   1.110740 S    
C9    H25   1.110082 S    
P11   C68   1.850569 S    
C38   H90   1.081941 S    
C10   H24   1.112011 S    
C60   C64   1.430808 A    
P10   C65   1.839711 S    
O21   C29   1.405901 S    
O16   P15   1.544398 D    
C11   H27   1.109957 S    
P9    C66   1.841623 S    
P2    O18   1.749556 S    
P12   C67   1.842629 S    
C39   C51   1.396627 A    
C40   C48   1.392963 A    
O41   C5    1.405099 S    
C38   C50   1.397770 A    
P4    O8    1.580535 S    
C3    H11   1.108985 S    
C28   H64   1.105837 S    
C43   C47   1.395334 A    
C53   C71   1.411541 A    
C52   C56   1.431450 A    
O23   C31   1.404775 S    
C33   H85   1.082292 S    
C28   H56   1.107068 S    
O26   Ba2   2.861326 S    
P7    O27   1.527599 D    
P5    O25   1.527599 D    
P9    O41   1.745492 S    
O12   P15   1.740605 S    
C35   H87   1.082278 S    
Ba2   O46   2.821680 S    
C25   H61   1.105172 S    
P2    O2    1.528279 D    
P11   O43   1.749077 S    
C6    H18   1.111160 S    
C24   H48   1.103073 S    
C22   H50   1.111571 S    
C5    H17   1.110510 S    
P3    Ba3   3.415479 S    
C51   C55   1.431509 A    
Ba3   O48   2.939192 S    
P2    Ba2   3.415427 S    
O31   Ba3   2.787711 S    
C11   H73   1.109990 S    
C1    H71   1.107964 S    
H3    C31   1.108584 S    
C8    H20   1.111255 S    
O30   Ba2   2.787752 S    
C16   H36   1.110254 S    
Ba1   O46   2.939192 S    
O10   P13   1.739673 S    
C17   H41   1.105850 S    
P10   O30   1.748043 S    
C68   C72   1.397582 A    
C32   H68   1.110659 S    
C2    H72   1.107852 S    
P11   O35   1.546133 D    
C40   H92   1.082030 S    
P12   O36   1.543487 D    
P14   C45   1.844939 S    
C37   H89   1.082026 S    
C37   C45   1.393091 A    
O4    Ba4   2.857864 S    
P5    Ba1   3.417665 S    
O23   P16   1.747619 S    
C66   C70   1.396904 A    
C20   F4    1.380884 S    
C42   H80   1.075449 S    
O22   C30   1.405720 S    
O24   P15   1.746781 S    
P3    C51   1.864762 S    
C8    C12   1.518596 S    
C13   H33   1.110402 S    
C18   H42   1.107156 S    
P2    C50   1.869219 S    
C3    C31   1.519136 S    
C42   C46   1.396700 A    
C1    C29   1.518007 S    
C4    C32   1.520562 S    
O42   C6    1.405872 S    
P12   O44   1.745887 S    
C14   H30   1.106660 S    
C27   H63   1.106389 S    
O9    Ba1   2.788451 S    
C19   F3    1.381693 S    
C33   C61   1.395699 A    
C35   C63   1.396807 A    
C31   H67   1.109113 S    
C15   C19   1.512439 S    
P6    O26   1.527594 D    
O5    Ba2   2.821815 S    
C25   H53   1.107721 S    
P1    O5    1.580612 S    
O44   C8    1.406239 S    
P7    O39   1.743582 S    
C6    C10   1.519220 S    
O13   P14   1.544996 D    
C5    C9    1.518399 S    
Ba1   Ba2   4.606507 S    
C70   H84   1.075104 S    
O39   C16   1.397754 S    
C57   C61   1.431227 A    
C27   H59   1.107730 S    
C7    C11   1.515685 S    
P8    O47   1.585533 S    
C12   H22   1.111053 S    
C16   C20   1.511745 S    
C44   H78   1.075178 S    
Ba4   O48   2.821680 S    
C54   C60   1.432964 A    
P10   O34   1.542606 D    
Ba2   O45   2.939174 S    
C2    H8    1.110707 S    
C4    H12   1.109538 S    
P11   O31   1.742029 S    
O2    Ba2   2.857864 S    
O17   C21   1.398998 S    
C4    H6    1.110896 S    
P2    O6    1.580535 S    
O27   Ba3   2.861215 S    
C39   H91   1.082025 S    
O9    P14   1.739632 S    
C42   C60   1.412011 A    
C37   C49   1.397945 A    
O24   C32   1.405177 S    
O20   C24   1.398603 S    
C43   H77   1.069445 S    
C21   H49   1.110781 S    
P4    C52   1.869531 S    
P6    O45   1.585533 S    
C18   H38   1.104101 S    
C22   C26   1.519642 S    
C5    H13   1.111406 S    
C41   H79   1.076032 S    
P1    Ba1   3.415479 S    
C58   C62   1.431506 A    
C55   C69   1.410352 A    
C56   C70   1.411046 A    
C8    H16   1.111376 S    
P16   C47   1.841958 S    
O3    Ba3   2.857975 S    
C2    C30   1.517656 S    
C39   C47   1.390772 A    
P8    Ba4   3.417719 S    
C19   H39   1.104392 S    
C41   C45   1.396679 A    
P7    Ba3   3.417665 S    
P5    O46   1.585454 S    
C17   H37   1.104115 S    
H2    C30   1.111359 S    
C15   H35   1.110787 S    
C43   C57   1.408271 A    
O19   C23   1.398864 S    
C4    H70   1.109120 S    
C14   H34   1.110527 S    
P8    O40   1.743382 S    
C65   C69   1.396677 A    
C44   C48   1.396410 A    
C21   C25   1.519539 S    
C41   C59   1.411803 A    
C23   H47   1.103016 S    
C11   H21   1.108885 S    
C13   C17   1.511154 S    
Ba1   O45   2.821790 S    
O40   C15   1.397216 S    
C1    H9    1.107754 S    
O11   P16   1.743132 S    
O14   P13   1.544656 D    
O25   Ba1   2.861215 S    
P5    O37   1.741033 S    
C69   H83   1.075184 S    
P9    O33   1.542982 D    
C7    H19   1.109907 S    
C50   C54   1.431400 A    
O8    Ba3   2.821705 S    
C59   C63   1.431172 A    
C26   H58   1.108352 S    
C49   C53   1.431342 A    
P15   C48   1.844585 S    
C34   C62   1.396366 A    
P8    C63   1.866834 S    
C44   C58   1.411357 A    
C9    H75   1.109648 S    
C3    H69   1.107683 S    
C36   H88   1.082189 S    
C53   C59   1.433354 A    
C10   H76   1.110601 S    
O12   Ba4   2.788409 S    
C72   H82   1.074635 S    
P10   O42   1.745854 S    
C34   H86   1.082275 S    
P3    O7    1.580612 S    
O29   Ba1   2.787711 S    
C21   H45   1.103539 S    
P8    O28   1.527594 D    
P12   O32   1.747984 S    
C6    H14   1.112109 S    
Ba4   O47   2.939174 S    
O21   P14   1.746606 S    
C55   C57   1.431852 A    
O10   Ba2   2.788409 S    
C26   H54   1.107905 S    
P1    C49   1.869514 S    
P6    Ba2   3.417719 S    
C27   H55   1.106728 S    
C67   C71   1.397074 A    
C38   C46   1.392816 A    
H1    C29   1.111120 S    
C36   C64   1.398098 A    
C7    H15   1.113258 S    
C23   C27   1.518769 S    
C56   C58   1.433134 A    
C13   H29   1.105032 S    
C71   H81   1.075343 S    
C24   C28   1.519142 S    
C17   F1    1.380821 S    
