data_mof_unit_63268.cif
_audit_creation_date              2013-03-05T16:07:37-0500
_audit_creation_method            fapswitch 2.2
_symmetry_space_group_name_H-M    P1
_symmetry_Int_Tables_number       1
_space_group_crystal_system       triclinic
_cell_length_a                    35.954406
_cell_length_b                    25.807961
_cell_length_c                    22.123733
_cell_angle_alpha                 90.000479
_cell_angle_beta                  144.335806
_cell_angle_gamma                 89.996357
_cell_volume                      11968.9982125

loop_
_atom_site_label
_atom_site_type_symbol
_atom_site_description
_atom_site_fract_x
_atom_site_fract_y
_atom_site_fract_z
_atom_type_partial_charge
Zn1   Zn    Zn3+2 0.824550 0.706220 0.087530 0.955906
Zn2   Zn    Zn3+2 0.824550 0.293780 0.087530 0.956596
Zn3   Zn    Zn3+2 0.324550 0.206220 0.087530 0.948898
Zn4   Zn    Zn3+2 0.324550 0.793780 0.087530 0.949617
Zn5   Zn    Zn3+2 0.762980 0.793760 0.087560 1.032494
Zn6   Zn    Zn3+2 0.762980 0.206240 0.087560 1.029225
Zn7   Zn    Zn3+2 0.262980 0.293760 0.087560 1.021974
Zn8   Zn    Zn3+2 0.262980 0.706240 0.087560 1.012976
Zn9   Zn    Zn3+2 0.737010 0.793770 0.912460 0.983000
Zn10  Zn    Zn3+2 0.737010 0.206230 0.912460 0.982604
Zn11  Zn    Zn3+2 0.237010 0.293770 0.912460 0.982111
Zn12  Zn    Zn3+2 0.237010 0.706230 0.912460 0.963415
Zn13  Zn    Zn3+2 0.675440 0.706230 0.912460 0.979552
Zn14  Zn    Zn3+2 0.675440 0.293770 0.912460 0.980089
Zn15  Zn    Zn3+2 0.175440 0.206230 0.912460 0.991354
Zn16  Zn    Zn3+2 0.175440 0.793770 0.912460 1.018514
O1    O     O_3   0.749990 0.749990 0.000000 -0.485172
O2    O     O_3   0.749990 0.250010 0.000000 -0.484805
O3    O     O_3   0.249990 0.249990 0.000000 -0.484084
O4    O     O_3   0.249990 0.750010 0.000000 -0.487149
O5    O     O_R   0.637170 0.719360 0.938750 -0.629340
O6    O     O_R   0.637170 0.280640 0.938750 -0.628587
O7    O     O_R   0.137170 0.219360 0.938750 -0.633445
O8    O     O_R   0.137170 0.780640 0.938750 -0.614304
O9    O     O_R   0.862810 0.719350 0.061240 -0.638064
O10   O     O_R   0.862810 0.280650 0.061240 -0.638441
O11   O     O_R   0.362810 0.219350 0.061240 -0.639485
O12   O     O_R   0.362810 0.780650 0.061240 -0.639138
O13   O     O_R   0.845300 0.780620 0.233710 -0.626057
O14   O     O_R   0.845300 0.219380 0.233710 -0.624718
O15   O     O_R   0.345300 0.280620 0.233710 -0.647623
O16   O     O_R   0.345300 0.719380 0.233710 -0.646238
O17   O     O_R   0.654690 0.780640 0.766300 -0.643198
O18   O     O_R   0.654690 0.219360 0.766300 -0.643234
O19   O     O_R   0.154690 0.280640 0.766300 -0.641771
O20   O     O_R   0.154690 0.719360 0.766300 -0.650368
O21   O     O_R   0.759080 0.866840 0.061290 -0.595815
O22   O     O_R   0.759080 0.133160 0.061290 -0.596422
O23   O     O_R   0.259080 0.366840 0.061290 -0.618816
O24   O     O_R   0.259080 0.633160 0.061290 -0.618410
O25   O     O_R   0.697810 0.633140 0.938720 -0.654723
O26   O     O_R   0.697810 0.366860 0.938720 -0.654810
O27   O     O_R   0.197810 0.133140 0.938720 -0.653552
O28   O     O_R   0.197810 0.866860 0.938720 -0.646621
O29   O     O_R   0.740900 0.866850 0.938740 -0.651564
O30   O     O_R   0.740900 0.133150 0.938740 -0.651542
O31   O     O_R   0.240900 0.366850 0.938740 -0.647489
O32   O     O_R   0.240900 0.633150 0.938740 -0.652892
O33   O     O_R   0.802180 0.633140 0.061250 -0.649615
O34   O     O_R   0.802180 0.366860 0.061250 -0.648613
O35   O     O_R   0.302180 0.133140 0.061250 -0.647434
O36   O     O_R   0.302180 0.866860 0.061250 -0.648136
O37   O     O_R   0.888390 0.719350 0.233690 -0.652790
O38   O     O_R   0.888390 0.280650 0.233690 -0.654076
O39   O     O_R   0.388390 0.219350 0.233690 -0.652499
O40   O     O_R   0.388390 0.780650 0.233690 -0.652234
O41   O     O_R   0.611600 0.719370 0.766300 -0.643779
O42   O     O_R   0.611600 0.280630 0.766300 -0.643798
O43   O     O_R   0.111600 0.219370 0.766300 -0.641298
O44   O     O_R   0.111600 0.780630 0.766300 -0.608744
O45   O     O_R   0.698440 0.780630 0.061300 -0.633668
O46   O     O_R   0.698440 0.219370 0.061300 -0.635685
O47   O     O_R   0.198440 0.280630 0.061300 -0.608102
O48   O     O_R   0.198440 0.719370 0.061300 -0.612841
O49   O     O_R   0.801540 0.780630 0.938710 -0.641614
O50   O     O_R   0.801540 0.219370 0.938710 -0.641778
O51   O     O_R   0.301540 0.280630 0.938710 -0.643769
O52   O     O_R   0.301540 0.719370 0.938710 -0.640640
C1    C     C_R   0.650286 0.750008 0.000005 0.834871
C2    C     C_R   0.650284 0.249993 0.000002 0.834977
C3    C     C_R   0.150277 0.250022 0.999984 0.851432
C4    C     C_R   0.150277 0.749983 0.999986 0.836624
C5    C     C_R   0.849678 0.749989 0.999960 0.818233
C6    C     C_R   0.849676 0.250011 0.999956 0.817865
C7    C     C_R   0.349677 0.249988 0.999959 0.811895
C8    C     C_R   0.349675 0.750011 0.999955 0.814841
C9    C     C_R   0.891231 0.749904 0.282762 0.780983
C10   C     C_R   0.891422 0.250048 0.282778 0.781153
C11   C     C_R   0.391407 0.249921 0.282783 0.759317
C12   C     C_R   0.391406 0.750078 0.282782 0.760626
C13   C     C_R   0.608693 0.750008 0.717251 0.804304
C14   C     C_R   0.608691 0.249992 0.717250 0.804319
C15   C     C_R   0.108711 0.249979 0.717248 0.811068
C16   C     C_R   0.108200 0.749642 0.717223 0.772966
C17   C     C_R   0.750098 0.891344 0.000130 0.810831
C18   C     C_R   0.750114 0.108655 0.000150 0.811255
C19   C     C_R   0.248643 0.391328 0.998580 0.813310
C20   C     C_R   0.248644 0.608670 0.998583 0.802455
C21   C     C_R   0.749912 0.608581 0.999880 0.740562
C22   C     C_R   0.749908 0.391419 0.999875 0.741485
C23   C     C_R   0.249911 0.108581 0.999881 0.744053
C24   C     C_R   0.249907 0.891418 0.999877 0.741067
C25   C     C_3   0.680975 0.529749 0.918834 -0.382378
C26   C     C_3   0.680973 0.470262 0.918831 -0.382634
C27   C     C_3   0.180983 0.029748 0.918913 -0.379453
C28   C     C_3   0.180979 0.970260 0.918911 -0.371528
H1    H     H_    0.661677 0.543950 0.937222 0.178943
H2    H     H_    0.661675 0.456065 0.937219 0.179003
H3    H     H_    0.161732 0.043951 0.937382 0.180482
H4    H     H_    0.161730 0.956063 0.937382 0.183045
H5    H     H_    0.648735 0.543955 0.839857 0.174982
H6    H     H_    0.648731 0.456062 0.839853 0.175050
H7    H     H_    0.148703 0.043952 0.839915 0.183113
H8    H     H_    0.148697 0.956059 0.839912 0.186011
H9    H     H_    0.775545 0.544404 0.129639 0.157200
H10   H     H_    0.775542 0.455594 0.129635 0.158567
H11   H     H_    0.275644 0.044403 0.129749 0.159724
H12   H     H_    0.275639 0.955593 0.129744 0.159878
C29   C     C_3   0.792840 0.529949 0.107998 -0.394492
C30   C     C_3   0.792837 0.470044 0.107994 -0.390601
C31   C     C_3   0.292891 0.029947 0.108029 -0.389597
C32   C     C_3   0.292888 0.970044 0.108025 -0.389547
C33   C     C_3   0.774654 0.529949 0.971300 -0.395857
C34   C     C_3   0.774650 0.470045 0.971295 -0.396262
C35   C     C_3   0.274586 0.029948 0.971191 -0.394811
C36   C     C_3   0.274582 0.970044 0.971186 -0.394649
C37   C     C_3   0.749612 0.550866 0.999524 0.198518
C38   C     C_3   0.749607 0.449134 0.999517 0.196801
C39   C     C_3   0.249610 0.050865 0.999524 0.189185
C40   C     C_3   0.249604 0.949133 0.999518 0.186330
H13   H     H_    0.823974 0.544211 0.028053 0.182661
H14   H     H_    0.823969 0.455772 0.028044 0.182714
H15   H     H_    0.323897 0.044210 0.027884 0.182720
H16   H     H_    0.323891 0.955770 0.027874 0.183011
H17   H     H_    0.744123 0.544406 0.893442 0.151788
H18   H     H_    0.744117 0.455595 0.893434 0.151857
H19   H     H_    0.244015 0.044405 0.893309 0.156986
H20   H     H_    0.244008 0.955595 0.893300 0.157079
H21   H     H_    0.842546 0.544215 0.167654 0.181562
H22   H     H_    0.842542 0.455768 0.167649 0.183215
H23   H     H_    0.342591 0.044213 0.167630 0.184913
H24   H     H_    0.342587 0.955767 0.167625 0.185160
C41   C     C_3   0.500531 0.202288 0.976297 -0.152138
C42   C     C_3   0.500302 0.797663 0.975851 -0.152032
C43   C     C_3   0.002096 0.701862 0.979428 -0.141437
C44   C     C_3   0.999791 0.297617 0.974832 -0.138935
C45   C     C_3   0.940808 0.734711 0.906386 -0.161260
C46   C     C_3   0.940132 0.263051 0.905036 -0.162615
C47   C     C_3   0.440358 0.236334 0.905487 -0.158649
C48   C     C_3   0.440294 0.763455 0.905359 -0.158629
H25   H     H_    0.891728 0.722232 0.829623 0.141530
H26   H     H_    0.890494 0.273672 0.827157 0.139879
H27   H     H_    0.390884 0.225141 0.827931 0.138283
H28   H     H_    0.390767 0.774470 0.827696 0.138708
H29   H     H_    0.501551 0.163121 0.956924 0.143596
H30   H     H_    0.501134 0.836786 0.956111 0.144051
H31   H     H_    0.004430 0.662393 0.962685 0.157184
H32   H     H_    0.000229 0.336641 0.954307 0.157960
H33   H     H_    0.458547 0.311967 0.870897 0.139730
H34   H     H_    0.458851 0.687745 0.871484 0.139913
H35   H     H_    0.956481 0.809718 0.866750 0.149556
H36   H     H_    0.959455 0.187183 0.872679 0.142259
C49   C     C_1   0.889398 0.749966 0.999894 -0.142514
C50   C     C_1   0.889391 0.250036 0.999883 -0.142816
C51   C     C_1   0.389407 0.249980 0.999915 -0.144316
C52   C     C_1   0.389402 0.750017 0.999906 -0.144526
C53   C     C_1   0.610510 0.249971 0.999954 -0.124299
C54   C     C_1   0.610515 0.750034 0.999961 -0.121814
C55   C     C_1   0.110488 0.749937 0.999904 -0.097677
C56   C     C_1   0.110490 0.250080 0.999908 -0.106702
C57   C     C_3   0.024024 0.717062 0.072849 -0.158293
C58   C     C_3   0.022395 0.284673 0.069605 -0.158856
C59   C     C_3   0.522936 0.215914 0.070677 -0.160461
C60   C     C_3   0.522769 0.784249 0.070355 -0.159046
C61   C     C_3   0.963392 0.749911 0.999808 0.190751
C62   C     C_3   0.963392 0.250106 0.999810 0.191968
C63   C     C_3   0.463419 0.249960 0.999869 0.195938
C64   C     C_3   0.463416 0.750041 0.999864 0.194966
C65   C     C_3   0.559501 0.263578 0.094262 -0.163128
C66   C     C_3   0.559566 0.736641 0.094391 -0.160552
C67   C     C_3   0.058991 0.765089 0.093228 -0.164497
C68   C     C_3   0.059673 0.237194 0.094593 -0.163410
C69   C     C_3   0.536442 0.249952 0.999883 0.195732
C70   C     C_3   0.536444 0.750054 0.999888 0.194650
C71   C     C_3   0.036408 0.749890 0.999809 0.188034
C72   C     C_3   0.036414 0.250136 0.999821 0.190185
C73   C     C_3   0.997706 0.797937 0.020187 -0.164803
C74   C     C_3   0.000017 0.202628 0.024798 -0.162976
C75   C     C_3   0.499330 0.297624 0.023453 -0.166083
C76   C     C_3   0.499559 0.702434 0.023900 -0.166954
C77   C     C_3   0.476924 0.283997 0.929073 -0.156472
C78   C     C_3   0.477091 0.715847 0.929396 -0.157128
C79   C     C_3   0.975776 0.782738 0.926767 -0.151621
C80   C     C_3   0.977411 0.215571 0.930025 -0.158734
C81   C     C_1   0.922807 0.749940 0.999844 -0.079189
C82   C     C_1   0.922802 0.250069 0.999837 -0.080180
C83   C     C_1   0.422825 0.249970 0.999886 -0.084376
C84   C     C_1   0.422820 0.750028 0.999876 -0.083293
C85   C     C_1   0.577058 0.249957 0.999913 -0.070705
C86   C     C_1   0.577062 0.750050 0.999921 -0.068464
C87   C     C_1   0.077027 0.749904 0.999845 -0.052760
C88   C     C_1   0.077032 0.250120 0.999855 -0.057062
H37   H     H_    0.995379 0.837409 0.036933 0.139415
H38   H     H_    0.999586 0.163602 0.045325 0.138545
H39   H     H_    0.498311 0.336791 0.042826 0.134884
H40   H     H_    0.498728 0.663309 0.043639 0.135359
H41   H     H_    0.608975 0.274770 0.171819 0.139676
H42   H     H_    0.609093 0.725627 0.172054 0.142826
H43   H     H_    0.108071 0.777568 0.169991 0.141562
H44   H     H_    0.109311 0.226573 0.172471 0.141343
H45   H     H_    0.043322 0.690081 0.132866 0.142379
H46   H     H_    0.040352 0.313063 0.126951 0.142439
H47   H     H_    0.541314 0.187943 0.128854 0.139199
H48   H     H_    0.541011 0.812351 0.128267 0.140517
C89   C     C_3   0.490069 0.763750 0.559468 0.188322
C90   C     C_3   0.490066 0.236269 0.559469 0.188302
C91   C     C_3   0.990169 0.264074 0.559468 0.185618
C92   C     C_3   0.997344 0.786890 0.558610 0.182935
H49   H     H_    0.482832 0.731718 0.583051 0.114382
H50   H     H_    0.482827 0.268312 0.583037 0.114344
H51   H     H_    0.982781 0.232230 0.583067 0.116975
H52   H     H_    0.017374 0.826941 0.584996 0.112976
C93   C     C_3   0.430415 0.765181 0.439183 -0.454772
C94   C     C_3   0.430414 0.234834 0.439186 -0.454820
C95   C     C_3   0.930519 0.265493 0.439182 -0.458740
C96   C     C_3   0.938447 0.787232 0.439201 -0.411188
H53   H     H_    0.407712 0.804153 0.409512 0.197616
H54   H     H_    0.407715 0.195864 0.409530 0.197555
H55   H     H_    0.908005 0.304538 0.409510 0.198504
H56   H     H_    0.894755 0.775958 0.406917 0.214028
H57   H     H_    0.394180 0.737491 0.408939 0.165964
H58   H     H_    0.394177 0.262532 0.408928 0.165779
H59   H     H_    0.894152 0.238001 0.408942 0.168893
H60   H     H_    0.930412 0.827408 0.411813 0.197898
H61   H     H_    0.535441 0.666270 0.588983 0.184710
H62   H     H_    0.535438 0.333734 0.588955 0.184672
H63   H     H_    0.035049 0.166292 0.588961 0.195724
H64   H     H_    0.086210 0.809537 0.587962 0.167764
C97   C     C_3   0.540866 0.696082 0.560153 -0.482644
C98   C     C_3   0.540864 0.303913 0.560136 -0.482644
C99   C     C_3   0.040617 0.195914 0.560129 -0.488795
C100  C     C_3   0.067233 0.769313 0.560419 -0.476071
C101  C     C_3   0.558814 0.789575 0.559284 -0.353459
C102  C     C_3   0.558813 0.210411 0.559295 -0.353689
C103  C     C_3   0.059036 0.289229 0.559272 -0.352925
C104  C     C_3   0.022890 0.693923 0.559437 -0.346062
C105  C     C_3   0.550863 0.750475 0.601822 0.071540
C106  C     C_3   0.550861 0.249526 0.601820 0.071707
C107  C     C_3   0.050891 0.250417 0.601812 0.061124
C108  C     C_3   0.049846 0.749683 0.601761 0.066251
H65   H     H_    0.600233 0.778009 0.585474 0.168064
H66   H     H_    0.600233 0.221963 0.585484 0.167754
H67   H     H_    0.100402 0.277388 0.585477 0.168378
H68   H     H_    0.058665 0.668900 0.583620 0.177352
H69   H     H_    0.569356 0.829207 0.589979 0.225286
H70   H     H_    0.569353 0.170781 0.590002 0.225274
H71   H     H_    0.069767 0.328910 0.589948 0.225124
H72   H     H_    0.014044 0.675814 0.592477 0.209762
C109  C     C_3   0.449058 0.750404 0.398174 0.146315
C110  C     C_3   0.449059 0.249593 0.398174 0.147124
C111  C     C_3   0.949082 0.250343 0.398164 0.112621
C112  C     C_3   0.948466 0.749936 0.398112 0.122271
C113  C     C_3   0.480750 0.696039 0.440256 -0.401674
C114  C     C_3   0.480749 0.303954 0.440239 -0.401980
C115  C     C_3   0.980489 0.195866 0.440223 -0.346251
C116  C     C_3   0.007851 0.768175 0.440566 -0.389409
C117  C     C_3   0.498589 0.790565 0.440401 -0.371693
C118  C     C_3   0.498589 0.209421 0.440413 -0.371812
C119  C     C_3   0.998818 0.290220 0.440393 -0.373772
C120  C     C_3   0.961034 0.694696 0.439805 -0.395301
H73   H     H_    0.477642 0.830208 0.413627 0.197726
H74   H     H_    0.477643 0.169781 0.413650 0.197711
H75   H     H_    0.978078 0.329939 0.413629 0.198442
H76   H     H_    0.920106 0.682087 0.414222 0.187135
H77   H     H_    0.511937 0.781837 0.410384 0.176242
H78   H     H_    0.511939 0.218137 0.410396 0.175914
H79   H     H_    0.012113 0.281210 0.410364 0.178083
H80   H     H_    0.965550 0.666422 0.408026 0.180079
H81   H     H_    0.583289 0.685055 0.588768 0.174841
H82   H     H_    0.583287 0.314926 0.588747 0.174687
H83   H     H_    0.082979 0.184618 0.588729 0.181186
H84   H     H_    0.105361 0.744732 0.590644 0.200530
C121  C     C_3   0.820140 0.969707 0.105032 0.099623
C122  C     C_3   0.820174 0.030258 0.104958 0.100670
C123  C     C_3   0.240563 0.469920 0.055308 0.097862
C124  C     C_3   0.240564 0.530073 0.055312 0.102025
H85   H     H_    0.849587 0.957490 0.104366 0.068105
H86   H     H_    0.849494 0.042327 0.103980 0.068295
H87   H     H_    0.284916 0.458002 0.138131 0.090698
H88   H     H_    0.284915 0.541986 0.138133 0.090393
H89   H     H_    0.712938 0.955518 0.044498 0.234274
H90   H     H_    0.713274 0.044356 0.045034 0.234403
H91   H     H_    0.145031 0.455180 0.836302 0.234324
H92   H     H_    0.145033 0.544819 0.836328 0.221575
C125  C     C_3   0.702816 0.970153 0.985023 -0.361360
C126  C     C_3   0.702920 0.029853 0.985242 -0.361281
C127  C     C_3   0.192282 0.470120 0.884649 -0.344300
C128  C     C_3   0.192280 0.529880 0.884653 -0.367092
C129  C     C_3   0.729769 0.970195 0.910526 -0.451548
C130  C     C_3   0.729681 0.029807 0.910439 -0.451603
C131  C     C_3   0.310765 0.470008 0.055330 -0.481885
C132  C     C_3   0.310764 0.529976 0.055329 -0.476497
C133  C     C_3   0.751053 0.948991 0.001441 0.021510
C134  C     C_3   0.751072 0.051005 0.001466 0.021615
C135  C     C_3   0.247085 0.448975 0.997526 0.029705
C136  C     C_3   0.247085 0.551019 0.997529 0.039581
H93   H     H_    0.681054 0.955933 0.834960 0.220246
H94   H     H_    0.680894 0.043997 0.834920 0.220261
H95   H     H_    0.317663 0.455713 0.017411 0.201976
H96   H     H_    0.317660 0.544269 0.017407 0.202157
H97   H     H_    0.762445 0.956115 0.917547 0.189718
H98   H     H_    0.762212 0.043963 0.917195 0.189772
H99   H     H_    0.351801 0.455603 0.136670 0.163652
H100  H     H_    0.351801 0.544374 0.136669 0.163139
H101  H     H_    0.654022 0.956141 0.909268 0.174804
H102  H     H_    0.654133 0.044006 0.909697 0.174602
H103  H     H_    0.199113 0.456439 0.846379 0.182646
H104  H     H_    0.199099 0.543566 0.846369 0.181530
N1    N     N_R   0.497037 0.812188 0.602925 0.201897
O53   O     O_R   0.499830 0.810726 0.665337 -0.400657
O54   O     O_R   0.497351 0.856952 0.576256 -0.412793
N2    N     N_R   0.497036 0.187840 0.602947 0.201888
O55   O     O_R   0.499827 0.189318 0.665356 -0.400631
O56   O     O_R   0.497354 0.143068 0.576299 -0.412835
N3    N     N_R   0.997384 0.312660 0.602927 0.205317
O57   O     O_R   0.000237 0.311476 0.665424 -0.377520
O58   O     O_R   0.997925 0.357289 0.576259 -0.407719
N4    N     N_R   0.978965 0.774100 0.596786 0.222166
O59   O     O_R   0.988127 0.807887 0.651673 -0.357272
O60   O     O_R   0.947689 0.731859 0.567886 -0.410401
H105  H     H_    0.446484 0.666497 0.412008 0.188054
H106  H     H_    0.446481 0.333505 0.411979 0.187895
H107  H     H_    0.946075 0.166520 0.411981 0.223911
H108  H     H_    0.999389 0.807520 0.410406 0.189380
H109  H     H_    0.494176 0.684801 0.411108 0.162507
H110  H     H_    0.494175 0.315180 0.411089 0.162211
H111  H     H_    0.993835 0.184341 0.411043 0.185123
H112  H     H_    0.016783 0.741555 0.413692 0.189512
N5    N     N_R   0.850509 0.946910 0.198978 0.250757
O61   O     O_R   0.904190 0.922072 0.264082 -0.409981
O62   O     O_R   0.823718 0.948778 0.216581 -0.328943
N6    N     N_R   0.850788 0.053181 0.199025 0.250109
O63   O     O_R   0.904597 0.077780 0.264036 -0.414494
O64   O     O_R   0.824119 0.051639 0.216858 -0.331401
N7    N     N_R   0.186781 0.447231 0.018100 0.251454
O65   O     O_R   0.197446 0.424987 0.083992 -0.351559
O66   O     O_R   0.128857 0.447773 0.920610 -0.331372
N8    N     N_R   0.186779 0.552766 0.018095 0.249828
O67   O     O_R   0.197445 0.575056 0.083963 -0.352846
O68   O     O_R   0.128838 0.552142 0.920630 -0.351096

loop_
_geom_bond_atom_site_label_1
_geom_bond_atom_site_label_2
_geom_bond_distance
_ccdc_geom_bond_type
C121  N5    1.473304 S    
C109  C113  1.552341 S    
Zn5   O21   1.944784 S    
C43   C57   1.549010 S    
C63   C75   1.535578 S    
C131  C132  1.547649 S    
O23   C19   1.272429 A    
C120  H76   1.112829 S    
C30   C38   1.550988 S    
C44   C58   1.549023 S    
C59   H47   1.110106 S    
C73   H37   1.110104 S    
C117  H73   1.113471 S    
C119  H75   1.113475 S    
O42   C14   1.276438 A    
C27   H3    1.113489 S    
O46   C2    1.282981 A    
C72   C80   1.535573 S    
C101  C105  1.556554 S    
C60   H48   1.110106 S    
C97   H81   1.113199 S    
O34   C22   1.277055 A    
C124  H88   1.116731 S    
C115  H111  1.113006 S    
Zn3   O3    1.943420 S    
C46   C80   1.548993 S    
Zn16  O28   1.945117 S    
C90   N2    1.469187 S    
O28   C24   1.273969 A    
C90   C94   1.552069 S    
Zn10  O50   1.909450 S    
C113  H109  1.112997 S    
Zn4   O40   1.944015 S    
C95   C111  1.551137 S    
O27   C23   1.273945 A    
C103  C107  1.556503 S    
O11   C7    1.282986 A    
C41   C59   1.548993 S    
C45   C61   1.535608 S    
C76   C78   1.548984 S    
C42   H30   1.110106 S    
C35   H15   1.112990 S    
C60   C64   1.535588 S    
C117  H77   1.113522 S    
C25   H5    1.113524 S    
C32   C40   1.550990 S    
C75   H39   1.110105 S    
C98   H82   1.113195 S    
C27   C39   1.554243 S    
C64   C76   1.535577 S    
C129  C133  1.558727 S    
C131  C135  1.553928 S    
C96   H60   1.114111 S    
O16   C12   1.276767 A    
Zn16  O4    1.943037 S    
Zn12  O4    1.943357 S    
Zn13  O5    1.909657 S    
Zn2   O10   1.909308 S    
C123  N7    1.474208 S    
C103  H67   1.113725 S    
C43   H31   1.110112 S    
C44   C46   1.549032 S    
Zn6   O14   1.944157 S    
O47   C3    1.282969 A    
C41   C47   1.549004 S    
Zn7   O3    1.943359 S    
C28   H8    1.113526 S    
C41   H29   1.110105 S    
C97   C105  1.552816 S    
C112  C120  1.552464 S    
C71   C79   1.535569 S    
C66   C70   1.535576 S    
C43   C45   1.549028 S    
C122  N6    1.473272 S    
C42   C70   1.535573 S    
C62   C82   1.459857 S    
C2    C53   1.429177 S    
C129  H93   1.113689 S    
O24   C20   1.272448 A    
Zn11  O19   1.944204 S    
C51   C83   1.202067 T    
C101  H69   1.110311 S    
Zn10  O2    1.943357 S    
C127  C135  1.555956 S    
C128  C136  1.555969 S    
Zn9   O49   1.909399 S    
N7    O65   1.301330 A    
Zn4   O4    1.943600 S    
C7    C51   1.429247 S    
C26   H6    1.113523 S    
Zn7   O23   1.944784 S    
Zn8   O24   1.944792 S    
C41   C69   1.535574 S    
C57   C61   1.535599 S    
O25   C21   1.273953 A    
C44   C72   1.535568 S    
C61   C73   1.535577 S    
C104  H72   1.109804 S    
C60   C66   1.548975 S    
C31   C32   1.545992 S    
C70   C78   1.535577 S    
Zn12  O52   1.909450 S    
C58   H46   1.110104 S    
O14   C10   1.276663 A    
C54   C86   1.202044 T    
C124  C136  1.571159 S    
Zn13  O41   1.944060 S    
C35   C36   1.545987 S    
O50   C6    1.283075 A    
N2    O55   1.301077 A    
C6    C50   1.429285 S    
C31   C39   1.550973 S    
Zn16  O44   1.944102 S    
Zn1   O37   1.944057 S    
C128  H104  1.113411 S    
N4    O60   1.301407 A    
C116  H112  1.113007 S    
Zn2   O34   1.944758 S    
Zn3   O39   1.944057 S    
N2    O56   1.301418 A    
Zn6   O22   1.944792 S    
C93   C109  1.551147 S    
C120  H80   1.112917 S    
C94   H58   1.113257 S    
C96   C112  1.553884 S    
O35   C23   1.277107 A    
C91   H51   1.115335 S    
N5    O62   1.300524 A    
C118  H74   1.113470 S    
C25   C37   1.554226 S    
C27   H7    1.113525 S    
C1    C54   1.429186 S    
N1    O54   1.301419 A    
C104  C120  1.545001 S    
C132  C136  1.553930 S    
N6    O63   1.301279 A    
C94   H54   1.112681 S    
H62   C98   1.113087 S    
C48   C78   1.548997 S    
C36   C40   1.550935 S    
O5    C1    1.283016 A    
O26   C22   1.273986 A    
O31   C19   1.276873 A    
C90   H50   1.115335 S    
C113  H105  1.112981 S    
C17   C133  1.487891 S    
C129  C130  1.538447 S    
Zn5   O45   1.909599 S    
C9    C112  1.487969 S    
C121  C133  1.567907 S    
Zn7   O47   1.909599 S    
C44   H32   1.110113 S    
C123  C135  1.571137 S    
Zn8   O48   1.909549 S    
C33   C37   1.550929 S    
C31   H23   1.113012 S    
C21   C37   1.489539 S    
N8    O68   1.300231 A    
C29   H21   1.113013 S    
C11   C110  1.488431 S    
C23   C39   1.489554 S    
O51   C7    1.282992 A    
C118  H78   1.113521 S    
C25   H1    1.113490 S    
O8    C4    1.282971 A    
C65   H41   1.110107 S    
C68   C74   1.548954 S    
H9    C29   1.113013 S    
C130  C134  1.558749 S    
H11   C31   1.113011 S    
C96   H56   1.113335 S    
C47   C77   1.548994 S    
H35   C79   1.110110 S    
C45   C79   1.549001 S    
O52   C8    1.283059 A    
C33   H13   1.112991 S    
C35   C39   1.550916 S    
O40   C12   1.273784 A    
Zn13  O1    1.943216 S    
O29   C17   1.274287 A    
C46   C62   1.535607 S    
Zn14  O6    1.909690 S    
Zn3   O11   1.909341 S    
C24   C40   1.489517 S    
Zn15  O27   1.945027 S    
C102  H66   1.113735 S    
C26   C38   1.554180 S    
C28   H4    1.113493 S    
C13   C105  1.488967 S    
C68   H44   1.110107 S    
O9    C5    1.282990 A    
C69   C77   1.535575 S    
C57   C67   1.548968 S    
O13   C9    1.273205 A    
O7    C3    1.283063 A    
C65   C69   1.535575 S    
C67   C73   1.548957 S    
O18   C14   1.273374 A    
C65   C75   1.548971 S    
C68   C72   1.535574 S    
C110  C114  1.552348 S    
H33   C77   1.110107 S    
Zn9   O29   1.944904 S    
C64   C84   1.459823 S    
C124  N8    1.474176 S    
C129  H97   1.113482 S    
Zn11  O31   1.944904 S    
C123  C124  1.552416 S    
C130  H94   1.113689 S    
Zn12  O32   1.944896 S    
C131  H99   1.113164 S    
Zn13  O25   1.945027 S    
C29   C37   1.550968 S    
H34   C78   1.110105 S    
C125  H101  1.113506 S    
Zn15  O3    1.943216 S    
C3    C56   1.429139 S    
C74   H38   1.110104 S    
Zn11  O3    1.943342 S    
C4    C55   1.429121 S    
C22   C38   1.489532 S    
O43   C15   1.276443 A    
Zn5   O1    1.943359 S    
C26   H2    1.113488 S    
C102  C106  1.556577 S    
C111  C119  1.554108 S    
C58   C62   1.535606 S    
C93   H57   1.113256 S    
C116  H108  1.113103 S    
O32   C20   1.276909 A    
C62   C74   1.535575 S    
C99   C115  1.546667 S    
C91   C107  1.563602 S    
C114  H110  1.112996 S    
C89   C93   1.552072 S    
N3    O57   1.301081 A    
Zn9   O17   1.944204 S    
C10   C111  1.488364 S    
Zn9   O1    1.943342 S    
C52   C84   1.202073 T    
H89   C125  1.108322 S    
Zn14  O42   1.944102 S    
H91   C127  1.107406 S    
C55   C87   1.202018 T    
H92   C128  1.107378 S    
C56   C88   1.202025 T    
C46   H26   1.110103 S    
O19   C15   1.273510 A    
C73   C79   1.548977 S    
C8    C52   1.429254 S    
C121  H85   1.116198 S    
H12   C32   1.113011 S    
C123  H87   1.116731 S    
C125  C126  1.540756 S    
C95   H55   1.112681 S    
O39   C11   1.273752 A    
C111  C115  1.552442 S    
C127  C128  1.542273 S    
C91   C95   1.552075 S    
C32   H24   1.113013 S    
C89   C105  1.563669 S    
C70   C86   1.459789 S    
O22   C18   1.274762 A    
Zn2   O38   1.944015 S    
O36   C24   1.277065 A    
O12   C8    1.283041 A    
H64   C100  1.113124 S    
N7    O66   1.300240 A    
C33   C34   1.545987 S    
O21   C17   1.274757 A    
C45   H25   1.110103 S    
Zn3   O35   1.944848 S    
C36   H16   1.112990 S    
Zn15  O43   1.944060 S    
C48   H28   1.110105 S    
C127  H103  1.113415 S    
C98   C114  1.546549 S    
C89   N1    1.469187 S    
C18   C134  1.487955 S    
C109  C117  1.554124 S    
Zn6   O46   1.909549 S    
C122  C134  1.567920 S    
C29   C30   1.546005 S    
C102  H70   1.110312 S    
C71   C87   1.459762 S    
H63   C99   1.113075 S    
C34   H18   1.113017 S    
C42   C60   1.548994 S    
C76   H40   1.110105 S    
C30   H22   1.113013 S    
C59   C65   1.548973 S    
H61   C97   1.113085 S    
C119  H79   1.113523 S    
C103  C119  1.533879 S    
O38   C10   1.273844 A    
C48   C64   1.535592 S    
C25   C26   1.535243 S    
C115  H107  1.113045 S    
Zn2   O2    1.943600 S    
N5    O61   1.301296 A    
Zn14  O2    1.943037 S    
O37   C9    1.276992 A    
C27   C28   1.535259 S    
C100  C116  1.546369 S    
C92   C108  1.571106 S    
O49   C5    1.283006 A    
N1    O53   1.301079 A    
C126  C134  1.553905 S    
Zn8   O4    1.943344 S    
C91   N3    1.469255 S    
Zn4   O36   1.944758 S    
C57   H45   1.110106 S    
N6    O64   1.300524 A    
C42   C48   1.549003 S    
C72   C88   1.459776 S    
C33   H17   1.113017 S    
C35   H19   1.113021 S    
C50   C82   1.202089 T    
C99   C107  1.553055 S    
C67   H43   1.110106 S    
C99   H83   1.113184 S    
C94   C110  1.551160 S    
C100  H84   1.113214 S    
C130  H98   1.113481 S    
H36   C80   1.110108 S    
C131  H95   1.113322 S    
C92   H52   1.115693 S    
C112  C116  1.550541 S    
Zn15  O7    1.909657 S    
C126  H102  1.113504 S    
C92   C96   1.540533 S    
Zn1   O9    1.909341 S    
C16   C108  1.489498 S    
C47   H27   1.110105 S    
C103  H71   1.110318 S    
Zn4   O12   1.909308 S    
Zn11  O51   1.909399 S    
Zn5   O13   1.944101 S    
O17   C13   1.273441 A    
Zn6   O2    1.943344 S    
C15   C107  1.489048 S    
N3    O58   1.301420 A    
Zn7   O15   1.944101 S    
Zn8   O16   1.944157 S    
C90   C106  1.563664 S    
C93   H53   1.112682 S    
C101  C117  1.533925 S    
C67   C71   1.535570 S    
C19   C135  1.488267 S    
C104  C108  1.553222 S    
C66   C76   1.548969 S    
C20   C136  1.488362 S    
C43   C71   1.535569 S    
C59   C63   1.535584 S    
Zn10  O30   1.944896 S    
N4    O59   1.301307 A    
C114  H106  1.112983 S    
C89   H49   1.115337 S    
C47   C63   1.535591 S    
C63   C83   1.459814 S    
C121  C122  1.562677 S    
C58   C68   1.548973 S    
Zn10  O18   1.944148 S    
C34   C38   1.550944 S    
C101  H65   1.113734 S    
H90   C126  1.108307 S    
C12   C109  1.488451 S    
O41   C13   1.276471 A    
C98   C106  1.552803 S    
Zn12  O20   1.944148 S    
C5    C49   1.429281 S    
C66   H42   1.110107 S    
H10   C30   1.113010 S    
O45   C1    1.283041 A    
C61   C81   1.459859 S    
C122  H86   1.116204 S    
C92   N4    1.471665 S    
C28   C40   1.554193 S    
O33   C21   1.277094 A    
C95   H59   1.113263 S    
C97   C113  1.546552 S    
O15   C11   1.276695 A    
Zn14  O26   1.945117 S    
C104  H68   1.113321 S    
O44   C16   1.271913 A    
C49   C81   1.202085 T    
O20   C16   1.278466 A    
C14   C106  1.488962 S    
C69   C85   1.459781 S    
O10   C6    1.283033 A    
O6    C2    1.282958 A    
C132  H100  1.113162 S    
O48   C4    1.282939 A    
C53   C85   1.202039 T    
C132  H96   1.113321 S    
C34   H14   1.112991 S    
Zn1   O1    1.943420 S    
Zn16  O8    1.909690 S    
N8    O67   1.301333 A    
C36   H20   1.113019 S    
C125  C133  1.553820 S    
C100  C108  1.553447 S    
C102  C118  1.533922 S    
C75   C77   1.548983 S    
Zn1   O33   1.944848 S    
C110  C118  1.554098 S    
C74   C80   1.548964 S    
O30   C18   1.274314 A    
