data_mof_unit_28334.cif
_audit_creation_date              2012-12-11T14:42:07-0500
_audit_creation_method            fapswitch 2.2
_symmetry_space_group_name_H-M    P1
_symmetry_Int_Tables_number       1
_space_group_crystal_system       triclinic
_cell_length_a                    18.940851
_cell_length_b                    10.947911
_cell_length_c                    18.758259
_cell_angle_alpha                 90.179796
_cell_angle_beta                  89.820876
_cell_angle_gamma                 89.936339
_cell_volume                      3889.72358637

loop_
_atom_site_label
_atom_site_type_symbol
_atom_type_description
_atom_site_fract_x
_atom_site_fract_y
_atom_site_fract_z
_atom_type_partial_charge
C1    C     C_R   0.727397 0.956096 0.853325 0.547356
C2    C     C_R   0.274294 0.958579 0.145012 0.543342
C3    C     C_R   0.227397 0.456095 0.853325 0.547336
C4    C     C_R   0.774295 0.458580 0.145012 0.543355
C5    C     C_R   0.698460 0.470293 0.038282 -0.114012
C6    C     C_R   0.294559 0.492423 0.963627 -0.090017
C7    C     C_R   0.198460 0.970297 0.038282 -0.114012
C8    C     C_R   0.794555 0.992431 0.963628 -0.090011
C9    C     C_R   0.761031 0.431588 0.070629 -0.005364
C10   C     C_R   0.247579 0.419209 0.924242 -0.004351
C11   C     C_R   0.261030 0.931586 0.070630 -0.005363
C12   C     C_R   0.747579 0.919211 0.924242 -0.004346
C13   C     C_R   0.818121 0.393374 0.028825 -0.114976
C14   C     C_R   0.208157 0.329270 0.957589 -0.146077
C15   C     C_R   0.318119 0.893365 0.028826 -0.114992
C16   C     C_R   0.708162 0.829265 0.957588 -0.146074
C17   C     C_R   0.812727 0.390988 0.956024 -0.134130
C18   C     C_R   0.211392 0.317636 0.030140 -0.128656
C19   C     C_R   0.312726 0.890979 0.956026 -0.134129
C20   C     C_R   0.711397 0.817628 0.030138 -0.128656
C21   C     C_R   0.748622 0.419562 0.922920 -0.019315
C22   C     C_R   0.255384 0.394062 0.071328 -0.009216
C23   C     C_R   0.248622 0.919559 0.922921 -0.019318
C24   C     C_R   0.755385 0.894060 0.071328 -0.009209
C25   C     C_R   0.492069 0.273474 0.538104 -0.148381
C26   C     C_R   0.496303 0.274603 0.466112 -0.147773
C27   C     C_R   0.994699 0.773919 0.537144 -0.148107
C28   C     C_R   0.999167 0.774547 0.465180 -0.147998
C29   C     C_R   0.496871 0.165325 0.427616 0.009724
C30   C     C_R   0.498000 0.163804 0.574990 0.007994
C31   C     C_R   0.998236 0.665055 0.426955 0.009325
C32   C     C_R   0.999168 0.664190 0.574337 0.008435
C33   C     C_R   0.500556 0.050379 0.462949 -0.025204
C34   C     C_R   0.497038 0.049506 0.538539 -0.024329
C35   C     C_R   0.001266 0.550215 0.462456 -0.024913
C36   C     C_R   0.997703 0.549728 0.538047 -0.024639
C37   C     C_R   0.777482 0.273215 0.519634 -0.140803
C38   C     C_R   0.223150 0.272467 0.480096 -0.140583
C39   C     C_R   0.277502 0.773256 0.519637 -0.140692
C40   C     C_R   0.723092 0.772539 0.480076 -0.140683
C41   C     C_R   0.783394 0.298785 0.447425 -0.135121
C42   C     C_R   0.217160 0.298090 0.552367 -0.135335
C43   C     C_R   0.283406 0.798788 0.447423 -0.134976
C44   C     C_R   0.717105 0.798158 0.552345 -0.135455
C45   C     C_R   0.529870 0.177658 0.850973 0.556065
C46   C     C_R   0.470654 0.177490 0.149378 0.552274
C47   C     C_R   0.029870 0.677658 0.850973 0.556214
C48   C     C_R   0.970654 0.677490 0.149378 0.552098
C49   C     C_R   0.744483 0.394378 0.417344 0.026290
C50   C     C_R   0.255678 0.394078 0.582642 0.026812
C51   C     C_R   0.244475 0.894350 0.417333 0.026394
C52   C     C_R   0.755680 0.894055 0.582640 0.026691
C53   C     C_R   0.689223 0.446676 0.456858 -0.144883
C54   C     C_R   0.310640 0.446938 0.543250 -0.145465
C55   C     C_R   0.189194 0.946616 0.456838 -0.145128
C56   C     C_R   0.810723 0.946752 0.543281 -0.145266
C57   C     C_R   0.681090 0.417519 0.528879 -0.130234
C58   C     C_R   0.318732 0.418017 0.471131 -0.131334
C59   C     C_R   0.181066 0.917480 0.528864 -0.130375
C60   C     C_R   0.818869 0.917717 0.471176 -0.131117
C61   C     C_R   0.728514 0.336125 0.561793 0.030180
C62   C     C_R   0.271710 0.335975 0.438093 0.030387
C63   C     C_R   0.228512 0.836132 0.561789 0.030330
C64   C     C_R   0.771748 0.835881 0.438101 0.030210
C65   C     C_R   0.738397 0.366726 0.852137 0.540819
C66   C     C_R   0.262433 0.361346 0.146061 0.533193
C67   C     C_R   0.238397 0.866726 0.852137 0.540870
C68   C     C_R   0.762433 0.861345 0.146061 0.533136
C69   C     C_R   0.729617 0.951226 0.648756 0.537251
C70   C     C_R   0.270394 0.951372 0.351263 0.538162
C71   C     C_R   0.229618 0.451220 0.648762 0.537227
C72   C     C_R   0.770397 0.451380 0.351266 0.538215
C73   C     C_R   0.528157 0.175273 0.645617 0.534271
C74   C     C_R   0.470777 0.175618 0.355256 0.533085
C75   C     C_R   0.028381 0.675334 0.645415 0.534111
C76   C     C_R   0.971087 0.675555 0.355012 0.533219
C77   C     C_R   0.725367 0.311402 0.638760 0.567459
C78   C     C_R   0.274740 0.311382 0.361096 0.567111
C79   C     C_R   0.225368 0.811410 0.638759 0.567379
C80   C     C_R   0.774751 0.811350 0.361092 0.567271
C81   C     C_2   0.498063 0.167989 0.921694 -0.108583
C82   C     C_2   0.503965 0.168492 0.079334 -0.110138
C83   C     C_2   0.998064 0.667989 0.921694 -0.108621
C84   C     C_2   0.003965 0.668493 0.079334 -0.110096
C85   C     C_2   0.495215 0.068392 0.038862 -0.162855
C86   C     C_2   0.510478 0.069127 0.962210 -0.164294
C87   C     C_2   0.995216 0.568392 0.038862 -0.162824
C88   C     C_2   0.010479 0.569127 0.962210 -0.164324
C89   C     C_R   0.691711 0.467235 0.964110 -0.007229
C90   C     C_R   0.298319 0.482131 0.037678 -0.003183
C91   C     C_R   0.191713 0.967238 0.964110 -0.007230
C92   C     C_R   0.798316 0.982136 0.037679 -0.003181
Cr1   Cr    Cr6+3 0.769270 0.163730 0.750710 0.994160
Cr2   Cr    Cr6+3 0.230730 0.163730 0.249290 0.992282
Cr3   Cr    Cr6+3 0.269270 0.663730 0.750710 0.993958
Cr4   Cr    Cr6+3 0.730730 0.663730 0.249290 0.992486
Cr5   Cr    Cr6+3 0.612620 0.009790 0.748780 1.023362
Cr6   Cr    Cr6+3 0.387380 0.009790 0.251220 1.028305
Cr7   Cr    Cr6+3 0.112620 0.509790 0.748780 1.023365
Cr8   Cr    Cr6+3 0.887380 0.509790 0.251220 1.028321
Cr9   Cr    Cr6+3 0.614160 0.322500 0.747710 1.010261
Cr10  Cr    Cr6+3 0.385840 0.322500 0.252290 1.017034
Cr11  Cr    Cr6+3 0.114160 0.822500 0.747710 1.010267
Cr12  Cr    Cr6+3 0.885840 0.822500 0.252290 1.017000
H1    H     H_    0.475403 0.984197 0.061758 0.158188
H2    H     H_    0.533582 0.986901 0.939414 0.167478
H3    H     H_    0.975406 0.484197 0.061759 0.158197
H4    H     H_    0.033584 0.486902 0.939415 0.167468
H5    H     H_    0.821931 0.249532 0.416110 0.125913
H6    H     H_    0.178835 0.248663 0.583574 0.125798
H7    H     H_    0.321971 0.749550 0.416122 0.125775
H8    H     H_    0.678741 0.748814 0.583538 0.125947
H9    H     H_    0.654723 0.513927 0.433197 0.114215
H10   H     H_    0.344830 0.514618 0.567072 0.113678
H11   H     H_    0.154678 0.013834 0.433168 0.113931
H12   H     H_    0.844938 0.014388 0.567110 0.113918
H13   H     H_    0.639856 0.462639 0.559180 0.123113
H14   H     H_    0.359557 0.463872 0.440876 0.120818
H15   H     H_    0.139818 0.962586 0.559160 0.122643
H16   H     H_    0.859799 0.963357 0.440956 0.121462
H17   H     H_    0.526600 0.250964 0.056681 0.142562
H18   H     H_    0.473239 0.248815 0.944408 0.140241
H19   H     H_    0.026599 0.750965 0.056681 0.142555
H20   H     H_    0.973239 0.748814 0.944408 0.140243
H21   H     H_    0.655997 0.507058 0.070783 0.167794
H22   H     H_    0.324356 0.563964 0.937436 0.182782
H23   H     H_    0.155999 0.007067 0.070782 0.167778
H24   H     H_    0.824349 0.063977 0.937439 0.182791
H25   H     H_    0.868201 0.367928 0.052098 0.174405
H26   H     H_    0.171856 0.272057 0.928042 0.137755
H27   H     H_    0.368197 0.867913 0.052101 0.174400
H28   H     H_    0.671864 0.772047 0.928040 0.137754
H29   H     H_    0.857972 0.358332 0.925965 0.154378
H30   H     H_    0.179346 0.246335 0.053605 0.162345
H31   H     H_    0.357970 0.858319 0.925967 0.154384
H32   H     H_    0.679355 0.746321 0.053602 0.162348
H33   H     H_    0.490274 0.361345 0.564921 0.136954
H34   H     H_    0.494250 0.363340 0.440679 0.136867
H35   H     H_    0.993641 0.862089 0.563686 0.136933
H36   H     H_    0.998074 0.863171 0.439518 0.136764
H37   H     H_    0.812797 0.207317 0.542980 0.121203
H38   H     H_    0.188131 0.206210 0.456552 0.121307
H39   H     H_    0.312853 0.707432 0.542996 0.121155
H40   H     H_    0.687999 0.706417 0.456513 0.121346
O1    O     O_R   0.784320 0.290430 0.830510 -0.525623
O2    O     O_R   0.215680 0.290430 0.169490 -0.529079
O3    O     O_R   0.284320 0.790430 0.830510 -0.525640
O4    O     O_R   0.715680 0.790430 0.169490 -0.529060
O5    O     O_R   0.554640 0.080370 0.673500 -0.489928
O6    O     O_R   0.445360 0.080370 0.326500 -0.489512
O7    O     O_R   0.054640 0.580370 0.673500 -0.489735
O8    O     O_R   0.945360 0.580370 0.326500 -0.489652
O9    O     O_R   0.543920 0.282180 0.666790 -0.539086
O10   O     O_R   0.456080 0.282180 0.333210 -0.539180
O11   O     O_R   0.043920 0.782180 0.666790 -0.539232
O12   O     O_R   0.956080 0.782180 0.333210 -0.539079
O13   O     O_R   0.679040 0.374160 0.674430 -0.509411
O14   O     O_R   0.320960 0.374160 0.325570 -0.508699
O15   O     O_R   0.179040 0.874160 0.674430 -0.509522
O16   O     O_R   0.820960 0.874160 0.325570 -0.508552
O17   O     O_3   0.665350 0.165340 0.749070 -0.258506
O18   O     O_3   0.334650 0.165340 0.250930 -0.261781
O19   O     O_3   0.165350 0.665340 0.749070 -0.258527
O20   O     O_3   0.834650 0.665340 0.250930 -0.261741
O21   O     O_R   0.762640 0.040960 0.825200 -0.506317
O22   O     O_R   0.237360 0.040960 0.174800 -0.507162
O23   O     O_R   0.262640 0.540960 0.825200 -0.506360
O24   O     O_R   0.737360 0.540960 0.174800 -0.507122
O25   O     O_R   0.667400 0.923970 0.829950 -0.520012
O26   O     O_R   0.332600 0.923970 0.170050 -0.518319
O27   O     O_R   0.167400 0.423970 0.829950 -0.520035
O28   O     O_R   0.832600 0.423970 0.170050 -0.518297
O29   O     O_R   0.553960 0.081340 0.821780 -0.499462
O30   O     O_R   0.446040 0.081340 0.178220 -0.498689
O31   O     O_R   0.053960 0.581340 0.821780 -0.499384
O32   O     O_R   0.946040 0.581340 0.178220 -0.498781
O33   O     O_R   0.543180 0.283240 0.826740 -0.496553
O34   O     O_R   0.456820 0.283240 0.173260 -0.497396
O35   O     O_R   0.043180 0.783240 0.826740 -0.496418
O36   O     O_R   0.956820 0.783240 0.173260 -0.497553
O37   O     O_R   0.678360 0.375140 0.822710 -0.507992
O38   O     O_R   0.321640 0.375140 0.177290 -0.500710
O39   O     O_R   0.178360 0.875140 0.822710 -0.507988
O40   O     O_R   0.821640 0.875140 0.177290 -0.500717
O41   O     O_R   0.785050 0.289380 0.670560 -0.536634
O42   O     O_R   0.214950 0.289380 0.329440 -0.535513
O43   O     O_R   0.285050 0.789380 0.670560 -0.536631
O44   O     O_R   0.714950 0.789380 0.329440 -0.535558
O45   O     O_R   0.763320 0.039990 0.676930 -0.521856
O46   O     O_R   0.236680 0.039990 0.323070 -0.521305
O47   O     O_R   0.263320 0.539990 0.676930 -0.521935
O48   O     O_R   0.736680 0.539990 0.323070 -0.521240
O49   O     O_R   0.668130 0.922920 0.670000 -0.509605
O50   O     O_R   0.331870 0.922920 0.330000 -0.508691
O51   O     O_R   0.168130 0.422920 0.670000 -0.509631
O52   O     O_R   0.831870 0.422920 0.330000 -0.508638
C93   C     C_2   0.626321 0.517407 0.931859 0.232259
H41   H     H_    0.626465 0.550928 0.877551 0.123117
O53   O     O_2   0.571673 0.524871 0.966355 -0.499082
C94   C     C_2   0.343803 0.567873 0.078262 0.241655
H42   H     H_    0.333933 0.585731 0.134293 0.121595
O54   O     O_2   0.392806 0.620598 0.049219 -0.508136
C95   C     C_2   0.126325 0.017417 0.931858 0.232246
H43   H     H_    0.126470 0.050935 0.877549 0.123101
O55   O     O_2   0.071677 0.024888 0.966353 -0.499090
C96   C     C_2   0.843796 0.067883 0.078264 0.241664
H44   H     H_    0.833926 0.085736 0.134296 0.121610
O56   O     O_2   0.892796 0.120617 0.049223 -0.508137
C97   C     C_R   0.507888 0.934857 0.420291 0.039209
C98   C     C_R   0.558825 0.926960 0.365552 -0.067911
C99   C     C_R   0.560712 0.825411 0.320150 -0.081500
C100  C     C_R   0.515758 0.726714 0.332024 -0.111438
C101  C     C_R   0.466803 0.731401 0.387615 -0.116816
C102  C     C_R   0.461365 0.836296 0.430060 -0.072083
H45   H     H_    0.594918 0.001890 0.356080 0.108492
H46   H     H_    0.596765 0.823372 0.275361 0.151986
H47   H     H_    0.518444 0.647092 0.297772 0.108901
H48   H     H_    0.432194 0.654491 0.396858 0.091708
H49   H     H_    0.421395 0.840440 0.471088 0.116839
C103  C     C_R   0.491816 0.933017 0.580229 0.040439
C104  C     C_R   0.441502 0.922543 0.635379 -0.066973
C105  C     C_R   0.440494 0.819321 0.679124 -0.085559
C106  C     C_R   0.485938 0.721731 0.665349 -0.115807
C107  C     C_R   0.534562 0.729258 0.609615 -0.117402
C108  C     C_R   0.539130 0.835771 0.568842 -0.071635
H50   H     H_    0.404868 0.996399 0.646193 0.109102
H51   H     H_    0.404635 0.814974 0.723998 0.148241
H52   H     H_    0.483884 0.640730 0.698234 0.105992
H53   H     H_    0.569503 0.653137 0.598904 0.091199
H54   H     H_    0.578972 0.841987 0.527792 0.117453
C109  C     C_R   0.008092 0.434437 0.419933 0.039390
C110  C     C_R   0.058854 0.425877 0.365059 -0.067708
C111  C     C_R   0.060516 0.323900 0.319971 -0.081907
C112  C     C_R   0.015446 0.225498 0.332238 -0.111926
C113  C     C_R   0.966585 0.230925 0.387885 -0.116943
C114  C     C_R   0.961379 0.336230 0.430023 -0.072012
H55   H     H_    0.095074 0.500525 0.355312 0.108755
H56   H     H_    0.096516 0.321263 0.275148 0.151926
H57   H     H_    0.017973 0.145517 0.298251 0.108941
H58   H     H_    0.931891 0.154233 0.397427 0.091710
H59   H     H_    0.921450 0.340922 0.471073 0.116986
C115  C     C_R   0.992019 0.433450 0.579866 0.040191
C116  C     C_R   0.941524 0.423572 0.634887 -0.067183
C117  C     C_R   0.940339 0.320771 0.678964 -0.085097
C118  C     C_R   0.985722 0.222938 0.665595 -0.115369
C119  C     C_R   0.034438 0.229774 0.609906 -0.117247
C120  C     C_R   0.039191 0.335893 0.568804 -0.071591
H60   H     H_    0.904975 0.497671 0.645420 0.108815
H61   H     H_    0.904430 0.316992 0.723816 0.148288
H62   H     H_    0.983551 0.142289 0.698765 0.105865
H63   H     H_    0.069326 0.153460 0.599505 0.091137
H64   H     H_    0.079087 0.341614 0.527778 0.117379

loop_
_geom_bond_atom_site_label_1
_geom_bond_atom_site_label_2
_ccdc_geom_bond_type
Cr2   O2    S    
C118  H62   S    
C49   C53   A    
C58   C62   A    
C73   O9    A    
C23   C91   A    
C55   C59   A    
Cr8   O28   S    
C77   O41   A    
C113  H58   S    
C14   C18   A    
C25   H33   S    
C106  C107  A    
C28   H36   S    
C84   C87   D    
C87   C88   S    
C3    O27   A    
C107  C108  A    
Cr2   O22   S    
C32   C75   S    
C31   C76   S    
Cr3   O43   S    
C111  H56   S    
C21   C89   A    
C101  C102  A    
Cr8   O8    S    
C84   H19   S    
C15   C19   A    
C95   O55   D    
C74   O10   A    
C50   C54   A    
C37   H37   S    
Cr11  O39   S    
C32   C36   A    
C16   C20   A    
C56   C60   A    
C38   C42   A    
Cr3   O19   S    
C102  H49   S    
C79   O15   A    
Cr6   O30   S    
C34   C103  S    
C80   O16   A    
C90   C94   S    
C100  H47   S    
C76   O8    A    
C19   H31   S    
C98   H45   S    
Cr7   O51   S    
C58   H14   S    
C91   C95   S    
Cr5   O25   S    
C117  C118  A    
Cr6   O50   S    
Cr5   O49   S    
C93   O53   D    
C46   O34   A    
C22   C66   S    
C7    C11   A    
C9    C13   A    
C52   C69   S    
C69   O49   A    
C46   C82   S    
C52   C56   A    
C11   C15   A    
C54   H10   S    
C8    H24   S    
C35   C36   A    
C29   C33   A    
C61   C77   S    
C94   H42   S    
C49   C72   S    
Cr8   O32   S    
C47   O35   A    
C113  C114  A    
Cr4   O24   S    
Cr1   O1    S    
C109  C114  A    
C78   O42   A    
C51   C70   S    
Cr9   O9    S    
C83   H20   S    
C111  C112  A    
Cr10  O10   S    
C82   H17   S    
Cr11  O35   S    
C81   C86   D    
C68   O4    A    
C45   O33   A    
C72   O52   A    
C73   O5    A    
C44   C52   A    
C99   H46   S    
C66   O38   A    
Cr1   O21   S    
C41   H5    S    
C118  C119  A    
C64   C80   S    
Cr5   O5    S    
Cr10  O14   S    
C86   H2    S    
C1    C12   S    
C43   H7    S    
Cr12  O16   S    
C8    C12   A    
C2    C11   S    
C24   C92   A    
C41   C49   A    
C103  C104  A    
Cr6   O18   S    
C53   H9    S    
C97   C98   A    
C119  H63   S    
Cr8   O52   S    
C56   H12   S    
Cr4   O4    S    
C78   O14   A    
C117  H61   S    
C30   C34   A    
C3    O23   A    
Cr10  O38   S    
C12   C16   A    
Cr3   O3    S    
C6    H22   S    
C10   C14   A    
C75   O7    A    
C30   C73   S    
C53   C57   A    
C96   H44   S    
C65   O37   A    
C29   C74   S    
C85   H1    S    
C51   C55   A    
C25   C26   A    
C120  H64   S    
C24   C68   S    
Cr7   O7    S    
C104  H50   S    
C76   O12   A    
C17   C21   A    
Cr4   O20   S    
C33   C97   S    
C114  H59   S    
C19   C23   A    
C50   C71   S    
Cr2   O46   S    
C5    C9    A    
C104  C105  A    
C89   C93   S    
C45   O29   A    
C71   O51   A    
C99   C100  A    
C109  C110  A    
Cr1   O17   S    
C70   O50   A    
C7    C91   A    
C46   O30   A    
C33   C34   A    
C22   C90   A    
C87   H3    S    
Cr8   O20   S    
Cr5   O29   S    
Cr12  O12   S    
C20   H32   S    
C85   C86   S    
C79   O43   A    
C42   C50   A    
C8    C92   A    
C44   H8    S    
Cr11  O11   S    
Cr12  O40   S    
C2    O26   A    
C98   C99   A    
Cr5   O17   S    
C40   H40   S    
C17   H29   S    
C110  H55   S    
Cr10  O34   S    
Cr7   O19   S    
C112  C113  A    
C38   H38   S    
C65   O1    A    
C48   O36   A    
Cr9   O37   S    
Cr10  O18   S    
C70   O46   A    
C57   H13   S    
Cr6   O6    S    
C25   C30   A    
C14   H26   S    
C2    O22   A    
C119  C120  A    
C68   O40   A    
C59   H15   S    
Cr3   O47   S    
C4    O28   A    
C21   C65   S    
C1    O21   A    
C18   C22   A    
C4    O24   A    
C59   C63   A    
C62   C78   S    
C28   C31   A    
C45   C81   S    
C97   C102  A    
C39   H39   S    
C47   C83   S    
C26   H34   S    
Cr3   O23   S    
C71   O47   A    
C6    C10   A    
C39   C43   A    
C101  H48   S    
C75   O11   A    
C57   C61   A    
C63   C79   S    
Cr1   O45   S    
C82   C85   D    
C39   C63   A    
Cr11  O19   S    
C108  H54   S    
C40   C64   A    
Cr2   O42   S    
C54   C58   A    
C81   H18   S    
C60   C64   A    
C115  C120  A    
C7    H23   S    
Cr4   O48   S    
Cr9   O17   S    
C42   H6    S    
C36   C115  S    
C69   O45   A    
C3    C10   S    
C6    C90   A    
C107  H53   S    
C67   O3    A    
C106  H52   S    
Cr11  O15   S    
Cr12  O20   S    
Cr12  O36   S    
C55   H11   S    
C105  H51   S    
C43   C51   A    
C88   H4    S    
C115  C116  A    
C31   C35   A    
C1    O25   A    
C110  C111  A    
C72   O48   A    
C103  C108  A    
C83   C88   D    
C18   H30   S    
C35   C109  S    
C112  H57   S    
C37   C41   A    
C93   H41   S    
C16   H28   S    
C27   H35   S    
C66   O2    A    
Cr7   O31   S    
C92   C96   S    
C23   C67   S    
C27   C32   A    
C60   H16   S    
Cr9   O13   S    
C13   C17   A    
Cr6   O26   S    
C48   C84   S    
C40   C44   A    
C37   C61   A    
C15   H27   S    
C100  C101  A    
C26   C29   A    
C94   O54   D    
C116  H60   S    
C5    H21   S    
C27   C28   A    
Cr4   O44   S    
C47   O31   A    
C13   H25   S    
C74   O6    A    
C67   O39   A    
C95   H43   S    
C38   C62   A    
C4    C9    S    
C96   O56   D    
C105  C106  A    
C20   C24   A    
Cr9   O33   S    
C5    C89   A    
Cr2   O18   S    
C116  C117  A    
Cr7   O27   S    
C77   O13   A    
C48   O32   A    
C80   O44   A    
Cr1   O41   S    
