data_mof_unit_30006.cif
_audit_creation_date              2012-12-10T17:32:18-0500
_audit_creation_method            fapswitch 2.2
_symmetry_space_group_name_H-M    P1
_symmetry_Int_Tables_number       1
_space_group_crystal_system       triclinic
_cell_length_a                    12.361729
_cell_length_b                    13.067335
_cell_length_c                    15.066708
_cell_angle_alpha                 77.272013
_cell_angle_beta                  101.569776
_cell_angle_gamma                 116.615179
_cell_volume                      2107.9069518

loop_
_atom_site_label
_atom_site_type_symbol
_atom_type_description
_atom_site_fract_x
_atom_site_fract_y
_atom_site_fract_z
_atom_type_partial_charge
C1    C     C_R   0.855317 0.286105 0.503582 0.790010
C2    C     C_R   0.098744 0.500903 0.108705 0.113933
C3    C     C_R   0.792989 0.492914 0.014645 -0.250677
C4    C     C_R   0.791893 0.496482 0.920852 -0.013052
C5    C     C_R   0.894226 0.499090 0.889337 0.023964
C6    C     C_R   0.996965 0.501581 0.952493 0.051700
C7    C     C_R   0.100389 0.505668 0.922524 0.122329
C8    C     C_R   0.201477 0.507890 0.985347 -0.205042
C9    C     C_R   0.200506 0.505136 0.078016 -0.208294
C10   C     C_R   0.896093 0.495762 0.797303 -0.203100
C11   C     C_R   0.999119 0.500791 0.767733 -0.080018
C12   C     C_R   0.999712 0.499923 0.671129 0.806634
C13   C     C_R   0.101252 0.506979 0.830190 -0.241127
C14   C     C_R   0.268145 0.027455 0.382886 0.175792
C15   C     C_R   0.226484 0.837869 0.473148 -0.099838
C16   C     C_R   0.816138 0.073625 0.528049 -0.015544
C17   C     C_R   0.731954 0.957805 0.540450 -0.178681
C18   C     C_R   0.607786 0.927806 0.523755 -0.206584
C19   C     C_R   0.562735 0.012616 0.490918 0.091777
C20   C     C_R   0.647124 0.127885 0.465900 0.077478
C21   C     C_R   0.435531 0.983512 0.473444 0.027131
C22   C     C_R   0.394272 0.061816 0.411724 0.109446
C23   C     C_R   0.144897 0.714132 0.488643 0.823179
C24   C     C_R   0.480207 0.171242 0.378299 -0.225612
C25   C     C_R   0.603660 0.203730 0.405170 -0.180365
C26   C     C_R   0.347711 0.878258 0.514297 0.097339
C27   C     C_R   0.186665 0.913543 0.410199 -0.222525
C28   C     C_R   0.773454 0.161740 0.497034 -0.184377
C29   C     C_R   0.349358 0.325066 0.640725 -0.278904
C30   C     C_R   0.761695 0.645335 0.374885 0.026475
C31   C     C_R   0.661488 0.668374 0.337765 -0.256099
C32   C     C_R   0.550902 0.606551 0.375547 0.193060
C33   C     C_R   0.545405 0.528163 0.459350 -0.014816
C34   C     C_R   0.999294 0.499018 0.328864 0.810433
C35   C     C_R   0.650474 0.503473 0.491042 0.249712
C36   C     C_R   0.442234 0.470265 0.512408 -0.028795
C37   C     C_R   0.444184 0.382787 0.586687 0.134185
C38   C     C_R   0.543769 0.356131 0.611111 -0.244022
C39   C     C_R   0.645530 0.417317 0.566152 -0.151611
C40   C     C_R   0.339894 0.497580 0.499807 -0.024841
C41   C     C_R   0.251578 0.354357 0.624945 0.357077
C42   C     C_R   0.097716 0.498763 0.201294 -0.230977
C43   C     C_R   0.997372 0.497157 0.231972 -0.068442
C44   C     C_R   0.895553 0.494696 0.169726 -0.230430
C45   C     C_R   0.894342 0.495165 0.076830 0.080020
C46   C     C_R   0.996631 0.499348 0.045921 0.066594
Cu1   Cu    Cu3+1 0.098270 0.475420 0.521130 0.950167
Cu2   Cu    Cu3+1 0.901730 0.524580 0.478870 0.931645
H1    H     H_    0.175598 0.499750 0.249334 0.155402
H2    H     H_    0.453395 0.232851 0.330097 0.160570
H3    H     H_    0.548113 0.836622 0.530267 0.165901
H4    H     H_    0.762619 0.889345 0.561734 0.178866
H5    H     H_    0.664479 0.286177 0.371726 0.176574
H6    H     H_    0.545334 0.289902 0.668611 0.152188
H7    H     H_    0.354452 0.260216 0.698412 0.154076
H8    H     H_    0.817088 0.492221 0.193490 0.154419
H9    H     H_    0.334622 0.568955 0.451344 0.157445
H10   H     H_    0.844407 0.690691 0.342191 0.139954
H11   H     H_    0.668519 0.730536 0.275778 0.153965
H12   H     H_    0.719039 0.393835 0.593015 0.199433
H13   H     H_    0.715256 0.491011 0.039149 0.172333
H14   H     H_    0.816952 0.486657 0.748055 0.185302
H15   H     H_    0.181652 0.512790 0.807080 0.150262
H16   H     H_    0.281020 0.511066 0.962822 0.151868
H17   H     H_    0.279301 0.506416 0.125657 0.147398
H18   H     H_    0.091858 0.883197 0.381345 0.161559
N1    N     N_R   0.246280 0.438190 0.553160 -0.178751
N2    N     N_R   0.754320 0.561190 0.447410 -0.206318
O1    O     O_R   0.972510 0.318130 0.526570 -0.553785
O2    O     O_R   0.806530 0.359650 0.490890 -0.608240
O3    O     O_R   0.082980 0.479210 0.647590 -0.587774
O4    O     O_R   0.917000 0.520730 0.611900 -0.591989
O5    O     O_R   0.193470 0.640350 0.509110 -0.583765
O6    O     O_R   0.027490 0.681870 0.473430 -0.582986
O7    O     O_R   0.083000 0.479270 0.388100 -0.572501
O8    O     O_R   0.917020 0.520790 0.352410 -0.603267
C47   C     C_3   0.219133 0.107929 0.319580 -0.855953
H19   H     H_    0.245339 0.186257 0.351109 0.236426
H20   H     H_    0.256151 0.133578 0.252804 0.230064
H21   H     H_    0.118130 0.066522 0.306131 0.242104
C48   C     C_3   0.374855 0.820639 0.609896 -0.826004
H22   H     H_    0.299465 0.796681 0.651005 0.228827
H23   H     H_    0.384529 0.740904 0.607632 0.243616
H24   H     H_    0.458391 0.880300 0.647386 0.236976
C49   C     C_2   0.946506 0.096233 0.540435 0.848913
O9    O     O_2   0.987763 0.048384 0.608495 -0.603894
O10   O     O_R   0.020319 0.166427 0.471701 -0.739599
H25   H     H_    0.106882 0.173592 0.487425 0.331829
C50   C     C_3   0.162595 0.299692 0.695225 -0.724882
H26   H     H_    0.067154 0.268805 0.664836 0.257331
H27   H     H_    0.171336 0.222496 0.738557 0.204412
H28   H     H_    0.182812 0.361940 0.742148 0.208125
C51   C     C_3   0.441056 0.614397 0.315505 -0.908611
H29   H     H_    0.362238 0.528631 0.321154 0.224818
H30   H     H_    0.422263 0.682834 0.332595 0.233382
H31   H     H_    0.455883 0.637506 0.242003 0.233563
C52   C     C_2   0.683158 0.499801 0.859025 0.823900
O11   O     O_2   0.694824 0.565827 0.786499 -0.597901
O12   O     O_R   0.566986 0.430719 0.886153 -0.772288
H32   H     H_    0.500096 0.440893 0.838922 0.330401

loop_
_geom_bond_atom_site_label_1
_geom_bond_atom_site_label_2
_ccdc_geom_bond_type
C16   C28   A    
C41   C50   S    
C21   C26   A    
C51   H29   S    
Cu2   O8    S    
C19   C20   A    
O10   H25   S    
C48   H22   S    
C7    C8    A    
C41   N1    A    
C49   O9    D    
C2    C46   A    
C36   C37   A    
C19   C21   A    
C25   H5    S    
C30   C31   A    
C20   C25   A    
C3    H13   S    
C33   C36   A    
C18   C19   A    
C14   C47   S    
C31   H11   S    
Cu1   O1    S    
C48   H23   S    
C31   C32   A    
C8    C9    A    
C40   N1    A    
C38   H6    S    
C1    C28   S    
C14   C27   A    
C50   H27   S    
C47   H19   S    
C34   O7    A    
C15   C23   S    
C32   C51   S    
C12   O4    A    
C51   H30   S    
C21   C22   A    
C10   H14   S    
C23   O5    A    
C17   H4    S    
Cu1   N1    S    
C52   O12   S    
C18   H3    S    
C52   O11   D    
C47   H20   S    
C24   H2    S    
C38   C39   A    
C49   O10   S    
Cu1   Cu2   S    
Cu2   O6    S    
C36   C40   A    
C24   C25   A    
Cu1   O5    S    
C16   C17   A    
C15   C26   A    
C29   H7    S    
C45   C46   A    
C3    C45   A    
C1    O1    A    
C35   C39   A    
C43   C44   A    
C37   C38   A    
C44   H8    S    
C15   C27   A    
O12   H32   S    
C13   H15   S    
C17   C18   A    
Cu2   N2    S    
C50   H28   S    
Cu1   O3    S    
C8    H16   S    
C12   O3    A    
C51   H31   S    
C16   C49   S    
C22   C24   A    
C42   C43   A    
Cu2   O4    S    
C23   O6    A    
C3    C4    A    
C48   H24   S    
C44   C45   A    
C47   H21   S    
C40   H9    S    
C6    C46   A    
C29   C41   A    
C34   C43   S    
Cu2   O2    S    
C4    C5    A    
C11   C12   S    
C6    C7    A    
C26   C48   S    
C20   C28   A    
C1    O2    A    
C32   C33   A    
C14   C22   A    
Cu1   O7    S    
C5    C10   A    
C27   H18   S    
C11   C13   A    
C5    C6    A    
C35   N2    A    
C2    C42   A    
C39   H12   S    
C30   H10   S    
C33   C35   A    
C9    H17   S    
C10   C11   A    
C42   H1    S    
C7    C13   A    
C29   C37   A    
C50   H26   S    
C4    C52   S    
C2    C9    A    
C30   N2    A    
C34   O8    A    
