data_mof_unit_52675.cif
_audit_creation_date              2012-12-10T20:05:00-0500
_audit_creation_method            fapswitch 2.2
_symmetry_space_group_name_H-M    P1
_symmetry_Int_Tables_number       1
_space_group_crystal_system       triclinic
_cell_length_a                    15.928288
_cell_length_b                    15.928289
_cell_length_c                    26.27793
_cell_angle_alpha                 89.999835
_cell_angle_beta                  89.999847
_cell_angle_gamma                 89.999795
_cell_volume                      6666.98346232

loop_
_atom_site_label
_atom_site_type_symbol
_atom_type_description
_atom_site_fract_x
_atom_site_fract_y
_atom_site_fract_z
_atom_type_partial_charge
C1    C     C_R   0.999999 0.500004 0.446538 0.089891
C2    C     C_R   0.500000 0.000000 0.609672 0.611728
C3    C     C_R   1.000000 0.500000 0.390327 0.611679
C4    C     C_R   0.000000 0.500001 0.609672 0.611519
C5    C     C_R   1.000000 0.500000 0.890328 0.611563
C6    C     C_R   1.000000 0.500000 0.109672 0.611676
C7    C     C_R   0.500000 0.000000 0.890328 0.611668
C8    C     C_R   0.500000 0.000000 0.109672 0.611564
C9    C     C_R   0.340023 0.159977 0.250000 0.513423
C10   C     C_R   0.659970 0.840030 0.750000 0.537975
C11   C     C_R   0.840023 0.340023 0.250000 0.513479
C12   C     C_R   0.000000 0.500004 0.553461 0.089904
C13   C     C_R   0.159970 0.659970 0.750000 0.537711
C14   C     C_R   0.659977 0.840023 0.250000 0.513465
C15   C     C_R   0.340030 0.159970 0.750000 0.537680
C16   C     C_R   0.159977 0.659977 0.250000 0.513464
C17   C     C_R   0.840030 0.340030 0.750000 0.537747
C18   C     C_R   0.340023 0.840023 0.750000 0.513456
C19   C     C_R   0.659970 0.159970 0.250000 0.537750
C20   C     C_R   0.840023 0.659977 0.750000 0.513429
C21   C     C_R   0.159970 0.340030 0.250000 0.537939
C22   C     C_R   0.659977 0.159977 0.750000 0.513494
C23   C     C_R   0.499996 0.999999 0.446539 0.089908
C24   C     C_R   0.340030 0.840030 0.250000 0.537693
C25   C     C_R   0.159977 0.340023 0.750000 0.513462
C26   C     C_R   0.840030 0.659970 0.250000 0.537683
C27   C     C_1   0.276670 0.776670 0.250000 0.053321
C28   C     C_1   0.723345 0.223346 0.750000 0.035381
C29   C     C_1   0.223330 0.276670 0.250000 0.053330
C30   C     C_1   0.776655 0.723345 0.750000 0.035368
C31   C     C_1   0.723330 0.223330 0.250000 0.053322
C32   C     C_1   0.276654 0.776655 0.750000 0.035388
C33   C     C_1   0.776670 0.723330 0.250000 0.053325
C34   C     C_R   0.499995 0.000001 0.553462 0.089885
C35   C     C_1   0.223345 0.276655 0.750000 0.035385
C36   C     C_1   0.276670 0.223330 0.750000 0.053325
C37   C     C_1   0.723345 0.776655 0.250000 0.035385
C38   C     C_1   0.223330 0.723330 0.750000 0.053321
C39   C     C_1   0.776654 0.276655 0.250000 0.035383
C40   C     C_1   0.723330 0.776670 0.750000 0.053332
C41   C     C_1   0.276654 0.223345 0.250000 0.035371
C42   C     C_1   0.776670 0.276670 0.750000 0.053321
C43   C     C_1   0.223345 0.723346 0.250000 0.035389
C44   C     C_R   0.351004 0.949835 0.043980 0.244784
C45   C     C_R   0.499999 0.000003 0.946538 0.089894
C46   C     C_R   0.648998 0.949840 0.956021 0.244808
C47   C     C_R   0.050159 0.351002 0.043979 0.244809
C48   C     C_R   0.050165 0.648996 0.956020 0.244784
C49   C     C_R   0.648998 0.050165 0.043979 0.244777
C50   C     C_R   0.350998 0.050161 0.956021 0.244778
C51   C     C_R   0.949839 0.649002 0.043979 0.244777
C52   C     C_R   0.949835 0.351002 0.956021 0.244778
C53   C     C_R   0.851004 0.449838 0.543979 0.244789
C54   C     C_R   0.148997 0.449840 0.456020 0.244809
C55   C     C_R   0.550157 0.851003 0.543980 0.244822
C56   C     C_R   0.500000 0.000002 0.053461 0.089901
C57   C     C_R   0.550165 0.148996 0.456021 0.244788
C58   C     C_R   0.148999 0.550165 0.543979 0.244768
C59   C     C_R   0.850998 0.550164 0.456021 0.244770
C60   C     C_R   0.449838 0.149003 0.543980 0.244768
C61   C     C_R   0.449832 0.851001 0.456021 0.244761
C62   C     C_R   0.274117 0.973379 0.021551 0.094853
C63   C     C_R   0.725884 0.973384 0.978450 0.094859
C64   C     C_R   0.026615 0.274116 0.021550 0.094860
C65   C     C_R   0.026621 0.725883 0.978449 0.094853
C66   C     C_R   0.725884 0.026618 0.021550 0.094847
C67   C     C_R   0.999998 0.500000 0.946539 0.089901
C68   C     C_R   0.274114 0.026613 0.978451 0.094857
C69   C     C_R   0.973388 0.725886 0.021548 0.094857
C70   C     C_R   0.973382 0.274116 0.978450 0.094847
C71   C     C_R   0.774117 0.473383 0.521552 0.094853
C72   C     C_R   0.225883 0.473383 0.478450 0.094861
C73   C     C_R   0.526612 0.774117 0.521551 0.094862
C74   C     C_R   0.526622 0.225883 0.478449 0.094854
C75   C     C_R   0.225884 0.526617 0.521550 0.094843
C76   C     C_R   0.774113 0.526617 0.478452 0.094855
C77   C     C_R   0.473388 0.225887 0.521549 0.094853
C78   C     C_R   0.999997 0.500000 0.053461 0.089892
C79   C     C_R   0.473378 0.774116 0.478452 0.094843
C80   C     C_R   0.925223 0.513520 0.474719 -0.041391
C81   C     C_R   0.074775 0.513520 0.525281 -0.041373
C82   C     C_R   0.486478 0.925225 0.474719 -0.041371
C83   C     C_R   0.486480 0.074777 0.525281 -0.041395
C84   C     C_R   0.074775 0.486490 0.474718 -0.041402
C85   C     C_R   0.925225 0.486488 0.525281 -0.041386
C86   C     C_R   0.513512 0.074775 0.474719 -0.041387
C87   C     C_R   0.513508 0.925225 0.525282 -0.041409
C88   C     C_R   0.425224 0.013517 0.974719 -0.041391
C89   C     C_R   0.499999 1.000000 0.390328 0.611500
C90   C     C_R   0.574775 0.013519 0.025281 -0.041380
C91   C     C_R   0.986481 0.425225 0.974719 -0.041380
C92   C     C_R   0.986483 0.574776 0.025281 -0.041392
C93   C     C_R   0.574776 0.986489 0.974719 -0.041400
C94   C     C_R   0.425225 0.986486 0.025281 -0.041389
C95   C     C_R   0.013514 0.574775 0.974719 -0.041389
C96   C     C_R   0.013511 0.425224 0.025281 -0.041400
H1    H     H_    0.453653 0.772514 0.108507 0.369219
H2    H     H_    0.046352 0.272194 0.391783 0.369439
H3    H     H_    0.727911 0.953658 0.608099 0.369573
H4    H     H_    0.727490 0.046342 0.391500 0.369225
H5    H     H_    0.046368 0.727360 0.608637 0.369087
H6    H     H_    0.953617 0.727386 0.391385 0.369143
H7    H     H_    0.272612 0.046387 0.608613 0.369144
H8    H     H_    0.272696 0.953630 0.391307 0.369040
H9    H     H_    0.546353 0.772260 0.891732 0.369418
H10   H     H_    0.227749 0.453647 0.108258 0.369430
H11   H     H_    0.227487 0.546347 0.891493 0.369219
H12   H     H_    0.546358 0.227440 0.108548 0.369202
H13   H     H_    0.453622 0.227446 0.891449 0.369193
H14   H     H_    0.772553 0.546378 0.108550 0.369194
H15   H     H_    0.772560 0.453642 0.891452 0.369201
H16   H     H_    0.953653 0.272509 0.608499 0.369222
I1    I     I_    0.839548 0.062455 0.058063 -0.064649
I2    I     I_    0.660445 0.562453 0.441943 -0.064615
I3    I     I_    0.437557 0.339555 0.558060 -0.064622
I4    I     I_    0.437542 0.660450 0.441941 -0.064643
I5    I     I_    0.660455 0.437542 0.558067 -0.064647
I6    I     I_    0.339546 0.437534 0.441939 -0.064652
I7    I     I_    0.562458 0.660455 0.558065 -0.064659
I8    I     I_    0.562468 0.339545 0.441936 -0.064644
I9    I     I_    0.160447 0.062447 0.941940 -0.064625
I10   I     I_    0.937554 0.839553 0.058060 -0.064626
I11   I     I_    0.937545 0.160452 0.941937 -0.064648
I12   I     I_    0.160455 0.937537 0.058066 -0.064648
I13   I     I_    0.839547 0.937538 0.941939 -0.064648
I14   I     I_    0.062462 0.160453 0.058061 -0.064649
I15   I     I_    0.062464 0.839545 0.941934 -0.064647
I16   I     I_    0.339548 0.562449 0.558064 -0.064652
O1    O     O_3   0.500000 0.000000 0.250000 -0.497169
O2    O     O_R   0.500000 0.930770 0.634140 -0.504569
O3    O     O_3   0.324528 0.957485 0.412004 -0.525502
O4    O     O_R   0.930770 0.500000 0.365860 -0.504643
O5    O     O_R   0.069230 0.500000 0.634140 -0.504669
O6    O     O_R   0.000000 0.430770 0.865860 -0.504649
O7    O     O_R   0.000000 0.569230 0.134140 -0.504632
O8    O     O_R   0.569230 0.000000 0.865860 -0.504609
O9    O     O_R   0.430770 0.000000 0.134140 -0.504637
O10   O     O_R   0.000000 0.569230 0.865860 -0.504640
O11   O     O_R   0.000000 0.430770 0.134140 -0.504602
O12   O     O_R   0.430770 0.000000 0.865860 -0.504634
O13   O     O_3   0.500000 1.000000 0.750000 -0.497197
O14   O     O_R   0.569230 0.000000 0.134140 -0.504648
O15   O     O_R   0.402550 0.166630 0.280410 -0.525025
O16   O     O_R   0.597450 0.833370 0.719590 -0.494532
O17   O     O_R   0.833370 0.402550 0.280410 -0.524994
O18   O     O_R   0.166630 0.597450 0.719590 -0.494613
O19   O     O_R   0.597450 0.833370 0.280410 -0.524988
O20   O     O_R   0.402550 0.166630 0.719590 -0.494639
O21   O     O_R   0.166630 0.597450 0.280410 -0.525031
O22   O     O_R   0.833370 0.402550 0.719590 -0.494596
O23   O     O_R   0.402550 0.833370 0.719590 -0.525044
O24   O     O_3   0.000000 0.500000 0.250000 -0.497194
O25   O     O_R   0.597450 0.166630 0.280410 -0.494594
O26   O     O_R   0.833370 0.597450 0.719590 -0.525023
O27   O     O_R   0.166630 0.402550 0.280410 -0.494544
O28   O     O_R   0.597450 0.166630 0.719590 -0.524988
O29   O     O_R   0.402550 0.833370 0.280410 -0.494619
O30   O     O_R   0.166630 0.402550 0.719590 -0.524994
O31   O     O_R   0.833370 0.597450 0.280410 -0.494633
O32   O     O_R   0.902550 0.666630 0.780410 -0.525021
O33   O     O_R   0.097450 0.333370 0.219590 -0.494548
O34   O     O_R   0.333370 0.902550 0.780410 -0.525007
O35   O     O_3   0.000000 0.500000 0.750000 -0.497170
O36   O     O_R   0.666630 0.097450 0.219590 -0.494600
O37   O     O_R   0.097450 0.333370 0.780410 -0.525004
O38   O     O_R   0.902550 0.666630 0.219590 -0.494625
O39   O     O_R   0.666630 0.097450 0.780410 -0.525016
O40   O     O_R   0.333370 0.902550 0.219590 -0.494610
O41   O     O_R   0.902550 0.333370 0.219590 -0.525022
O42   O     O_R   0.097450 0.666630 0.780410 -0.494607
O43   O     O_R   0.333370 0.097450 0.219590 -0.525023
O44   O     O_R   0.666630 0.902550 0.780410 -0.494543
O45   O     O_R   0.097450 0.666630 0.219590 -0.525005
O46   O     O_R   0.500000 0.930770 0.365860 -0.504680
O47   O     O_R   0.902550 0.333370 0.780410 -0.494600
O48   O     O_R   0.666630 0.902550 0.219590 -0.525003
O49   O     O_R   0.333370 0.097450 0.780410 -0.494626
O50   O     O_2   0.308892 0.855070 0.124701 -0.254805
O51   O     O_2   0.319001 0.785619 0.042254 -0.193674
O52   O     O_3   0.457496 0.824526 0.087985 -0.525688
O53   O     O_2   0.691105 0.855074 0.875298 -0.254630
O54   O     O_2   0.681013 0.785633 0.957750 -0.193889
O55   O     O_3   0.542512 0.824529 0.912019 -0.525818
O56   O     O_2   0.144926 0.308895 0.124701 -0.254617
O57   O     O_R   0.500000 0.069230 0.634140 -0.504637
O58   O     O_2   0.214367 0.318987 0.042250 -0.193900
O59   O     O_3   0.175470 0.457488 0.087981 -0.525827
O60   O     O_2   0.144929 0.691108 0.875299 -0.254807
O61   O     O_2   0.214381 0.680998 0.957746 -0.193675
O62   O     O_3   0.175474 0.542504 0.912015 -0.525691
O63   O     O_2   0.691118 0.144920 0.124702 -0.254855
O64   O     O_2   0.681006 0.214381 0.042258 -0.193576
O65   O     O_3   0.542512 0.175473 0.087990 -0.525667
O66   O     O_2   0.308869 0.144904 0.875297 -0.254841
O67   O     O_2   0.318980 0.214373 0.957737 -0.193592
O68   O     O_R   0.069230 0.500000 0.365860 -0.504592
O69   O     O_3   0.457474 0.175469 0.912003 -0.525667
O70   O     O_2   0.855096 0.691131 0.124703 -0.254842
O71   O     O_2   0.785627 0.681020 0.042263 -0.193592
O72   O     O_3   0.824531 0.542526 0.087997 -0.525666
O73   O     O_2   0.855080 0.308882 0.875297 -0.254856
O74   O     O_2   0.785619 0.318994 0.957742 -0.193576
O75   O     O_3   0.824527 0.457488 0.912010 -0.525667
O76   O     O_2   0.808894 0.355071 0.624700 -0.254803
O77   O     O_2   0.818999 0.285623 0.542252 -0.193698
O78   O     O_3   0.957496 0.324527 0.587982 -0.525691
O79   O     O_R   0.930770 0.500000 0.634140 -0.504648
O80   O     O_2   0.191101 0.355070 0.375299 -0.254580
O81   O     O_2   0.181011 0.285633 0.457752 -0.193939
O82   O     O_3   0.042509 0.324529 0.412021 -0.525802
O83   O     O_2   0.644937 0.808902 0.624700 -0.254480
O84   O     O_2   0.714362 0.818987 0.542242 -0.194062
O85   O     O_3   0.675472 0.957491 0.587975 -0.525939
O86   O     O_2   0.644930 0.191104 0.375300 -0.254798
O87   O     O_2   0.714380 0.180996 0.457747 -0.193703
O88   O     O_3   0.675473 0.042500 0.412017 -0.525702
O89   O     O_2   0.191121 0.644914 0.624703 -0.254933
O90   O     O_R   0.500000 0.069230 0.365860 -0.504649
O91   O     O_2   0.181009 0.714382 0.542262 -0.193471
O92   O     O_3   0.042515 0.675473 0.587992 -0.525546
O93   O     O_2   0.808856 0.644907 0.375299 -0.254890
O94   O     O_2   0.818995 0.714379 0.457737 -0.193522
O95   O     O_3   0.957472 0.675463 0.411989 -0.525620
O96   O     O_2   0.355095 0.191146 0.624701 -0.254894
O97   O     O_2   0.285624 0.181009 0.542262 -0.193513
O98   O     O_3   0.324536 0.042531 0.588010 -0.525623
O99   O     O_2   0.355090 0.808876 0.375296 -0.254978
O100  O     O_2   0.285614 0.818993 0.457735 -0.193413
S1    S     S_3+6 0.357397 0.851615 0.075867 0.067642
S2    S     S_3+6 0.142606 0.351621 0.424135 0.067592
S3    S     S_3+6 0.648379 0.857394 0.575863 0.067556
S4    S     S_3+6 0.648385 0.142600 0.424134 0.067624
S5    S     S_3+6 0.142612 0.648381 0.575871 0.067718
S6    S     S_3+6 0.857379 0.648375 0.424125 0.067701
S7    S     S_3+6 0.351626 0.142623 0.575875 0.067703
S8    S     S_3+6 0.351619 0.857388 0.424127 0.067734
S9    S     S_3+6 0.642609 0.851622 0.924134 0.067594
S10   S     S_3+6 0.148378 0.357391 0.075866 0.067594
S11   S     S_3+6 0.148385 0.642603 0.924133 0.067640
S12   S     S_3+6 0.642610 0.148382 0.075870 0.067681
S13   S     S_3+6 0.357379 0.148374 0.924127 0.067673
S14   S     S_3+6 0.851626 0.642621 0.075873 0.067673
S15   S     S_3+6 0.851618 0.357390 0.924130 0.067681
S16   S     S_3+6 0.857397 0.351617 0.575866 0.067631
Zn1   Zn    Zn3+2 0.401050 0.000000 0.206670 1.031366
Zn2   Zn    Zn3+2 0.098950 0.500000 0.293330 1.031607
Zn3   Zn    Zn3+2 0.500000 0.901050 0.706670 1.031650
Zn4   Zn    Zn3+2 0.500000 0.098950 0.293330 1.031368
Zn5   Zn    Zn3+2 0.098950 0.500000 0.706670 1.031382
Zn6   Zn    Zn3+2 0.901050 0.500000 0.293330 1.031454
Zn7   Zn    Zn3+2 0.500000 0.098950 0.706670 1.031485
Zn8   Zn    Zn3+2 0.500000 0.901050 0.293330 1.031361
Zn9   Zn    Zn3+2 0.598950 1.000000 0.793330 1.031641
Zn10  Zn    Zn3+2 1.000000 0.401050 0.206670 1.031615
Zn11  Zn    Zn3+2 0.000000 0.598950 0.793330 1.031381
Zn12  Zn    Zn3+2 0.598950 0.000000 0.206670 1.031428
Zn13  Zn    Zn3+2 0.401050 1.000000 0.793330 1.031438
Zn14  Zn    Zn3+2 0.000000 0.598950 0.206670 1.031448
Zn15  Zn    Zn3+2 1.000000 0.401050 0.793330 1.031424
Zn16  Zn    Zn3+2 0.901050 0.500000 0.706670 1.031381

loop_
_geom_bond_atom_site_label_1
_geom_bond_atom_site_label_2
_ccdc_geom_bond_type
C16   O45   A    
O21   Zn2   S    
C73   I7    S    
C23   C82   A    
O5    Zn5   S    
O93   S6    D    
O91   S5    D    
H13   O69   S    
C35   C36   T    
C24   C27   S    
C49   C90   A    
C5    C67   S    
C58   S5    S    
C19   C31   S    
C8    C56   S    
C62   I12   S    
O80   S2    D    
C9    O15   A    
O28   Zn7   S    
O4    Zn6   S    
C5    O10   A    
O62   S11   S    
C20   C30   S    
O70   S14   D    
H7    O98   S    
C56   C94   A    
O99   S8    D    
H2    O82   S    
C4    O79   A    
O69   S13   S    
C80   C85   A    
O83   S3    D    
C12   C85   A    
O43   Zn1   S    
O39   Zn9   S    
C7    C45   S    
O32   Zn11  S    
O51   S1    D    
O66   S13   D    
O96   S7    D    
H10   O59   S    
O79   Zn16  S    
C61   C82   A    
C49   S12   S    
O23   Zn3   S    
C15   O20   A    
C60   C83   A    
O64   S12   D    
O75   S15   S    
O19   Zn8   S    
C17   O47   A    
C10   O44   A    
C82   C87   A    
O25   Zn4   S    
O35   Zn15  S    
O63   S12   D    
O14   Zn12  S    
C57   C86   A    
C19   O25   A    
C10   C40   S    
C75   I16   S    
C46   S9    S    
C6    O11   A    
C17   C42   S    
C14   O48   A    
O22   Zn16  S    
C91   C96   A    
O58   S10   D    
C70   I11   S    
C1    C80   A    
H4    O88   S    
C17   O22   A    
O34   Zn13  S    
C78   C96   A    
O6    Zn15  S    
O7    Zn14  S    
C74   C77   A    
C89   O46   A    
C58   C75   A    
C76   I2    S    
C47   C96   A    
O30   Zn5   S    
C16   O21   A    
O100  S8    D    
C32   C38   T    
C48   C65   A    
C4    C12   S    
O77   S16   D    
O24   Zn2   S    
O38   Zn14  S    
C50   C88   A    
C34   C87   A    
C53   S16   S    
C29   C41   T    
C50   S13   S    
C56   C90   A    
O40   Zn1   S    
C89   O90   A    
O1    Zn8   S    
O86   S4    D    
C22   C28   S    
C79   I4    S    
C67   C95   A    
O81   S2    D    
O45   Zn14  S    
O36   Zn12  S    
C60   S7    S    
C13   O18   A    
C72   C75   A    
O56   S10   D    
O33   Zn10  S    
O76   S16   D    
H6    O95   S    
C21   O27   A    
C5    O6    A    
O52   S1    S    
C88   C94   A    
O44   Zn9   S    
C21   O33   A    
O12   Zn13  S    
C71   I5    S    
O18   Zn5   S    
H14   O72   S    
O87   S4    D    
O97   S7    D    
C55   S3    S    
O17   Zn6   S    
O35   Zn5   S    
C45   C88   A    
C52   C70   A    
O50   S1    D    
C49   C66   A    
C48   C95   A    
O89   S5    D    
C60   C77   A    
C57   S4    S    
C2    O2    A    
C24   O29   A    
C11   O17   A    
H1    O52   S    
C22   O28   A    
H3    O85   S    
C44   C62   A    
C21   C29   S    
C14   O19   A    
H8    O3    S    
C92   C95   A    
C33   C37   T    
O98   S7    S    
C3    O4    A    
C8    O9    A    
C1    C84   A    
O90   Zn4   S    
C57   C74   A    
C59   C80   A    
O35   Zn11  S    
C44   S1    S    
O65   S12   S    
C6    O7    A    
O95   S6    S    
C27   C43   T    
C51   C92   A    
O48   Zn12  S    
C47   S10   S    
O9    Zn1   S    
C78   C92   A    
O8    Zn9   S    
C26   C33   S    
O1    Zn12  S    
C55   C73   A    
O11   Zn10  S    
C67   C91   A    
C23   C89   S    
O82   S2    S    
C30   C40   T    
C26   O31   A    
C10   O16   A    
H9    O55   S    
C11   C39   S    
C23   C86   A    
C16   C43   S    
C13   C38   S    
C63   I13   S    
C20   O26   A    
C25   C35   S    
C55   C87   A    
C22   O39   A    
O42   Zn11  S    
C13   O42   A    
O37   Zn15  S    
C45   C93   A    
C11   O41   A    
C66   I1    S    
C64   C70   A    
C15   O49   A    
O13   Zn7   S    
C58   C81   A    
C59   S6    S    
C18   C32   S    
C34   C83   A    
H15   O75   S    
C18   O23   A    
C53   C71   A    
O29   Zn8   S    
O72   S14   S    
C15   C36   S    
C52   S15   S    
C48   S11   S    
O26   Zn16  S    
C90   C93   A    
C44   C94   A    
O27   Zn2   S    
O53   S9    D    
O57   Zn7   S    
O84   S3    D    
C9    O43   A    
C26   O38   A    
O20   Zn7   S    
O59   S10   S    
C24   O40   A    
C54   S2    S    
C9    C41   S    
O41   Zn10  S    
C65   I15   S    
O78   S16   S    
O24   Zn6   S    
O31   Zn6   S    
C73   C79   A    
O85   S3    S    
C68   I9    S    
C8    O14   A    
O2    Zn3   S    
C47   C64   A    
O3    S8    S    
O94   S6    D    
C74   I8    S    
C64   I14   S    
C3    O68   A    
O73   S15   D    
C62   C68   A    
C46   C63   A    
C25   O37   A    
C2    O57   A    
O13   Zn9   S    
C7    O8    A    
O60   S11   D    
O55   S9    S    
C14   C37   S    
O24   Zn10  S    
C18   O34   A    
H5    O92   S    
C2    C34   S    
C71   C76   A    
C46   C93   A    
O49   Zn13  S    
C69   I10   S    
C61   C79   A    
C65   C69   A    
O74   S15   D    
O35   Zn16  S    
H11   O62   S    
C28   C42   T    
O13   Zn3   S    
C31   C39   T    
C12   C81   A    
O68   Zn2   S    
C19   O36   A    
O67   S13   D    
C54   C84   A    
C63   C66   A    
C6    C78   S    
H16   O78   S    
C51   S14   S    
O24   Zn14  S    
C7    O12   A    
O1    Zn1   S    
C83   C86   A    
C54   C72   A    
O54   S9    D    
O15   Zn4   S    
C20   O32   A    
O16   Zn3   S    
C72   I6    S    
C25   O30   A    
C61   S8    S    
O13   Zn13  S    
C81   C84   A    
O88   S4    S    
C52   C91   A    
C53   C85   A    
O92   S5    S    
C51   C69   A    
C1    C3    S    
H12   O65   S    
C77   I3    S    
C50   C68   A    
C59   C76   A    
O46   Zn8   S    
O10   Zn11  S    
O71   S14   D    
O47   Zn15  S    
C4    O5    A    
O1    Zn4   S    
O61   S11   D    
