data_mof_unit_33405.cif
_audit_creation_date              2012-12-10T17:21:15-0500
_audit_creation_method            fapswitch 2.2
_symmetry_space_group_name_H-M    P1
_symmetry_Int_Tables_number       1
_space_group_crystal_system       triclinic
_cell_length_a                    9.674904
_cell_length_b                    10.809464
_cell_length_c                    13.849078
_cell_angle_alpha                 93.909323
_cell_angle_beta                  84.017643
_cell_angle_gamma                 90.247321
_cell_volume                      1437.09890612

loop_
_atom_site_label
_atom_site_type_symbol
_atom_type_description
_atom_site_fract_x
_atom_site_fract_y
_atom_site_fract_z
_atom_type_partial_charge
C1    C     C_R   0.499542 0.737020 0.504572 0.789118
C2    C     C_1   0.461642 0.499560 0.786476 -0.182249
C3    C     C_R   0.342179 0.885988 0.662484 -0.176963
C4    C     C_R   0.263185 0.957602 0.735398 -0.148053
C5    C     C_R   0.260566 0.085928 0.732926 -0.133062
C6    C     C_R   0.337456 0.143369 0.657800 -0.164501
C7    C     C_R   0.416627 0.072509 0.581872 0.045655
C8    C     C_R   0.417718 0.941855 0.584160 0.097909
C9    C     C_R   0.499609 0.870945 0.510364 -0.149519
C10   C     C_R   0.585579 0.927570 0.439937 -0.232571
C11   C     C_R   0.585916 0.055471 0.436248 0.243087
C12   C     C_R   0.476558 0.500504 0.682867 0.790028
C13   C     C_R   0.499448 0.128508 0.506135 -0.160403
C14   C     C_R   0.872933 0.366863 0.352197 -0.126623
C15   C     C_R   0.947078 0.333432 0.264202 -0.268130
C16   C     C_R   0.089310 0.339162 0.256598 -0.222853
C17   C     C_R   0.157284 0.365690 0.340680 0.322082
C18   C     C_R   0.083783 0.433987 0.424066 0.061780
C19   C     C_R   0.934535 0.434197 0.426509 0.152547
C20   C     C_R   0.915773 0.565181 0.569100 -0.107509
C21   C     C_R   0.063120 0.564358 0.570374 0.341267
C22   C     C_R   0.499874 0.262702 0.501035 0.819108
C23   C     C_R   0.523611 0.503073 0.317388 0.829368
C24   C     C_1   0.539146 0.508532 0.214082 -0.185948
C25   C     C_2   0.557250 0.515367 0.023262 -0.158389
C26   C     C_2   0.443258 0.496920 0.977625 -0.168537
C27   C     C_1   0.451698 0.498447 0.873644 -0.002505
C28   C     C_1   0.549099 0.512186 0.127099 -0.006583
Cu1   Cu    Cu3+1 0.359340 0.500010 0.500010 0.969154
Cu2   Cu    Cu3+1 0.640660 0.499990 0.499990 0.939359
H1    H     H_    0.343371 0.479740 0.018016 0.151500
H2    H     H_    0.767821 0.337590 0.359601 0.220125
H3    H     H_    0.895068 0.292352 0.204371 0.163332
H4    H     H_    0.143080 0.296991 0.190208 0.158221
H5    H     H_    0.657213 0.532214 0.982877 0.154595
H6    H     H_    0.651874 0.870991 0.386568 0.165821
H7    H     H_    0.346244 0.787127 0.669411 0.154451
H8    H     H_    0.205481 0.913443 0.794807 0.133508
H9    H     H_    0.200652 0.141469 0.790417 0.130226
H10   H     H_    0.335983 0.243440 0.661559 0.146029
H11   H     H_    0.852094 0.619789 0.625092 0.145554
N1    N     N_R   0.852210 0.498790 0.499090 -0.203489
N2    N     N_R   0.148080 0.498710 0.499060 -0.201948
O1    O     O_R   0.381190 0.680360 0.500010 -0.565274
O2    O     O_R   0.618760 0.680340 0.500000 -0.576680
O3    O     O_R   0.364420 0.499990 0.637850 -0.554000
O4    O     O_R   0.601990 0.499960 0.637840 -0.574975
O5    O     O_R   0.381240 0.319660 0.500000 -0.571060
O6    O     O_R   0.618810 0.319640 0.499990 -0.589488
O7    O     O_R   0.398010 0.500040 0.362160 -0.541739
O8    O     O_R   0.635580 0.500010 0.362150 -0.592753
N3    N     N_2   0.267563 0.283805 0.352118 -0.362903
H12   H     H_    0.234959 0.212287 0.394707 0.250101
C29   C     C_3   0.362904 0.242115 0.268391 -0.701212
H13   H     H_    0.467643 0.232014 0.291998 0.249282
H14   H     H_    0.370810 0.309963 0.211588 0.221076
H15   H     H_    0.328927 0.151182 0.236777 0.207433
N4    N     N_2   0.122639 0.637279 0.644226 -0.388047
H16   H     H_    0.099599 0.730136 0.642765 0.232141
C30   C     C_3   0.092735 0.594628 0.741051 -0.701314
H17   H     H_    0.981190 0.609008 0.767546 0.200605
H18   H     H_    0.156353 0.647912 0.791624 0.223030
H19   H     H_    0.118891 0.494657 0.741515 0.246111
N5    N     N_2   0.677169 0.111452 0.364513 -0.445183
H20   H     H_    0.775205 0.124941 0.386126 0.261384
C31   C     C_3   0.680438 0.058350 0.265306 -0.752315
H21   H     H_    0.719195 0.128716 0.214516 0.229277
H22   H     H_    0.574808 0.029595 0.248142 0.242896
H23   H     H_    0.751491 0.977035 0.253700 0.229620

loop_
_geom_bond_atom_site_label_1
_geom_bond_atom_site_label_2
_ccdc_geom_bond_type
C17   C18   A    
C31   H22   S    
C23   C24   S    
Cu1   Cu2   S    
C11   N5    S    
C9    C10   A    
C1    O1    A    
C22   O5    A    
C14   C15   A    
C19   N1    A    
C7    C13   A    
Cu1   O3    S    
Cu2   O8    S    
C2    C12   S    
N5    H20   S    
C5    H9    S    
C31   H21   S    
N4    H16   S    
C7    C8    A    
C18   N2    A    
Cu1   N2    S    
C25   C28   S    
C20   N1    A    
C11   C13   A    
C1    O2    A    
C26   C27   S    
C2    C27   T    
C25   H5    S    
C12   O4    A    
C4    C5    A    
C17   N3    S    
C30   H18   S    
Cu2   O6    S    
N3    C29   S    
C13   C22   S    
C20   H11   S    
C6    C7    A    
C6    H10   S    
Cu1   O7    S    
C22   O6    A    
Cu1   O1    S    
C5    C6    A    
C29   H14   S    
C3    C8    A    
C31   H23   S    
C30   H19   S    
C10   C11   A    
Cu1   O5    S    
N4    C30   S    
C15   C16   A    
C24   C28   T    
Cu2   O4    S    
C21   N4    S    
C1    C9    S    
C20   C21   A    
C3    H7    S    
C12   O3    A    
C18   C19   A    
C26   H1    S    
C14   H2    S    
C29   H13   S    
C8    C9    A    
C4    H8    S    
C10   H6    S    
Cu2   O2    S    
C16   H4    S    
C25   C26   D    
C21   N2    A    
C23   O8    A    
C14   C19   A    
C15   H3    S    
Cu2   N1    S    
C3    C4    A    
C16   C17   A    
N3    H12   S    
C30   H17   S    
C23   O7    A    
C29   H15   S    
N5    C31   S    
