data_mof_unit_6911.cif
_audit_creation_date              2012-12-10T22:11:04-0500
_audit_creation_method            fapswitch 2.2
_symmetry_space_group_name_H-M    P1
_symmetry_Int_Tables_number       1
_space_group_crystal_system       triclinic
_cell_length_a                    12.120185
_cell_length_b                    12.314451
_cell_length_c                    22.992958
_cell_angle_alpha                 90.879306
_cell_angle_beta                  90.666181
_cell_angle_gamma                 90.975392
_cell_volume                      3430.63380988

loop_
_atom_site_label
_atom_site_type_symbol
_atom_type_description
_atom_site_fract_x
_atom_site_fract_y
_atom_site_fract_z
_atom_type_partial_charge
C1    C     C_R   0.657719 0.998236 0.578923 0.876682
C2    C     C_R   0.102873 0.852027 0.814022 -0.114720
C3    C     C_R   0.903412 0.205203 0.131868 -0.228720
C4    C     C_R   0.101940 0.770373 0.854414 -0.232391
C5    C     C_R   0.139248 0.908273 0.306853 -0.124510
C6    C     C_R   0.891746 0.086361 0.676115 -0.074025
C7    C     C_R   0.221287 0.906248 0.349136 -0.228800
C8    C     C_R   0.808118 0.089712 0.634799 -0.191017
C9    C     C_R   0.843658 0.108297 0.306113 0.541751
C10   C     C_R   0.133312 0.892425 0.681795 0.557883
C11   C     C_R   0.764712 0.102863 0.349802 -0.290381
C12   C     C_R   0.342164 0.001575 0.421074 0.871564
C13   C     C_R   0.211772 0.897786 0.638025 -0.294781
C14   C     C_3   0.995750 0.009563 0.247612 -0.065425
C15   C     C_3   0.004832 0.990529 0.751977 -0.069049
C16   C     C_R   0.654236 0.001909 0.420454 0.899646
C17   C     C_R   0.346028 0.998115 0.579646 0.902876
C18   C     C_R   0.091786 0.007352 0.290852 0.205009
C19   C     C_R   0.910909 0.990532 0.707356 0.222747
C20   C     C_R   0.254527 0.002509 0.377730 -0.021051
C21   C     C_R   0.745369 0.996076 0.622107 -0.026460
C22   C     C_R   0.895680 0.010613 0.287830 -0.006630
C23   C     C_R   0.897535 0.774865 0.147279 -0.279944
C24   C     C_R   0.105857 0.989339 0.712588 -0.012339
C25   C     C_R   0.736120 0.004106 0.375016 -0.095121
C26   C     C_R   0.264661 0.995835 0.625273 -0.093260
C27   C     C_R   0.998060 0.105736 0.206923 0.238378
C28   C     C_R   0.003165 0.894948 0.793119 0.228536
C29   C     C_R   0.998440 0.268877 0.124228 -0.025760
C30   C     C_R   0.001642 0.732560 0.876373 -0.018726
C31   C     C_R   0.996955 0.913190 0.204386 -0.070202
C32   C     C_R   0.002073 0.088196 0.794142 -0.074343
C33   C     C_R   0.992430 0.754321 0.115707 -0.211529
C34   C     C_R   0.101034 0.196824 0.867867 -0.286980
C35   C     C_R   0.006427 0.256480 0.877865 -0.213987
C36   C     C_R   0.993049 0.664062 0.074262 0.920349
C37   C     C_R   0.006809 0.340040 0.923269 0.921521
C38   C     C_R   0.998940 0.352269 0.080792 0.864320
C39   C     C_R   0.001041 0.648169 0.919374 0.848571
C40   C     C_R   0.120406 0.101846 0.323232 -0.200927
C41   C     C_R   0.851318 0.895386 0.691398 -0.133609
C42   C     C_R   0.202573 0.099993 0.365241 -0.207687
C43   C     C_R   0.768440 0.898630 0.649846 -0.217918
C44   C     C_R   0.868375 0.912851 0.316079 -0.237213
C45   C     C_R   0.093592 0.893105 0.171587 0.442073
C46   C     C_R   0.159412 0.087835 0.698168 -0.261758
C47   C     C_R   0.787801 0.909065 0.357870 -0.202799
C48   C     C_R   0.239069 0.090579 0.655736 -0.199257
C49   C     C_R   0.094191 0.168811 0.197554 -0.099957
C50   C     C_R   0.903604 0.860546 0.818312 -0.214802
C51   C     C_R   0.093852 0.250250 0.156938 -0.219617
C52   C     C_R   0.902484 0.778565 0.858592 -0.222589
C53   C     C_R   0.898419 0.856310 0.189217 -0.272041
C54   C     C_R   0.099378 0.115126 0.825974 -0.245613
C55   C     C_3   0.281747 0.892413 0.191172 -0.248234
C56   C     C_R   0.902922 0.141671 0.809094 0.436602
C57   C     C_3   0.725417 0.083720 0.830206 -0.271078
C58   C     C_3   0.794917 0.276726 0.270907 -0.343038
C59   C     C_3   0.141270 0.706246 0.695585 -0.354887
C60   C     C_3   0.158491 0.883998 0.040794 -0.264435
C61   C     C_3   0.825039 0.378156 0.805184 -0.280642
C62   C     C_R   0.087856 0.819449 0.124518 0.421558
C63   C     C_R   0.909471 0.234210 0.845114 0.420664
C64   C     C_R   0.903743 0.123441 0.172198 -0.119805
H1    H     H_    0.224551 0.174833 0.388238 0.163515
H2    H     H_    0.182227 0.881279 0.799248 0.108946
H3    H     H_    0.113087 0.831808 0.286961 0.116103
H4    H     H_    0.939713 0.159781 0.685078 0.111053
H5    H     H_    0.768620 0.832188 0.378020 0.169093
H6    H     H_    0.278523 0.167565 0.645794 0.167732
H7    H     H_    0.168697 0.297810 0.150745 0.157874
H8    H     H_    0.824136 0.752398 0.876264 0.160799
H9    H     H_    0.821799 0.728915 0.139037 0.189976
H10   H     H_    0.176446 0.213115 0.892454 0.190258
H11   H     H_    0.829359 0.217286 0.106110 0.158485
H12   H     H_    0.722466 0.824488 0.639504 0.160145
H13   H     H_    0.179940 0.737702 0.868697 0.156677
H14   H     H_    0.258455 0.829381 0.359363 0.156217
H15   H     H_    0.793287 0.165090 0.612568 0.149837
H16   H     H_    0.728217 0.176980 0.365676 0.169423
H17   H     H_    0.228517 0.825755 0.612320 0.169173
H18   H     H_    0.080184 0.178007 0.315585 0.187179
H19   H     H_    0.868407 0.817555 0.710197 0.177137
H20   H     H_    0.329922 0.884463 0.150641 0.212245
H21   H     H_    0.261862 0.810443 0.208599 0.135281
H22   H     H_    0.335729 0.934974 0.223811 0.169952
H23   H     H_    0.911140 0.838474 0.306239 0.165318
H24   H     H_    0.676202 0.156204 0.841100 0.221371
H25   H     H_    0.765099 0.051324 0.870213 0.136925
H26   H     H_    0.666543 0.020446 0.813429 0.162619
H27   H     H_    0.763294 0.322468 0.309023 0.169554
H28   H     H_    0.726645 0.231099 0.248003 0.149851
H29   H     H_    0.827657 0.337413 0.240092 0.205054
H30   H     H_    0.219750 0.725659 0.719586 0.152137
H31   H     H_    0.158423 0.670368 0.652101 0.173458
H32   H     H_    0.096589 0.643535 0.720733 0.197919
H33   H     H_    0.154124 0.969623 0.056783 0.175288
H34   H     H_    0.136677 0.164617 0.717584 0.166841
H35   H     H_    0.082637 0.861301 0.015328 0.145561
H36   H     H_    0.229348 0.878850 0.010837 0.181529
H37   H     H_    0.821252 0.338780 0.761269 0.165534
H38   H     H_    0.900959 0.429926 0.809927 0.139168
H39   H     H_    0.753087 0.432201 0.808838 0.186029
H40   H     H_    0.171285 0.154025 0.219810 0.164675
H41   H     H_    0.826007 0.895681 0.806193 0.162741
H42   H     H_    0.820362 0.875184 0.208825 0.178331
H43   H     H_    0.174843 0.071457 0.818898 0.171945
H44   H     H_    0.829664 0.074122 0.176862 0.121429
O1    O     O_R   0.621380 0.090460 0.561410 -0.627310
O2    O     O_R   0.912410 0.372520 0.941210 -0.564708
O3    O     O_R   0.905660 0.383870 0.059980 -0.633969
O4    O     O_R   0.094340 0.616130 0.940020 -0.630393
O5    O     O_R   0.092570 0.390420 0.063230 -0.631272
O6    O     O_R   0.907430 0.609580 0.936770 -0.631075
O7    O     O_R   0.900680 0.620930 0.055550 -0.639700
O8    O     O_R   0.099320 0.379070 0.944450 -0.638593
O9    O     O_3   0.188001 0.956808 0.181252 -0.631467
O10   O     O_3   0.801538 0.107691 0.785818 -0.617368
O11   O     O_3   0.882314 0.209042 0.287877 -0.631354
O12   O     O_R   0.378620 0.909540 0.438590 -0.629810
O13   O     O_3   0.072519 0.797204 0.690180 -0.629000
O14   O     O_3   0.175972 0.812034 0.087020 -0.597959
O15   O     O_3   0.818852 0.300509 0.849509 -0.590165
O16   O     O_R   0.617150 0.909540 0.438590 -0.629554
O17   O     O_R   0.382850 0.090460 0.561410 -0.628566
O18   O     O_R   0.619720 0.093230 0.440890 -0.631950
O19   O     O_R   0.380280 0.906770 0.559110 -0.632673
O20   O     O_R   0.618800 0.906770 0.559110 -0.630312
O21   O     O_R   0.381200 0.093230 0.440890 -0.631343
O22   O     O_R   0.087590 0.627480 0.058790 -0.569001
Zn1   Zn    Zn3+2 0.501730 0.123520 0.501540 0.937938
Zn2   Zn    Zn3+2 0.498270 0.876480 0.498460 0.935592
Zn3   Zn    Zn3+2 0.125690 0.504390 0.002180 0.960722
Zn4   Zn    Zn3+2 0.874310 0.495610 0.997820 0.960247

loop_
_geom_bond_atom_site_label_1
_geom_bond_atom_site_label_2
_ccdc_geom_bond_type
C59   O13   S    
C1    C21   S    
C14   C18   S    
C2    C4    A    
C1    O20   A    
O4    Zn3   S    
C5    H3    S    
C10   O13   S    
C49   H40   S    
C15   C32   S    
C37   O8    A    
C3    C64   A    
C15   C19   S    
C6    C19   A    
C57   H25   S    
C54   H43   S    
C17   C26   S    
C35   C37   S    
C58   H29   S    
C55   O9    S    
C9    C22   A    
C11   C25   A    
C41   H19   S    
C13   H17   S    
C45   C62   A    
C16   C25   S    
C33   C36   S    
O16   Zn2   S    
C34   C35   A    
C49   C51   A    
C3    C29   A    
C18   C40   A    
O19   Zn2   S    
C47   H5    S    
C30   C52   A    
C1    O1    A    
C12   O12   A    
C28   C50   A    
C53   H42   S    
C22   C44   A    
C33   C62   A    
C23   C33   A    
C29   C38   S    
O1    Zn1   S    
C8    H15   S    
C50   C52   A    
C64   H44   S    
C59   H30   S    
C14   C27   S    
C44   H23   S    
C3    H11   S    
C58   H27   S    
C14   C31   S    
C44   C47   A    
C26   C48   A    
C60   H35   S    
C40   C42   A    
C46   H34   S    
O5    Zn3   S    
C41   C43   A    
C59   H31   S    
C23   H9    S    
O20   Zn2   S    
C32   C54   A    
C23   C53   A    
C46   C48   A    
C57   H26   S    
C40   H18   S    
C60   H33   S    
C12   O21   A    
C5    C7    A    
C38   O5    A    
C17   O19   A    
C6    C8    A    
C5    C18   A    
C10   C24   A    
C55   H21   S    
C61   H37   S    
C52   H8    S    
C36   O22   A    
C42   H1    S    
O17   Zn1   S    
C20   C42   A    
C11   H16   S    
C50   H41   S    
C39   O6    A    
C12   C20   S    
C8    C21   A    
O6    Zn4   S    
C56   C63   A    
C31   C53   A    
C60   O14   S    
C9    C11   A    
C37   O2    A    
C34   H10   S    
C7    H14   S    
C39   O4    A    
C34   C54   A    
C9    O11   S    
C13   C26   A    
O2    Zn4   S    
O22   Zn3   S    
C59   H32   S    
C62   O14   S    
C29   C51   A    
C45   O9    S    
C43   H12   S    
C25   C47   A    
C15   C24   S    
C61   H39   S    
O12   Zn2   S    
C56   O10   S    
C48   H6    S    
C60   H36   S    
C10   C13   A    
C63   O15   S    
C51   H7    S    
O3    Zn4   S    
C2    H2    S    
O8    Zn3   S    
O7    Zn4   S    
C55   H20   S    
C57   H24   S    
C61   O15   S    
C24   C46   A    
C14   C22   S    
C55   H22   S    
C61   H38   S    
C16   O16   A    
C4    H13   S    
C17   O17   A    
C15   C28   S    
C16   O18   A    
O18   Zn1   S    
C6    H4    S    
C58   O11   S    
C35   C63   A    
C30   C39   S    
C4    C30   A    
C27   C64   A    
C19   C41   A    
C7    C20   A    
C31   C45   A    
C2    C28   A    
C38   O3    A    
C36   O7    A    
C58   H28   S    
C32   C56   A    
C21   C43   A    
C27   C49   A    
C57   O10   S    
O21   Zn1   S    
