data_mof_unit_15685.cif
_audit_creation_date              2012-12-10T21:11:30-0500
_audit_creation_method            fapswitch 2.2
_symmetry_space_group_name_H-M    P1
_symmetry_Int_Tables_number       1
_space_group_crystal_system       triclinic
_cell_length_a                    17.292589
_cell_length_b                    16.822481
_cell_length_c                    10.68867
_cell_angle_alpha                 90.001179
_cell_angle_beta                  93.878192
_cell_angle_gamma                 90.00027
_cell_volume                      3102.25934315

loop_
_atom_site_label
_atom_site_type_symbol
_atom_type_description
_atom_site_fract_x
_atom_site_fract_y
_atom_site_fract_z
_atom_type_partial_charge
C1    C     C_R   0.351810 0.500000 0.503669 0.938856
C2    C     C_R   0.648009 0.500000 0.493350 0.922789
C3    C     C_R   0.875231 0.500002 0.350053 0.099454
C4    C     C_R   0.106666 0.500002 0.422970 0.055707
C5    C     C_1   0.958036 0.500002 0.356470 0.183322
C6    C     C_1   0.026518 0.500002 0.379755 0.122147
C7    C     C_R   0.460531 0.833772 0.403223 -0.325236
C8    C     C_R   0.538938 0.165531 0.594834 -0.347908
C9    C     C_R   0.538938 0.834472 0.594833 -0.347915
C10   C     C_R   0.460530 0.166225 0.403224 -0.325242
C11   C     C_R   0.459495 0.749780 0.405021 0.106081
C12   C     C_R   0.540512 0.249527 0.594180 0.069515
C13   C     C_R   0.540512 0.750476 0.594179 0.069505
C14   C     C_R   0.459494 0.250217 0.405022 0.106060
C15   C     C_R   0.499557 0.876686 0.498815 0.170385
C16   C     C_R   0.499557 0.123314 0.498816 0.170382
C17   C     C_1   0.499387 0.963728 0.498373 -0.018819
C18   C     C_1   0.499387 0.036272 0.498373 -0.018819
C19   C     C_R   0.512049 0.499999 0.261788 0.904594
C20   C     C_R   0.489908 0.500001 0.739478 0.929573
C21   C     C_R   0.547344 0.645415 0.116322 -0.109338
C22   C     C_R   0.461067 0.353644 0.887957 -0.102948
C23   C     C_R   0.461089 0.646364 0.887972 -0.102933
C24   C     C_R   0.547322 0.354576 0.116307 -0.109331
C25   C     C_R   0.528155 0.717508 0.058007 -0.167901
C26   C     C_R   0.481258 0.282008 0.947132 -0.193971
C27   C     C_R   0.481290 0.717995 0.947156 -0.193992
C28   C     C_R   0.528123 0.282486 0.057982 -0.167927
C29   C     C_R   0.486831 0.572919 0.940275 0.111223
C30   C     C_R   0.520817 0.427327 0.062721 0.099200
C31   C     C_R   0.520827 0.572669 0.062728 0.099177
C32   C     C_R   0.486820 0.427084 0.940269 0.111204
C33   C     C_R   0.479713 0.500002 0.874428 -0.243213
C34   C     C_R   0.526415 0.499998 0.128453 -0.257670
C35   C     C_R   0.838054 0.572753 0.369072 -0.109682
C36   C     C_R   0.144389 0.427136 0.448952 -0.093268
C37   C     C_R   0.144388 0.572866 0.448976 -0.093249
C38   C     C_R   0.838053 0.427250 0.369063 -0.109689
C39   C     C_R   0.766779 0.573089 0.425553 -0.104170
C40   C     C_R   0.223751 0.426926 0.488661 -0.082312
C41   C     C_R   0.223752 0.573073 0.488680 -0.082303
C42   C     C_R   0.766778 0.426912 0.425544 -0.104164
C43   C     C_R   0.729474 0.500000 0.453426 -0.194418
C44   C     C_R   0.265336 0.500000 0.497834 -0.172667
H1    H     H_    0.547082 0.227046 0.101366 0.145527
H2    H     H_    0.462778 0.773845 0.904661 0.139292
H3    H     H_    0.462738 0.226162 0.904629 0.139299
H4    H     H_    0.547121 0.772945 0.101399 0.145539
H5    H     H_    0.582964 0.646851 0.203259 0.194226
H6    H     H_    0.424912 0.350993 0.801785 0.174828
H7    H     H_    0.424935 0.649023 0.801799 0.174809
H8    H     H_    0.582941 0.353132 0.203244 0.194228
H9    H     H_    0.429278 0.865981 0.327750 0.141794
H10   H     H_    0.570190 0.132708 0.669618 0.145485
H11   H     H_    0.570190 0.867298 0.669616 0.145484
H12   H     H_    0.429278 0.134014 0.327752 0.141796
N1    N     N_R   0.500000 0.707230 0.500000 -0.104095
N2    N     N_R   0.500000 0.292770 0.500000 -0.104098
O1    O     O_R   0.389110 0.566570 0.499990 -0.567461
O2    O     O_R   0.610890 0.433430 0.500010 -0.563832
O3    O     O_R   0.610890 0.566570 0.500010 -0.563837
O4    O     O_R   0.389110 0.433430 0.499990 -0.567464
O5    O     O_R   0.499990 0.566540 0.316770 -0.599498
O6    O     O_R   0.500010 0.433460 0.683230 -0.598752
O7    O     O_R   0.500010 0.566540 0.683230 -0.598743
O8    O     O_R   0.499990 0.433460 0.316770 -0.599487
Zn1   Zn    Zn3+2 0.500000 0.588860 0.500000 1.049749
Zn2   Zn    Zn3+2 0.500000 0.411140 0.500000 1.049747
C45   C     C_2   0.874831 0.649145 0.332551 0.507939
H13   H     H_    0.859140 0.705119 0.374256 0.091872
O9    O     O_2   0.921811 0.650636 0.252238 -0.541246
C46   C     C_2   0.100035 0.351165 0.440103 0.458397
H14   H     H_    0.122833 0.300048 0.393130 0.126373
O10   O     O_2   0.038277 0.344705 0.488146 -0.547380
C47   C     C_2   0.100034 0.648837 0.440158 0.458373
H15   H     H_    0.122836 0.699965 0.393222 0.126372
O11   O     O_2   0.038270 0.655285 0.488187 -0.547394
C48   C     C_2   0.874828 0.350859 0.332529 0.507939
H16   H     H_    0.859131 0.294882 0.374217 0.091869
O12   O     O_2   0.921812 0.349371 0.252222 -0.541248
C49   C     C_2   0.734934 0.651062 0.460417 0.941759
O13   O     O_2   0.754824 0.680239 0.562257 -0.569216
O14   O     O_R   0.685510 0.692490 0.374661 -0.834724
H17   H     H_    0.668452 0.745452 0.408693 0.339010
C50   C     C_2   0.260296 0.351369 0.534604 0.972655
O15   O     O_2   0.260092 0.292820 0.466838 -0.631917
O16   O     O_R   0.294783 0.347600 0.656457 -0.806589
H18   H     H_    0.316863 0.293015 0.677546 0.332639
C51   C     C_2   0.260300 0.648628 0.534633 0.972619
O17   O     O_2   0.260101 0.707177 0.466873 -0.631906
O18   O     O_R   0.294785 0.652393 0.656487 -0.806587
H19   H     H_    0.316867 0.706977 0.677583 0.332641
C52   C     C_2   0.734930 0.348938 0.460394 0.941755
O19   O     O_2   0.754819 0.319756 0.562229 -0.569215
O20   O     O_R   0.685504 0.307517 0.374631 -0.834725
H20   H     H_    0.668443 0.254553 0.408654 0.339009
C53   C     C_2   0.413230 0.713142 0.298540 0.497569
H21   H     H_    0.406867 0.744638 0.209859 0.031661
O21   O     O_2   0.376455 0.652249 0.308664 -0.510579
C54   C     C_2   0.588132 0.285212 0.700073 0.483158
H22   H     H_    0.597959 0.251688 0.786430 0.041002
O22   O     O_2   0.621844 0.348094 0.691963 -0.484647
C55   C     C_2   0.588135 0.714794 0.700070 0.483136
H23   H     H_    0.597969 0.748325 0.786423 0.041006
O23   O     O_2   0.621840 0.651908 0.691965 -0.484643
C56   C     C_2   0.413227 0.286851 0.298541 0.497558
H24   H     H_    0.406857 0.255348 0.209865 0.031665
O24   O     O_2   0.376460 0.347749 0.308662 -0.510582

loop_
_geom_bond_atom_site_label_1
_geom_bond_atom_site_label_2
_ccdc_geom_bond_type
C24   H8    S    
O8    Zn2   S    
O16   H18   S    
C4    C36   A    
C52   O19   D    
C42   C52   S    
C41   C51   S    
O20   H20   S    
C1    O4    A    
C21   H5    S    
C53   H21   S    
C50   O15   D    
C7    C11   A    
C21   C31   A    
C22   C32   A    
C23   C29   A    
C38   C42   A    
C1    O1    A    
C5    C6    T    
C2    O2    A    
C13   N1    A    
C56   H24   S    
C29   C33   A    
O1    Zn1   S    
C19   O8    A    
C45   O9    D    
C9    C13   A    
C53   O21   D    
C3    C38   A    
C19   O5    A    
O7    Zn1   S    
C9    H11   S    
C23   C27   A    
C51   O18   S    
C10   H12   S    
C2    O3    A    
C22   H6    S    
C12   N2    A    
C7    C15   A    
C37   C47   S    
C8    C16   A    
N1    Zn1   S    
C49   O14   S    
C49   O13   D    
C50   O16   S    
C14   N2    A    
O5    Zn1   S    
C28   H1    S    
C30   C34   A    
C20   O7    A    
C36   C40   A    
C39   C49   S    
C4    C6    S    
C10   C14   A    
C8    H10   S    
O18   H19   S    
C48   H16   S    
C39   C43   A    
C38   C48   S    
C40   C50   S    
C20   O6    A    
C35   C39   A    
C47   H15   S    
O3    Zn1   S    
C1    C44   S    
C23   H7    S    
O14   H17   S    
C3    C35   A    
C2    C43   S    
C8    C12   A    
C54   O22   D    
C17   C18   T    
C31   C34   A    
C55   O23   D    
C47   O11   D    
C25   H4    S    
O2    Zn2   S    
C26   H3    S    
C20   C33   S    
C27   H2    S    
C46   O10   D    
C41   C44   A    
C13   C55   S    
C42   C43   A    
C7    H9    S    
O6    Zn2   S    
N2    Zn2   S    
C15   C17   S    
C21   C25   A    
C24   C28   A    
C46   H14   S    
C3    C5    S    
C19   C34   S    
C25   C27   A    
C26   C28   A    
O4    Zn2   S    
C11   C53   S    
C32   C33   A    
C9    C15   A    
C29   C31   A    
C10   C16   A    
C30   C32   A    
C52   O20   S    
C56   O24   D    
C54   H22   S    
C48   O12   D    
C37   C41   A    
C45   H13   S    
C24   C30   A    
C12   C54   S    
C40   C44   A    
C4    C37   A    
C35   C45   S    
C16   C18   S    
C22   C26   A    
C14   C56   S    
C55   H23   S    
C51   O17   D    
C11   N1    A    
C36   C46   S    
