data_mof_unit_37467.cif
_audit_creation_date              2012-12-10T17:41:48-0500
_audit_creation_method            fapswitch 2.2
_symmetry_space_group_name_H-M    P1
_symmetry_Int_Tables_number       1
_space_group_crystal_system       triclinic
_cell_length_a                    13.771095
_cell_length_b                    13.877765
_cell_length_c                    15.064024
_cell_angle_alpha                 89.164071
_cell_angle_beta                  89.528781
_cell_angle_gamma                 85.381788
_cell_volume                      2869.19200631

loop_
_atom_site_label
_atom_site_type_symbol
_atom_type_description
_atom_site_fract_x
_atom_site_fract_y
_atom_site_fract_z
_atom_type_partial_charge
C1    C     C_R   0.500314 0.500366 0.328607 0.789766
C2    C     C_R   0.499742 0.500496 0.671350 0.786380
C3    C     C_R   0.500852 0.507085 0.953322 0.007328
C4    C     C_R   0.501552 0.506506 0.046343 -0.003804
C5    C     C_R   0.588341 0.483906 0.906267 0.070727
C6    C     C_R   0.413413 0.526464 0.093452 0.058789
C7    C     C_R   0.325188 0.552044 0.955110 0.436870
C8    C     C_R   0.677817 0.464202 0.044966 0.435773
C9    C     C_R   0.326094 0.548158 0.047749 -0.280009
C10   C     C_R   0.675663 0.462131 0.951904 -0.306502
C11   C     C_R   0.788722 0.578153 0.465265 0.607262
C12   C     C_R   0.211918 0.423180 0.537296 0.611198
C13   C     C_R   0.799459 0.421382 0.532254 -0.065596
C14   C     C_R   0.200508 0.578185 0.467233 -0.080547
C15   C     C_R   0.902572 0.418604 0.532133 -0.088801
C16   C     C_R   0.097531 0.581976 0.470289 -0.087870
C17   C     C_R   0.948462 0.500066 0.501079 -0.016836
C18   C     C_R   0.051756 0.500449 0.501431 -0.008874
C19   C     C_R   0.891179 0.581228 0.469425 -0.116501
C20   C     C_R   0.109240 0.419182 0.532693 -0.140172
C21   C     C_R   0.961001 0.336390 0.561981 0.467935
C22   C     C_R   0.039167 0.665318 0.443368 0.448429
C23   C     C_R   0.515412 0.317156 0.500130 0.821809
C24   C     C_R   0.484579 0.682832 0.500129 0.813777
C25   C     C_R   0.063065 0.336175 0.558984 -0.249983
C26   C     C_R   0.937362 0.663960 0.442531 -0.255766
C27   C     C_1   0.475491 0.785582 0.502104 -0.135275
C28   C     C_1   0.524483 0.214361 0.498978 -0.129561
C29   C     C_2   0.460261 0.975559 0.507078 0.191927
C30   C     C_2   0.539872 0.024296 0.495389 0.205454
C31   C     C_1   0.532263 0.127734 0.497486 0.064519
C32   C     C_1   0.467757 0.872169 0.504330 0.055080
C33   C     C_R   0.587136 0.481641 0.813971 -0.202149
C34   C     C_R   0.413693 0.523917 0.185828 -0.194911
C35   C     C_R   0.499767 0.502585 0.768104 -0.071148
C36   C     C_R   0.500874 0.502153 0.231737 -0.091831
C37   C     C_R   0.413099 0.526811 0.814649 -0.248518
C38   C     C_R   0.588490 0.482541 0.185074 -0.217523
C39   C     C_R   0.412454 0.529164 0.907343 0.008441
C40   C     C_R   0.589946 0.484284 0.092324 0.035308
Cu1   Cu    Cu3+1 0.597420 0.500010 0.499990 0.968529
Cu2   Cu    Cu3+1 0.402580 0.499990 0.500010 0.973187
H1    H     H_    0.654320 0.462844 0.777884 0.146818
H2    H     H_    0.345947 0.539575 0.221963 0.158285
H3    H     H_    0.346294 0.544105 0.778418 0.170190
H4    H     H_    0.655342 0.464877 0.221231 0.188854
H5    H     H_    0.258183 0.562360 0.083923 0.157942
H6    H     H_    0.742171 0.442551 0.915267 0.147095
H7    H     H_    0.763504 0.360358 0.557955 0.182679
H8    H     H_    0.236355 0.638522 0.439860 0.185583
H9    H     H_    0.105919 0.270299 0.577737 0.195462
H10   H     H_    0.894820 0.729049 0.421660 0.193067
N1    N     N_R   0.743820 0.499960 0.499930 -0.231190
N2    N     N_R   0.256180 0.500040 0.500070 -0.224980
O1    O     O_R   0.582280 0.500030 0.370250 -0.607402
O2    O     O_R   0.417720 0.499970 0.629750 -0.590774
O3    O     O_R   0.417740 0.500020 0.370270 -0.575014
O4    O     O_R   0.582260 0.499980 0.629730 -0.585576
O5    O     O_R   0.593900 0.362160 0.500010 -0.591782
O6    O     O_R   0.406100 0.637840 0.499990 -0.603437
O7    O     O_R   0.429360 0.362150 0.500030 -0.505480
O8    O     O_R   0.570640 0.637850 0.499970 -0.516278
Br1   Br    Br    0.667048 0.960342 0.474479 -0.524650
Br2   Br    Br    0.333144 0.039411 0.528234 -0.569895
O9    O     O_3   0.236968 0.570341 0.912218 -0.625828
C41   C     C_3   0.224674 0.668846 0.885610 0.035928
H11   H     H_    0.181250 0.672918 0.823633 0.164562
H12   H     H_    0.294600 0.700844 0.869089 0.133337
C42   C     C_3   0.168493 0.728940 0.956629 -0.348820
H13   H     H_    0.099474 0.696128 0.972985 0.229492
H14   H     H_    0.212771 0.729512 0.017881 0.215434
C43   C     C_3   0.144802 0.832994 0.924735 -0.893541
H15   H     H_    0.212930 0.867763 0.909153 0.259861
H16   H     H_    0.104550 0.874720 0.977668 0.261100
H17   H     H_    0.098566 0.834785 0.864549 0.252851
O10   O     O_3   0.763173 0.437028 0.090496 -0.611980
C44   C     C_3   0.837409 0.498860 0.069213 0.031829
H18   H     H_    0.859360 0.532254 0.131812 0.164431
H19   H     H_    0.814730 0.559743 0.022584 0.128763
C45   C     C_3   0.926019 0.439233 0.031170 -0.330274
H20   H     H_    0.951873 0.382490 0.080239 0.237490
H21   H     H_    0.904994 0.403078 0.969799 0.207337
C46   C     C_3   0.009047 0.502383 0.009240 -0.883871
H22   H     H_    0.985587 0.557817 0.958242 0.252837
H23   H     H_    0.072351 0.456768 0.982661 0.280557
H24   H     H_    0.032197 0.538796 0.069823 0.251530
O11   O     O_3   0.734229 0.657660 0.430182 -0.588697
C47   C     C_3   0.717557 0.645590 0.338345 0.107421
H25   H     H_    0.637792 0.657604 0.327938 0.187878
H26   H     H_    0.742007 0.572362 0.312819 0.112067
C48   C     C_3   0.765954 0.721833 0.282701 -0.393253
H27   H     H_    0.756172 0.793053 0.315835 0.271745
H28   H     H_    0.845101 0.700441 0.276058 0.210218
C49   C     C_3   0.722182 0.732025 0.189867 -0.897206
H29   H     H_    0.726551 0.661000 0.156598 0.244910
H30   H     H_    0.762833 0.782995 0.149305 0.264326
H31   H     H_    0.644621 0.760691 0.193907 0.265307
O12   O     O_3   0.268314 0.348236 0.577521 -0.574731
C50   C     C_3   0.259005 0.355283 0.670905 0.053526
H32   H     H_    0.186072 0.336037 0.693531 0.119014
H33   H     H_    0.268748 0.429684 0.693837 0.144961
C51   C     C_3   0.336010 0.284865 0.714480 -0.290261
H34   H     H_    0.331293 0.211477 0.687033 0.252612
H35   H     H_    0.409723 0.308132 0.699183 0.209976
C52   C     C_3   0.321769 0.279793 0.814988 -0.899494
H36   H     H_    0.323624 0.352491 0.844224 0.273738
H37   H     H_    0.380962 0.231014 0.844789 0.260688
H38   H     H_    0.250755 0.250971 0.831478 0.256539
O13   O     O_3   0.919505 0.252943 0.588319 -0.605910
C53   C     C_3   0.895262 0.257462 0.679813 0.029388
H39   H     H_    0.827850 0.219564 0.689715 0.178136
H40   H     H_    0.878107 0.332687 0.704132 0.113795
C54   C     C_3   0.976623 0.205466 0.735534 -0.341995
H41   H     H_    0.993540 0.131063 0.710395 0.237079
H42   H     H_    0.043404 0.244929 0.729976 0.202785
C55   C     C_3   0.947210 0.199747 0.833201 -0.897377
H43   H     H_    0.930842 0.273509 0.859803 0.247604
H44   H     H_    0.007966 0.162756 0.871894 0.260123
H45   H     H_    0.881981 0.158178 0.841288 0.260784
O14   O     O_3   0.080721 0.747282 0.413019 -0.620355
C56   C     C_3   0.101666 0.805611 0.485759 0.031080
H46   H     H_    0.167593 0.843050 0.467850 0.200201
H47   H     H_    0.119817 0.763428 0.547994 0.122336
C57   C     C_3   0.017123 0.882068 0.502700 -0.329462
H48   H     H_    0.997994 0.921611 0.439746 0.250394
H49   H     H_    0.952294 0.846324 0.526566 0.224187
C58   C     C_3   0.043487 0.954359 0.572182 -0.839224
H50   H     H_    0.062164 0.916547 0.636026 0.242683
H51   H     H_    0.980360 0.007858 0.583434 0.273736
H52   H     H_    0.106316 0.993625 0.548975 0.289878

loop_
_geom_bond_atom_site_label_1
_geom_bond_atom_site_label_2
_ccdc_geom_bond_type
C2    C35   S    
C41   H12   S    
O11   C47   S    
Cu1   Cu2   S    
C24   C27   S    
C6    C9    A    
C58   H51   S    
C44   H18   S    
C23   O5    A    
C52   H37   S    
C11   C19   A    
C35   C37   A    
Cu1   O4    S    
C29   C32   S    
C26   H10   S    
C43   H17   S    
C30   C31   S    
C51   H35   S    
C41   C42   S    
C48   H28   S    
C20   C25   A    
O12   C50   S    
C8    O10   S    
C55   H43   S    
C51   C52   S    
C15   C17   A    
C42   H14   S    
C19   C26   A    
C53   H39   S    
Cu1   O1    S    
C56   C57   S    
Cu2   O2    S    
C46   H22   S    
C11   O11   S    
C5    C33   A    
C24   O8    A    
C12   O12   S    
C11   N1    A    
C54   C55   S    
C41   H11   S    
C29   Br2   S    
C3    C39   A    
C30   Br1   S    
C42   H13   S    
Cu1   O8    S    
C45   C46   S    
Cu2   O3    S    
C13   N1    A    
C44   H19   S    
C52   H38   S    
C56   H47   S    
C51   H34   S    
C33   H1    S    
C4    C40   A    
C34   H2    S    
O10   C44   S    
Cu1   O5    S    
C43   H16   S    
Cu2   O6    S    
C48   H27   S    
C45   H20   S    
C49   H31   S    
C6    C34   A    
C42   C43   S    
C22   O14   S    
C25   H9    S    
C29   C30   D    
C1    O3    A    
C7    O9    S    
C50   H32   S    
C53   C54   S    
C47   C48   S    
C23   O7    A    
C24   O6    A    
C12   C20   A    
C17   C18   A    
C16   C18   A    
C23   C28   S    
C49   H30   S    
Cu2   O7    S    
Cu1   N1    S    
C56   H46   S    
C57   C58   S    
C13   H7    S    
C45   H21   S    
C14   N2    A    
C47   H26   S    
C9    H5    S    
C13   C15   A    
C10   H6    S    
C14   C16   A    
C4    C6    A    
C37   H3    S    
C3    C4    A    
O14   C56   S    
C57   H49   S    
C54   H41   S    
C44   C45   S    
C7    C9    A    
C21   C25   A    
C16   C22   A    
C46   H23   S    
C27   C32   T    
C28   C31   T    
C43   H15   S    
C3    C5    A    
C18   C20   A    
C21   O13   S    
C2    O4    A    
C52   H36   S    
C55   H45   S    
C46   H24   S    
C36   C38   A    
C1    O1    A    
C58   H52   S    
C5    C10   A    
C37   C39   A    
C2    O2    A    
O13   C53   S    
Cu2   N2    S    
C48   C49   S    
C38   C40   A    
C14   H8    S    
C33   C35   A    
C55   H44   S    
C34   C36   A    
C49   H29   S    
C53   H40   S    
C38   H4    S    
C17   C19   A    
C15   C21   A    
C50   C51   S    
C47   H25   S    
C8    C10   A    
O9    C41   S    
C22   C26   A    
C7    C39   A    
C8    C40   A    
C50   H33   S    
C12   N2    A    
C58   H50   S    
C1    C36   S    
C57   H48   S    
C54   H42   S    
