data_mof_unit_67134.cif
_audit_creation_date              2012-12-11T17:44:51-0500
_audit_creation_method            fapswitch 2.2
_symmetry_space_group_name_H-M    P1
_symmetry_Int_Tables_number       1
_space_group_crystal_system       triclinic
_cell_length_a                    8.375888
_cell_length_b                    12.999702
_cell_length_c                    15.062719
_cell_angle_alpha                 95.229899
_cell_angle_beta                  97.303632
_cell_angle_gamma                 98.727239
_cell_volume                      1597.71279836

loop_
_atom_site_label
_atom_site_type_symbol
_atom_type_description
_atom_site_fract_x
_atom_site_fract_y
_atom_site_fract_z
_atom_type_partial_charge
Ba1   Ba    Ba6+2 0.843760 0.550230 0.455610 1.763908
Ba2   Ba    Ba6+2 0.346080 0.449860 0.544400 1.713327
C1    C     C_3   0.553079 0.886111 0.110092 -0.182937
C2    C     C_R   0.115681 0.459466 0.206874 0.063619
C3    C     C_R   0.926029 0.478788 0.769157 -0.261668
C4    C     C_3   0.988926 0.826181 0.210272 0.244505
C5    C     C_R   0.827440 0.435962 0.828518 -0.050008
C6    C     C_R   0.888567 0.438178 0.920424 -0.088751
C7    C     C_R   0.053207 0.488057 0.954889 -0.013177
C8    C     C_R   0.150020 0.534763 0.891507 -0.038546
C9    C     C_R   0.127453 0.493034 0.048682 0.045913
C10   C     C_R   0.297142 0.534559 0.074293 -0.014221
C11   C     C_R   0.386296 0.574745 0.009195 -0.036077
C12   C     C_3   0.518511 0.793785 0.166278 0.195476
C13   C     C_R   0.312863 0.578886 0.921878 0.021314
C14   C     C_R   0.039570 0.463212 0.119850 -0.016017
C15   C     C_R   0.281120 0.496088 0.228988 -0.217532
C16   C     C_3   0.992630 0.901375 0.137706 -0.353870
C17   C     C_R   0.083562 0.532918 0.798361 -0.007066
C18   C     C_R   0.760783 0.179552 0.535178 -0.256976
C19   C     C_R   0.414664 0.817445 0.477958 -0.324715
C20   C     C_R   0.371020 0.989454 0.445073 0.013324
C21   C     C_R   0.309085 0.884052 0.448504 -0.048922
C22   C     C_R   0.573765 0.853320 0.521875 0.020006
C23   C     C_3   0.423258 0.290561 0.269650 0.293403
C24   C     C_R   0.635093 0.963947 0.529298 -0.041233
C25   C     C_R   0.535470 0.032558 0.486489 -0.061419
C26   C     C_R   0.605253 0.140787 0.488715 0.022014
C27   C     C_R   0.859067 0.114266 0.573599 -0.000954
C28   C     C_3   0.143225 0.792850 0.718602 0.179248
C29   C     C_R   0.796238 0.006934 0.572005 -0.069190
C30   C     C_3   0.121493 0.831919 0.813848 -0.316461
C31   C     C_3   0.903688 0.225916 0.348491 0.316906
C32   C     C_3   0.827614 0.111539 0.320889 -0.318159
C33   C     C_3   0.728653 0.678927 0.728438 0.332150
C34   C     C_3   0.361896 0.255757 0.169196 -0.162852
C35   C     C_3   0.708403 0.697602 0.827001 -0.343516
C36   C     C_2   0.530887 0.843579 0.260308 0.768740
C37   C     C_2   0.468911 0.190064 0.125193 0.923724
C38   C     C_2   0.542819 0.857765 0.011141 0.895538
C39   C     C_2   0.549051 0.076374 0.731683 0.836647
C40   C     C_2   0.778355 0.379926 0.974661 0.871721
C41   C     C_2   0.260998 0.042550 0.386050 0.971440
C42   C     C_2   0.009926 0.721374 0.167076 0.891229
C43   C     C_2   0.350682 0.706835 0.463912 0.904012
C44   C     C_3   0.178380 0.235850 0.791345 0.342366
C45   C     C_3   0.232507 0.210734 0.886346 -0.302439
C46   C     C_3   0.660443 0.176227 0.771670 0.341651
C47   C     C_3   0.792375 0.151316 0.841987 -0.343381
C48   C     C_R   0.371250 0.539397 0.166117 0.001094
H1    H     H_    0.234568 0.884038 0.847315 0.179392
H2    H     H_    0.629559 0.616118 0.696669 0.105413
H3    H     H_    0.673690 0.934244 0.136404 0.041244
H4    H     H_    0.808922 0.757317 0.864011 0.129892
H5    H     H_    0.707736 0.624079 0.858969 0.091494
H6    H     H_    0.590741 0.725119 0.831566 0.148152
H7    H     H_    0.393703 0.751695 0.141262 0.026970
H8    H     H_    0.460695 0.937741 0.118433 0.122711
H9    H     H_    0.318338 0.311964 0.301358 -0.022312
H10   H     H_    0.520702 0.360057 0.275961 0.054934
H11   H     H_    0.235357 0.211790 0.161206 0.062708
H12   H     H_    0.019706 0.877706 0.811479 0.109711
H13   H     H_    0.356888 0.325558 0.132664 -0.068681
H14   H     H_    0.900406 0.869832 0.078375 0.152799
H15   H     H_    0.085295 0.288077 0.793297 -0.056217
H16   H     H_    0.284953 0.284369 0.930509 0.090429
H17   H     H_    0.128261 0.170029 0.915087 0.119016
H18   H     H_    0.326143 0.158881 0.885300 0.176346
H19   H     H_    0.720681 0.209036 0.716384 -0.108199
H20   H     H_    0.881240 0.222932 0.865703 0.095178
H21   H     H_    0.858679 0.091938 0.812414 0.123836
H22   H     H_    0.874106 0.822446 0.237687 0.116194
H23   H     H_    0.094903 0.764904 0.853338 0.106571
H24   H     H_    0.738141 0.120929 0.899993 0.192867
H25   H     H_    0.339296 0.494241 0.296803 0.090435
H26   H     H_    0.910433 0.452124 0.114756 0.138214
H27   H     H_    0.388307 0.616197 0.877853 0.120965
H28   H     H_    0.874562 0.957901 0.603644 0.095108
H29   H     H_    0.810205 0.261891 0.537649 0.032256
H30   H     H_    0.967421 0.978589 0.163769 0.107673
H31   H     H_    0.114708 0.913067 0.114972 0.158623
H32   H     H_    0.029088 0.752072 0.679137 0.068289
H33   H     H_    0.680255 0.897690 0.373297 0.305242
H34   H     H_    0.811557 0.268764 0.373833 0.008709
H35   H     H_    0.696659 0.165900 0.111277 0.334879
H36   H     H_    0.638423 0.891797 0.899128 0.341420
H37   H     H_    0.285184 0.277652 0.766404 0.142816
H38   H     H_    0.494303 0.918735 0.723332 0.315492
H39   H     H_    0.514976 0.605374 0.025066 0.148067
H40   H     H_    0.876113 0.472579 0.698620 0.055307
H41   H     H_    0.572330 0.371929 0.031742 0.311710
H42   H     H_    0.194585 0.083974 0.262954 0.293059
H43   H     H_    0.222950 0.714334 0.247706 0.281902
H44   H     H_    0.207054 0.723136 0.556250 0.242645
H45   H     H_    0.008618 0.231187 0.402638 0.070487
H46   H     H_    0.180578 0.862326 0.683628 0.059813
H47   H     H_    0.708243 0.104798 0.277830 0.155236
H48   H     H_    0.811028 0.070591 0.380879 0.082596
H49   H     H_    0.908542 0.071428 0.282560 0.134662
H50   H     H_    0.843894 0.650230 0.723593 -0.099267
O1    O     O_2   0.827930 0.435360 0.277760 -0.451656
O2    O     O_2   0.192724 0.120316 0.575181 -0.388523
O3    O     O_3   0.116124 0.142776 0.734846 -0.609395
O4    O     O_3   0.100310 0.439010 0.391180 -0.468853
O5    O     O_3   0.587770 0.631830 0.546230 -0.474029
O6    O     O_2   0.332600 0.233710 0.456170 -0.468928
O7    O     O_3   0.486035 0.209782 0.310671 -0.620433
O8    O     O_2   0.491627 0.433135 0.823102 -0.485481
O9    O     O_3   0.567876 0.244888 0.812609 -0.616567
O10   O     O_3   0.625610 0.634200 0.333270 -0.397954
O11   O     O_2   0.698110 0.543471 0.180017 -0.441736
O12   O     O_3   0.729377 0.773487 0.689587 -0.630714
O13   O     O_3   0.957291 0.266991 0.273104 -0.624036
O14   O     O_3   0.633881 0.726067 0.161203 -0.620856
O15   O     O_2   0.857120 0.766320 0.543890 -0.494254
O16   O     O_3   0.056570 0.691100 0.379020 -0.457593
O17   O     O_2   0.963105 0.876284 0.420855 -0.459824
O18   O     O_2   0.432220 0.898180 0.278307 -0.617323
O19   O     O_R   0.663975 0.838589 0.323587 -0.723618
O20   O     O_2   0.406778 0.112137 0.073720 -0.632127
O21   O     O_R   0.638401 0.218830 0.142077 -0.721616
O22   O     O_2   0.419023 0.805383 0.968530 -0.655935
O23   O     O_3   0.118796 0.866279 0.277595 -0.602640
O24   O     O_R   0.668213 0.902327 0.966813 -0.763987
O25   O     O_2   0.434875 0.080449 0.674486 -0.584818
O26   O     O_R   0.576564 0.979117 0.757439 -0.787904
O27   O     O_2   0.812538 0.300607 0.004740 -0.640019
O28   O     O_R   0.637843 0.417923 0.993932 -0.727484
O29   O     O_2   0.135018 0.062739 0.410560 -0.627219
O30   O     O_R   0.284025 0.052550 0.297053 -0.673008
O31   O     O_2   0.913153 0.677755 0.102249 -0.577086
O32   O     O_R   0.142626 0.674836 0.195916 -0.784981
O33   O     O_2   0.374493 0.652358 0.398917 -0.594092
O34   O     O_2   0.361790 0.564680 0.722290 -0.471122
O35   O     O_R   0.247366 0.665774 0.519729 -0.646662
O36   O     O_3   0.089410 0.561080 0.608830 -0.442549
O37   O     O_3   0.564100 0.365890 0.666740 -0.470624
O38   O     O_3   0.267364 0.731803 0.720233 -0.615590
O39   O     O_3   0.601940 0.368260 0.453780 -0.487205
O40   O     O_3   0.133140 0.308990 0.620990 -0.501450
P1    P     P_3+3 0.998770 0.403620 0.291990 1.031649
P2    P     P_3+3 0.687370 0.751000 0.571300 1.002139
P3    P     P_3+3 0.102410 0.826666 0.385365 1.013165
P4    P     P_3+3 0.190950 0.596470 0.708020 0.996976
P5    P     P_3+3 0.071655 0.173311 0.624326 0.992083
P6    P     P_3+3 0.577741 0.611641 0.212707 1.017305
P7    P     P_3+3 0.508236 0.236897 0.427881 0.958055
P8    P     P_3+3 0.615667 0.372630 0.782573 0.958545

loop_
_geom_bond_atom_site_label_1
_geom_bond_atom_site_label_2
_ccdc_geom_bond_type
C28   H32   S    
C17   P4    S    
C28   O38   S    
Ba2   P4    S    
O37   P8    S    
C46   H19   S    
C16   H31   S    
C5    C6    A    
C42   O31   D    
C4    H22   S    
O39   P7    S    
C24   C25   A    
Ba2   O34   S    
Ba2   O39   S    
O17   P3    D    
H43   O32   S    
C6    C40   S    
C5    P8    S    
C8    C13   A    
O2    P5    D    
C27   P5    S    
H33   O19   S    
C37   O20   D    
C32   H47   S    
Ba1   Ba2   S    
O12   P2    S    
H38   O26   S    
Ba1   P2    S    
C35   H6    S    
O1    P1    D    
C22   P2    S    
C6    C7    A    
C28   H46   S    
H35   O21   S    
Ba1   O16   S    
Ba1   O36   S    
C7    C8    A    
C45   H16   S    
C3    H40   S    
Ba1   O39   S    
C40   O28   S    
C48   P6    S    
C46   O9    S    
O15   P2    D    
C24   C29   A    
C4    C42   S    
C21   P3    S    
C4    O23   S    
C4    C16   S    
C31   H45   S    
C45   H17   S    
C31   C32   S    
C19   C43   S    
C18   C27   A    
C34   C37   S    
C38   O24   S    
C43   O35   S    
H41   O28   S    
C39   O25   D    
C41   O29   D    
Ba1   O15   S    
O14   P6    S    
C44   H15   S    
O11   P6    D    
C2    P1    S    
C3    C5    A    
C18   C26   A    
C12   O14   S    
Ba2   O6    S    
Ba2   O36   S    
O6    P7    D    
C35   H5    S    
C2    C14   A    
C15   C48   A    
H42   O30   S    
C30   H1    S    
Ba1   O10   S    
C12   C36   S    
O16   P3    S    
O7    P7    S    
C9    C14   A    
C20   C41   S    
Ba2   O4    S    
C8    C17   A    
O4    P1    S    
H44   O35   S    
C7    C9    A    
Ba1   O4    S    
C1    C12   S    
C40   O27   D    
C2    C15   A    
C16   H30   S    
C46   C47   S    
C23   H10   S    
C1    C38   S    
C47   H20   S    
C11   C13   A    
H36   O24   S    
O9    P8    S    
C36   O19   S    
C33   H50   S    
C34   H13   S    
Ba1   O1    S    
C45   H18   S    
O5    P2    S    
C38   O22   D    
O3    P5    S    
C29   H28   S    
C44   H37   S    
C33   C35   S    
C12   H7    S    
C44   C45   S    
C26   P7    S    
C18   H29   S    
C11   H39   S    
C14   H26   S    
Ba2   O37   S    
C43   O33   D    
C39   O26   S    
C41   O30   S    
C22   C24   A    
O40   P5    S    
C10   C48   A    
C9    C10   A    
C3    C17   A    
C42   O32   S    
C35   H4    S    
C32   H49   S    
C44   O3    S    
Ba2   O5    S    
C31   O13   S    
C37   O21   S    
C20   C25   A    
Ba2   O40   S    
C19   C21   A    
C30   H12   S    
C27   C29   A    
O38   P4    S    
C28   C30   S    
C1    H3    S    
C16   H14   S    
C13   H27   S    
C32   H48   S    
C39   C46   S    
O13   P1    S    
C20   C21   A    
C31   H34   S    
Ba1   P1    S    
C23   C34   S    
O34   P4    D    
C36   O18   D    
C1    H8    S    
C10   C11   A    
O36   P4    S    
C47   H21   S    
C19   C22   A    
O23   P3    S    
C33   H2    S    
C15   H25   S    
C47   H24   S    
C23   H9    S    
O8    P8    D    
O10   P6    S    
C30   H23   S    
C23   O7    S    
C33   O12   S    
C34   H11   S    
Ba1   O5    S    
C25   C26   A    
