data_mof_unit_50338.cif
_audit_creation_date              2013-03-05T15:44:03-0500
_audit_creation_method            fapswitch 2.2
_symmetry_space_group_name_H-M    P1
_symmetry_Int_Tables_number       1
_space_group_crystal_system       triclinic
_cell_length_a                    31.273111
_cell_length_b                    22.566887
_cell_length_c                    18.015394
_cell_angle_alpha                 90.061904
_cell_angle_beta                  123.967145
_cell_angle_gamma                 90.016017
_cell_volume                      10544.551019

loop_
_atom_site_label
_atom_site_type_symbol
_atom_site_description
_atom_site_fract_x
_atom_site_fract_y
_atom_site_fract_z
_atom_type_partial_charge
C1    C     C_R   0.538453 0.600928 0.723859 -0.063674
C2    C     C_R   0.459869 0.401758 0.271713 -0.075558
C3    C     C_R   0.455343 0.583572 0.257406 -0.041272
C4    C     C_R   0.543161 0.412594 0.739026 -0.032064
C5    C     C_R   0.044183 0.085089 0.741529 -0.025544
C6    C     C_R   0.955135 0.916770 0.257005 -0.064814
C7    C     C_R   0.965872 0.109626 0.291936 -0.053330
C8    C     C_R   0.039765 0.901741 0.727787 -0.070222
H1    H     H_    0.510457 0.610463 0.738892 0.138950
H2    H     H_    0.486339 0.394723 0.252518 0.140924
H3    H     H_    0.479536 0.578743 0.232477 0.137255
H4    H     H_    0.518703 0.414745 0.763774 0.123141
H5    H     H_    0.019499 0.081414 0.765630 0.136491
H6    H     H_    0.979301 0.921733 0.232042 0.131778
H7    H     H_    0.992409 0.120541 0.273959 0.132253
H8    H     H_    0.012638 0.893834 0.745371 0.138531
N1    N     N_R   0.532970 0.559900 0.665210 -0.059552
N2    N     N_R   0.467030 0.440100 0.334790 -0.058269
N3    N     N_R   0.467030 0.559900 0.334790 -0.063776
N4    N     N_R   0.532970 0.440100 0.665210 -0.062304
N5    N     N_R   0.032970 0.059900 0.665210 -0.062950
N6    N     N_R   0.967030 0.940100 0.334790 -0.063801
N7    N     N_R   0.967030 0.059900 0.334790 -0.064901
N8    N     N_R   0.032970 0.940100 0.665210 -0.059459
C9    C     C_R   0.630922 0.605130 0.571110 0.309403
C10   C     C_R   0.371258 0.392796 0.428340 0.308165
C11   C     C_R   0.367112 0.602775 0.428103 0.343578
C12   C     C_R   0.628362 0.392454 0.571805 0.342392
C13   C     C_R   0.134667 0.100592 0.570962 0.322950
C14   C     C_R   0.870306 0.893606 0.428217 0.343621
C15   C     C_R   0.856750 0.082578 0.429643 0.291719
C16   C     C_R   0.128368 0.892225 0.570734 0.314408
N9    N     N_R   0.597900 0.559930 0.545530 -0.079593
N10   N     N_R   0.402100 0.440070 0.454470 -0.079930
N11   N     N_R   0.402100 0.559930 0.454470 -0.085300
N12   N     N_R   0.597900 0.440070 0.545530 -0.081731
N13   N     N_R   0.097900 0.059930 0.545530 -0.086547
N14   N     N_R   0.902100 0.940070 0.454470 -0.088055
N15   N     N_R   0.902100 0.059930 0.454470 -0.089445
N16   N     N_R   0.097900 0.940070 0.545530 -0.078837
C17   C     C_R   0.576227 0.607365 0.422189 -0.175784
C18   C     C_R   0.424892 0.391350 0.577227 -0.159252
C19   C     C_R   0.416992 0.601305 0.577368 -0.208484
C20   C     C_R   0.577246 0.392950 0.422957 -0.210455
C21   C     C_R   0.084789 0.098026 0.421898 -0.123056
C22   C     C_R   0.920202 0.895239 0.577235 -0.211831
C23   C     C_R   0.908678 0.085939 0.578380 -0.163104
C24   C     C_R   0.073366 0.890536 0.422189 -0.182897
H9    H     H_    0.559231 0.616349 0.352126 0.168342
H10   H     H_    0.440948 0.382204 0.646850 0.169722
H11   H     H_    0.428566 0.605310 0.645875 0.145614
H12   H     H_    0.564594 0.385646 0.354556 0.143866
H13   H     H_    0.073462 0.100205 0.353300 0.132258
H14   H     H_    0.932145 0.889842 0.645681 0.143095
H15   H     H_    0.923141 0.089768 0.648527 0.153581
H16   H     H_    0.055519 0.880718 0.352107 0.171277
N17   N     N_R   0.567170 0.559950 0.454460 -0.067889
N18   N     N_R   0.432830 0.440050 0.545540 -0.071343
N19   N     N_R   0.432830 0.559950 0.545540 -0.064751
N20   N     N_R   0.567170 0.440050 0.454460 -0.062434
N21   N     N_R   0.067170 0.059950 0.454460 -0.073128
N22   N     N_R   0.932830 0.940050 0.545540 -0.065380
N23   N     N_R   0.932830 0.059950 0.545540 -0.065438
N24   N     N_R   0.067170 0.940050 0.454460 -0.070125
C25   C     C_R   0.384460 0.585663 0.258680 -0.106758
C26   C     C_R   0.614683 0.411253 0.739533 -0.108145
C27   C     C_R   0.611314 0.598520 0.727970 -0.139311
C28   C     C_R   0.387705 0.403568 0.269210 -0.138244
C29   C     C_R   0.897573 0.111522 0.301430 -0.077352
C30   C     C_R   0.112344 0.904092 0.731248 -0.141112
C31   C     C_R   0.115200 0.087094 0.740350 -0.106408
C32   C     C_R   0.884135 0.915266 0.257817 -0.080977
H17   H     H_    0.344706 0.585324 0.236105 0.171248
H18   H     H_    0.654938 0.410535 0.764921 0.172047
H19   H     H_    0.651032 0.603865 0.751285 0.172947
H20   H     H_    0.347703 0.399566 0.244571 0.177070
H21   H     H_    0.865501 0.127061 0.302517 0.123104
H22   H     H_    0.152370 0.900186 0.755811 0.176305
H23   H     H_    0.154799 0.088114 0.762291 0.167840
H24   H     H_    0.844225 0.917144 0.234602 0.170857
N25   N     N_R   0.421470 0.559970 0.334770 -0.059970
N26   N     N_R   0.578530 0.440030 0.665230 -0.060103
N27   N     N_R   0.578530 0.559970 0.665230 -0.053462
N28   N     N_R   0.421470 0.440030 0.334770 -0.054473
N29   N     N_R   0.921470 0.059970 0.334770 -0.040722
N30   N     N_R   0.078530 0.940030 0.665230 -0.054434
N31   N     N_R   0.078530 0.059970 0.665230 -0.055392
N32   N     N_R   0.921470 0.940030 0.334770 -0.061035
C33   C     C_R   0.586524 0.627372 0.762416 0.089163
C34   C     C_R   0.411553 0.375843 0.232449 0.093229
C35   C     C_R   0.404184 0.601619 0.208415 0.082160
C36   C     C_R   0.593200 0.391628 0.785323 0.085232
C37   C     C_R   0.095424 0.103530 0.790462 0.077687
C38   C     C_R   0.903884 0.898978 0.207658 0.079380
C39   C     C_R   0.923769 0.143845 0.273238 0.072002
C40   C     C_R   0.088359 0.876615 0.768023 0.093826
C41   C     C_R   0.616031 0.637190 0.494277 -0.095342
C42   C     C_R   0.386828 0.360198 0.504735 -0.092953
C43   C     C_R   0.376864 0.630308 0.504793 -0.086947
C44   C     C_R   0.613999 0.361106 0.495311 -0.094505
C45   C     C_R   0.125459 0.126175 0.493766 -0.058004
C46   C     C_R   0.881803 0.864367 0.504735 -0.082347
C47   C     C_R   0.860762 0.100073 0.506243 -0.090894
C48   C     C_R   0.111748 0.859125 0.493705 -0.090433
Ni1   Ni    Ni4+2 0.483030 0.500000 0.604430 0.218731
Ni2   Ni    Ni4+2 0.516970 0.500000 0.395570 0.218848
Ni3   Ni    Ni4+2 0.983030 0.000000 0.604430 0.218936
Ni4   Ni    Ni4+2 0.016970 0.000000 0.395570 0.207917
Ni5   Ni    Ni4+2 0.587400 0.500000 0.604430 0.303435
Ni6   Ni    Ni4+2 0.412600 0.500000 0.395570 0.298885
Ni7   Ni    Ni4+2 0.087400 0.000000 0.604430 0.303697
Ni8   Ni    Ni4+2 0.912600 0.000000 0.395570 0.306977
C49   C     C_R   0.645372 0.261049 0.510477 -0.180683
C50   C     C_R   0.325852 0.719295 0.464431 -0.162589
C51   C     C_R   0.345602 0.265039 0.480118 -0.154309
C52   C     C_R   0.660556 0.731085 0.523289 -0.162799
C53   C     C_R   0.155374 0.763915 0.523363 -0.156838
C54   C     C_R   0.820698 0.194017 0.476559 -0.203796
C55   C     C_R   0.832722 0.773618 0.467924 -0.165210
C56   C     C_R   0.165129 0.220555 0.511210 -0.097603
C57   C     C_R   0.644999 0.319683 0.487633 0.176731
C58   C     C_R   0.340796 0.665662 0.509148 0.149059
C59   C     C_R   0.353374 0.322514 0.512114 0.180090
C60   C     C_R   0.648666 0.675292 0.484592 0.181005
C61   C     C_R   0.142859 0.819027 0.482464 0.178853
C62   C     C_R   0.825393 0.136976 0.508381 0.178553
C63   C     C_R   0.846140 0.828484 0.509381 0.147862
C64   C     C_R   0.160160 0.161595 0.486993 0.166103
C65   C     C_R   0.673685 0.340171 0.456054 -0.201721
C66   C     C_R   0.317535 0.642085 0.549325 -0.207186
C67   C     C_R   0.322978 0.348792 0.536596 -0.187681
C68   C     C_R   0.671259 0.652347 0.442966 -0.194408
C69   C     C_R   0.163734 0.839806 0.436781 -0.197550
C70   C     C_R   0.792647 0.113573 0.529530 -0.166309
C71   C     C_R   0.821528 0.853137 0.546515 -0.206258
C72   C     C_R   0.187698 0.135941 0.456178 -0.221662
C73   C     C_R   0.706951 0.302355 0.453063 0.108632
C74   C     C_R   0.276789 0.671605 0.542080 0.112539
C75   C     C_R   0.282263 0.317903 0.526412 0.115134
C76   C     C_R   0.709528 0.683723 0.445026 0.109754
C77   C     C_R   0.201347 0.807720 0.437965 0.110986
C78   C     C_R   0.753380 0.148637 0.518681 0.110327
C79   C     C_R   0.781289 0.823305 0.540236 0.113769
C80   C     C_R   0.224522 0.169006 0.455691 0.119299
C81   C     C_R   0.710693 0.243242 0.481365 0.021226
C82   C     C_R   0.259392 0.724952 0.493340 0.019831
C83   C     C_R   0.273083 0.259409 0.493349 0.026809
C84   C     C_R   0.724728 0.739002 0.488855 0.021952
C85   C     C_R   0.218004 0.753936 0.485514 0.020554
C86   C     C_R   0.748208 0.207297 0.487237 0.023919
C87   C     C_R   0.765794 0.768215 0.495881 0.020825
C88   C     C_R   0.232782 0.228207 0.485799 0.022840
C89   C     C_R   0.678064 0.221126 0.506807 0.059656
C90   C     C_R   0.283767 0.749282 0.453013 0.063984
C91   C     C_R   0.304582 0.232308 0.468721 0.064337
C92   C     C_R   0.699532 0.764041 0.527399 0.064796
C93   C     C_R   0.194195 0.730483 0.527394 0.064372
C94   C     C_R   0.781664 0.230320 0.464185 0.071787
C95   C     C_R   0.791572 0.742592 0.458792 0.060798
C96   C     C_R   0.201394 0.255455 0.510482 0.041979
C97   C     C_R   0.737499 0.324024 0.425091 -0.210973
C98   C     C_R   0.252854 0.647359 0.581285 -0.220752
C99   C     C_R   0.249819 0.346013 0.545771 -0.194777
C100  C     C_R   0.733780 0.658875 0.406781 -0.202762
C101  C     C_R   0.223757 0.830723 0.395468 -0.206843
C102  C     C_R   0.719074 0.125370 0.537574 -0.212142
C103  C     C_R   0.756102 0.848910 0.576325 -0.220154
C104  C     C_R   0.253626 0.142963 0.427452 -0.217036
C105  C     C_R   0.264967 0.801800 0.401139 0.135311
C106  C     C_R   0.679976 0.160682 0.529927 0.136490
C107  C     C_R   0.715117 0.819779 0.571485 0.133388
C108  C     C_R   0.293495 0.174397 0.431578 0.129921
C109  C     C_R   0.775354 0.288463 0.429563 0.131573
C110  C     C_R   0.211309 0.676160 0.575141 0.136176
C111  C     C_R   0.207862 0.315943 0.535743 0.132394
C112  C     C_R   0.775091 0.687700 0.412463 0.135162
H25   H     H_    0.621232 0.248109 0.533336 0.127811
H26   H     H_    0.346371 0.735485 0.436115 0.134668
H27   H     H_    0.370667 0.247878 0.461471 0.116687
H28   H     H_    0.640660 0.746449 0.553167 0.115793
H29   H     H_    0.136568 0.749850 0.555742 0.118723
H30   H     H_    0.847479 0.208605 0.460171 0.114972
H31   H     H_    0.853792 0.757084 0.440816 0.137003
H32   H     H_    0.141601 0.237606 0.533234 0.138081
H33   H     H_    0.671351 0.386369 0.437199 0.132428
H34   H     H_    0.330007 0.599599 0.583161 0.130932
H35   H     H_    0.329545 0.394645 0.558859 0.126771
H36   H     H_    0.660805 0.608418 0.413205 0.129524
H37   H     H_    0.152802 0.883007 0.404856 0.127928
H38   H     H_    0.797019 0.067937 0.551680 0.119726
H39   H     H_    0.832602 0.896744 0.577269 0.129259
H40   H     H_    0.181560 0.089721 0.435859 0.127824
H41   H     H_    0.732021 0.369327 0.401976 0.126630
H42   H     H_    0.267375 0.605882 0.616817 0.126664
H43   H     H_    0.257781 0.391520 0.568577 0.124380
H44   H     H_    0.720232 0.616447 0.373606 0.127385
H45   H     H_    0.208972 0.871914 0.359162 0.127600
H46   H     H_    0.723662 0.079723 0.559027 0.121537
H47   H     H_    0.769187 0.891725 0.608387 0.124354
H48   H     H_    0.245048 0.097773 0.403319 0.126177
C113  C     C_R   0.373317 0.623470 0.114374 -0.041158
C114  C     C_R   0.620482 0.361656 0.873273 -0.042892
C115  C     C_R   0.605964 0.681277 0.819258 -0.036312
C116  C     C_R   0.391610 0.322462 0.174306 -0.036175
C117  C     C_R   0.906802 0.203266 0.231274 -0.035458
C118  C     C_R   0.108724 0.824260 0.827678 -0.035940
C119  C     C_R   0.126671 0.125219 0.884943 -0.039021
C120  C     C_R   0.873291 0.876943 0.113547 -0.047705
C121  C     C_R   0.363091 0.671195 0.984326 -0.275945
C122  C     C_R   0.622036 0.296990 0.982411 -0.273974
C123  C     C_R   0.605056 0.755475 0.916100 -0.283152
C124  C     C_R   0.392804 0.249039 0.076778 -0.282922
C125  C     C_R   0.917239 0.300100 0.183559 -0.291680
C126  C     C_R   0.109006 0.752677 0.928420 -0.287504
C127  C     C_R   0.137497 0.171070 0.016914 -0.278838
C128  C     C_R   0.863993 0.828826 0.984272 -0.280110
C129  C     C_R   0.395431 0.649630 0.071733 0.369043
C130  C     C_R   0.594158 0.325295 0.899487 0.363741
C131  C     C_R   0.588221 0.700675 0.872262 0.347805
C132  C     C_R   0.409058 0.303922 0.120512 0.348506
C133  C     C_R   0.939262 0.246798 0.230659 0.374941
C134  C     C_R   0.092050 0.806868 0.882995 0.347405
C135  C     C_R   0.104903 0.150917 0.928501 0.369258
C136  C     C_R   0.895860 0.850494 0.071792 0.364542
C137  C     C_R   0.319371 0.620127 0.067189 -0.246550
C138  C     C_R   0.674211 0.368307 0.931022 -0.247913
C139  C     C_R   0.641972 0.715983 0.815622 -0.273921
C140  C     C_R   0.356292 0.286762 0.178781 -0.274043
C141  C     C_R   0.854661 0.216573 0.191299 -0.290653
C142  C     C_R   0.143930 0.788453 0.823395 -0.276023
C143  C     C_R   0.180648 0.121228 0.932208 -0.249723
C144  C     C_R   0.819307 0.880321 0.065451 -0.248161
C145  C     C_R   0.287206 0.650655 0.986681 0.097740
C146  C     C_R   0.702964 0.335481 0.010510 0.092946
C147  C     C_R   0.663917 0.767006 0.868225 0.102624
C148  C     C_R   0.335670 0.234802 0.127783 0.097588
C149  C     C_R   0.834242 0.272010 0.155056 0.086676
C150  C     C_R   0.165634 0.737692 0.876479 0.101869
C151  C     C_R   0.213270 0.149668 0.014727 0.095773
C152  C     C_R   0.787366 0.850808 0.983608 0.096919
C153  C     C_R   0.309801 0.675082 0.944119 0.100259
C154  C     C_R   0.675859 0.299175 0.035296 0.101772
C155  C     C_R   0.643552 0.787652 0.916569 0.103274
C156  C     C_R   0.355414 0.215519 0.077838 0.103999
C157  C     C_R   0.864690 0.312357 0.144358 0.112414
C158  C     C_R   0.146346 0.719020 0.927356 0.103807
C159  C     C_R   0.190955 0.173657 0.058023 0.099559
C160  C     C_R   0.810549 0.825591 0.942504 0.101408
C161  C     C_R   0.235174 0.664734 0.954676 0.061121
C162  C     C_R   0.757774 0.332567 0.060777 0.077502
C163  C     C_R   0.708700 0.794421 0.881173 0.059383
C164  C     C_R   0.292270 0.205316 0.117309 0.056800
C165  C     C_R   0.782589 0.285741 0.122701 0.062601
C166  C     C_R   0.209183 0.708558 0.887105 0.056855
C167  C     C_R   0.265799 0.162280 0.048486 0.068529
C168  C     C_R   0.734659 0.838432 0.948697 0.061013
C169  C     C_R   0.788613 0.372526 0.049376 -0.186514
C170  C     C_R   0.210313 0.641683 0.994237 -0.178506
C171  C     C_R   0.271491 0.221005 0.166980 -0.202321
C172  C     C_R   0.731140 0.775815 0.835246 -0.210263
C173  C     C_R   0.230491 0.725303 0.838630 -0.209778
C174  C     C_R   0.755246 0.253877 0.150878 -0.210911
C175  C     C_R   0.708779 0.863712 0.985033 -0.178660
C176  C     C_R   0.290868 0.138651 0.009671 -0.184585
C177  C     C_R   0.841771 0.363606 0.093612 -0.155399
C178  C     C_R   0.166576 0.668628 0.980663 -0.147455
C179  C     C_R   0.221697 0.204482 0.138304 -0.145893
C180  C     C_R   0.780887 0.792540 0.864319 -0.150990
C181  C     C_R   0.279757 0.707829 0.865956 -0.150826
C182  C     C_R   0.702743 0.261897 0.109237 -0.147998
C183  C     C_R   0.663890 0.838465 0.969129 -0.145741
C184  C     C_R   0.335266 0.164854 0.024769 -0.145288
H49   H     H_    0.864483 0.395473 0.084735 0.150438
H50   H     H_    0.150482 0.652086 0.016570 0.156823
H51   H     H_    0.205836 0.220441 0.174899 0.158364
H52   H     H_    0.797647 0.774956 0.830012 0.158537
H53   H     H_    0.295867 0.724438 0.830100 0.159394
H54   H     H_    0.682612 0.235430 0.130722 0.155029
H55   H     H_    0.646940 0.856615 0.002790 0.155457
H56   H     H_    0.351675 0.147874 0.989574 0.156902
H57   H     H_    0.693515 0.396264 0.910203 0.145784
H58   H     H_    0.302860 0.597017 0.097059 0.143182
H59   H     H_    0.343973 0.301339 0.220700 0.158119
H60   H     H_    0.653466 0.701419 0.772603 0.148319
H61   H     H_    0.154785 0.801841 0.779024 0.154020
H62   H     H_    0.828692 0.181996 0.183752 0.159276
H63   H     H_    0.802537 0.902324 0.095790 0.145514
H64   H     H_    0.197027 0.099191 0.901257 0.143802
H65   H     H_    0.380172 0.691422 0.952148 0.181961
H66   H     H_    0.601831 0.268375 0.001455 0.181309
H67   H     H_    0.591150 0.770625 0.956121 0.183925
H68   H     H_    0.406284 0.234787 0.035736 0.184742
H69   H     H_    0.941379 0.332597 0.179503 0.178437
H70   H     H_    0.095965 0.739018 0.970323 0.184154
H71   H     H_    0.120646 0.190957 0.049720 0.180213
H72   H     H_    0.881483 0.808109 0.953089 0.182248
H73   H     H_    0.772773 0.411857 0.008781 0.147691
H74   H     H_    0.224620 0.604003 0.038436 0.156683
H75   H     H_    0.292270 0.247532 0.226772 0.173499
H76   H     H_    0.711907 0.746919 0.777994 0.170137
H77   H     H_    0.210768 0.753440 0.780787 0.177214
H78   H     H_    0.774126 0.222620 0.205631 0.148071
H79   H     H_    0.723122 0.902007 0.028242 0.154547
H80   H     H_    0.276241 0.101005 0.965173 0.155744
N33   N     N_R   0.540279 0.311877 0.840070 0.220265
O1    O     O_R   0.511236 0.309837 0.870740 -0.366340
O2    O     O_R   0.522644 0.290505 0.760816 -0.411268
N34   N     N_R   0.449771 0.659860 0.117776 0.220166
O3    O     O_R   0.473324 0.692003 0.190162 -0.408055
O4    O     O_R   0.472979 0.648589 0.077822 -0.351590
N35   N     N_R   0.439711 0.341642 0.103732 0.224025
O5    O     O_R   0.426077 0.396520 0.080295 -0.387298
O6    O     O_R   0.475284 0.318948 0.095972 -0.376989
N36   N     N_R   0.556540 0.664012 0.887936 0.224301
O7    O     O_R   0.520712 0.687795 0.894038 -0.370322
O8    O     O_R   0.569536 0.609149 0.912440 -0.387255
N37   N     N_R   0.061233 0.844941 0.898981 0.223746
O9    O     O_R   0.073770 0.900479 0.918718 -0.394815
O10   O     O_R   0.026686 0.822393 0.909595 -0.369256
N38   N     N_R   0.994091 0.239128 0.279711 0.219922
O11   O     O_R   0.019641 0.223375 0.363398 -0.435547
O12   O     O_R   0.019409 0.258805 0.247005 -0.392032
N39   N     N_R   0.950178 0.839756 0.119014 0.219517
O13   O     O_R   0.974142 0.850653 0.080298 -0.361750
O14   O     O_R   0.972929 0.807544 0.191183 -0.404567
N40   N     N_R   0.050692 0.161920 0.882624 0.221297
O15   O     O_R   0.027439 0.194015 0.810333 -0.395954
O16   O     O_R   0.027343 0.151127 0.922449 -0.376863
N41   N     N_R   0.681423 0.605506 0.652447 0.217564
O17   O     O_R   0.709213 0.653483 0.680013 -0.443222
O18   O     O_R   0.700834 0.556837 0.697727 -0.350972
N42   N     N_R   0.320917 0.390163 0.346801 0.216111
O19   O     O_R   0.296133 0.340198 0.318092 -0.450381
O20   O     O_R   0.298274 0.438454 0.303227 -0.347969
N43   N     N_R   0.319388 0.605142 0.342107 0.215857
O21   O     O_R   0.298982 0.655757 0.304467 -0.439478
O22   O     O_R   0.295406 0.556514 0.301590 -0.356537
N44   N     N_R   0.677016 0.387294 0.655817 0.215991
O23   O     O_R   0.698028 0.335555 0.685758 -0.402961
O24   O     O_R   0.703196 0.434640 0.697725 -0.354278
N45   N     N_R   0.182423 0.103256 0.656880 0.215799
O25   O     O_R   0.208205 0.152637 0.685478 -0.412507
O26   O     O_R   0.203326 0.055006 0.702215 -0.361979
N46   N     N_R   0.822881 0.887953 0.342443 0.215123
O27   O     O_R   0.807941 0.836402 0.303782 -0.433712
O28   O     O_R   0.791440 0.932587 0.308075 -0.342637
N47   N     N_R   0.809686 0.074332 0.343072 0.233533
O29   O     O_R   0.766240 0.095036 0.325970 -0.389673
O30   O     O_R   0.809627 0.044131 0.281512 -0.385843
N48   N     N_R   0.178847 0.889156 0.651862 0.216083
O31   O     O_R   0.203702 0.839257 0.679086 -0.454083
O32   O     O_R   0.201799 0.937246 0.696062 -0.347132
C185  C     C_3   0.288839 0.825503 0.352552 -0.414053
C186  C     C_3   0.262399 0.879763 0.292058 -0.271370
C187  C     C_3   0.287557 0.896418 0.242772 -0.856466
H81   H     H_    0.328662 0.908438 0.291352 0.257634
H82   H     H_    0.285122 0.858880 0.200611 0.272053
H83   H     H_    0.267166 0.935020 0.198650 0.250821
H84   H     H_    0.221062 0.869735 0.241385 0.223974
H85   H     H_    0.265406 0.918370 0.333135 0.197024
H86   H     H_    0.329790 0.837124 0.403396 0.186642
H87   H     H_    0.287829 0.789281 0.309679 0.228836
C188  C     C_3   0.640458 0.135319 0.545825 -0.415333
C189  C     C_3   0.638222 0.067343 0.548749 -0.268183
C190  C     C_3   0.592254 0.047224 0.550748 -0.870610
H88   H     H_    0.596643 0.062642 0.613243 0.266668
H89   H     H_    0.555727 0.064935 0.492059 0.260782
H90   H     H_    0.589866 0.998163 0.547935 0.248284
H91   H     H_    0.634298 0.048034 0.488410 0.212285
H92   H     H_    0.674030 0.050290 0.609692 0.201232
H93   H     H_    0.648062 0.153817 0.609367 0.204036
H94   H     H_    0.601671 0.150411 0.489942 0.193412
C191  C     C_3   0.688199 0.846629 0.613001 -0.417734
C192  C     C_3   0.710298 0.905439 0.663827 -0.269077
C193  C     C_3   0.682970 0.924803 0.708374 -0.880121
H95   H     H_    0.640666 0.926639 0.658687 0.260420
H96   H     H_    0.691321 0.893288 0.762092 0.266837
H97   H     H_    0.696847 0.969415 0.738592 0.253685
H98   H     H_    0.751985 0.900244 0.717073 0.209594
H99   H     H_    0.705312 0.940610 0.616437 0.194610
H100  H     H_    0.646914 0.853606 0.558855 0.191127
H101  H     H_    0.690287 0.814076 0.660890 0.198200
C194  C     C_3   0.324305 0.147461 0.397473 -0.418188
C195  C     C_3   0.303476 0.089054 0.344915 -0.263964
C196  C     C_3   0.334000 0.070567 0.305833 -0.877727
H102  H     H_    0.330877 0.104854 0.258844 0.263736
H103  H     H_    0.375245 0.063977 0.360190 0.262209
H104  H     H_    0.318339 0.028342 0.268528 0.252266
H105  H     H_    0.306605 0.053185 0.389946 0.201740
H106  H     H_    0.262390 0.094584 0.288848 0.208991
H107  H     H_    0.324839 0.180069 0.351919 0.194840
H108  H     H_    0.364641 0.140402 0.455468 0.196647
C197  C     C_3   0.809552 0.311524 0.399807 -0.415021
C198  C     C_3   0.796603 0.373458 0.356968 -0.267783
C199  C     C_3   0.832558 0.390345 0.328155 -0.867399
H109  H     H_    0.873139 0.391911 0.387118 0.264657
H110  H     H_    0.829388 0.357795 0.279140 0.263216
H111  H     H_    0.821880 0.434723 0.296267 0.248480
H112  H     H_    0.756240 0.374074 0.297013 0.209747
H113  H     H_    0.801076 0.407107 0.405956 0.204782
H114  H     H_    0.850139 0.312141 0.459037 0.201120
H115  H     H_    0.806703 0.279869 0.349903 0.191618
C200  C     C_3   0.185268 0.650317 0.618784 -0.423601
C201  C     C_3   0.209219 0.593457 0.673953 -0.270588
C202  C     C_3   0.181194 0.573694 0.717076 -0.872255
H116  H     H_    0.185226 0.607647 0.765193 0.266536
H117  H     H_    0.139592 0.566469 0.665273 0.258812
H118  H     H_    0.198148 0.531543 0.753770 0.258625
H119  H     H_    0.206757 0.557194 0.629938 0.200418
H120  H     H_    0.250354 0.601479 0.728105 0.212908
H121  H     H_    0.186416 0.684213 0.664369 0.199438
H122  H     H_    0.144206 0.641249 0.565272 0.192857
C203  C     C_3   0.169999 0.346988 0.551112 -0.398617
C204  C     C_3   0.173426 0.415016 0.557028 -0.281448
C205  C     C_3   0.128970 0.441190 0.558756 -0.862465
H123  H     H_    0.091320 0.427009 0.498756 0.269323
H124  H     H_    0.131499 0.426812 0.620047 0.267143
H125  H     H_    0.130808 0.490240 0.558340 0.250592
H126  H     H_    0.210269 0.428904 0.619104 0.201966
H127  H     H_    0.171575 0.433167 0.497937 0.216862
H128  H     H_    0.130335 0.335740 0.493775 0.216388
H129  H     H_    0.175311 0.329269 0.613308 0.201733
C206  C     C_3   0.801688 0.661246 0.370072 -0.411573
C207  C     C_3   0.779473 0.602522 0.319036 -0.273526
C208  C     C_3   0.808458 0.581701 0.278153 -0.855189
H130  H     H_    0.805940 0.615519 0.231096 0.271741
H131  H     H_    0.849621 0.573425 0.331537 0.259062
H132  H     H_    0.791042 0.539869 0.240566 0.246416
H133  H     H_    0.782786 0.567593 0.365464 0.201053
H134  H     H_    0.738226 0.608526 0.264031 0.220688
H135  H     H_    0.799432 0.694250 0.322195 0.223963
H136  H     H_    0.842975 0.653887 0.423919 0.188400

loop_
_geom_bond_atom_site_label_1
_geom_bond_atom_site_label_2
_geom_bond_distance
_ccdc_geom_bond_type
C49   H25   1.082729 S    
C127  C159  1.401123 A    
C65   H33   1.086605 S    
C208  H130  1.110910 S    
C84   C87   1.384811 A    
C139  H60   1.071769 S    
C18   N18   1.324703 A    
C115  C139  1.402782 A    
C69   H37   1.086197 S    
C113  C137  1.404161 A    
C179  H51   1.084164 S    
C72   H40   1.085960 S    
C131  N36   1.434766 S    
C194  H107  1.109911 S    
N4    Ni1   1.886485 S    
C41   C60   1.417809 S    
C15   N47   1.437876 S    
C45   C64   1.406835 S    
C14   N14   1.335900 A    
C2    C34   1.389151 A    
C47   C62   1.402337 S    
C126  C134  1.401445 A    
C127  H71   1.084424 S    
C166  C173  1.414313 A    
C128  H72   1.084565 S    
C28   C34   1.391983 A    
C16   C48   1.394780 A    
C3    N3    1.339718 A    
N40   O15   1.301367 A    
C4    H4    1.080345 S    
C83   C91   1.424563 A    
C98   C110  1.400965 A    
C5    H5    1.079765 S    
C124  H68   1.084309 S    
C32   C38   1.398623 A    
C162  C165  1.413868 A    
C7    H7    1.074530 S    
C8    H8    1.073431 S    
C68   H36   1.086243 S    
C201  H120  1.111983 S    
C17   H9    1.080621 S    
C34   C116  1.484636 S    
C54   H30   1.083217 S    
C101  C105  1.396737 A    
C207  H133  1.111879 S    
C51   C59   1.383940 A    
N39   O13   1.301130 A    
C38   C120  1.490798 S    
C122  C154  1.396853 A    
C111  C203  1.528373 S    
N43   O22   1.298315 A    
C103  C107  1.398972 A    
C124  C132  1.401122 A    
C11   N11   1.333607 A    
N36   O7    1.301294 A    
C53   C93   1.396625 A    
C35   C113  1.489906 S    
C207  H134  1.111871 S    
C128  C136  1.400170 A    
C163  C172  1.414758 A    
C26   N26   1.342748 A    
C187  H81   1.110896 S    
C126  H70   1.084273 S    
C11   C43   1.383871 A    
C14   C46   1.383186 A    
C149  C157  1.406363 A    
C74   C98   1.396364 A    
N8    Ni3   1.886485 S    
C137  H58   1.067315 S    
N42   O19   1.299966 A    
C200  H122  1.111903 S    
C147  C155  1.414324 A    
C112  C206  1.529913 S    
C120  C144  1.404393 A    
C22   N22   1.325733 A    
C11   N43   1.430733 S    
C52   H28   1.082160 S    
C151  C167  1.425640 A    
C208  H132  1.110205 S    
C143  H64   1.067373 S    
C190  H90   1.108839 S    
C144  H63   1.067805 S    
C141  C149  1.391241 A    
C194  C195  1.538110 S    
C66   C74   1.378185 A    
C149  C165  1.411954 A    
C25   C35   1.398170 A    
C174  H78   1.081694 S    
C156  C184  1.393694 A    
C157  C177  1.399136 A    
C16   N48   1.433546 S    
C19   C43   1.371696 A    
C29   C39   1.387997 A    
C132  N35   1.434856 S    
C10   N42   1.433662 S    
C193  H95   1.109074 S    
C31   C37   1.399456 A    
N20   Ni2   1.887754 S    
C128  C160  1.399799 A    
C197  C198  1.538318 S    
C121  C129  1.400571 A    
C18   C42   1.370103 A    
C202  H116  1.109393 S    
C73   C97   1.394237 A    
C78   C86   1.413776 A    
C163  C168  1.420817 A    
C186  H85   1.111910 S    
C192  H98   1.111923 S    
N48   O31   1.299397 A    
C52   C92   1.393845 A    
C24   N24   1.322371 A    
C198  C199  1.526896 S    
N43   O21   1.300084 A    
C4    N4    1.335526 A    
N3    Ni2   1.886482 S    
C65   C73   1.369867 A    
N25   Ni6   1.857618 S    
C62   C70   1.381660 A    
C55   C95   1.391431 A    
C56   C96   1.386662 A    
C122  H66   1.084646 S    
C190  H88   1.110822 S    
C50   C90   1.389489 A    
C87   C95   1.425476 A    
C206  H136  1.112024 S    
N14   N22   1.361420 A    
C67   H35   1.086613 S    
C27   N27   1.337163 A    
N4    N26   1.424601 A    
C117  C141  1.398670 A    
C161  C170  1.415191 A    
N29   Ni8   1.857618 S    
C99   C111  1.396124 A    
C31   H23   1.069252 S    
C117  C133  1.416928 A    
C171  H75   1.075717 S    
C3    C35   1.388455 A    
C178  H50   1.084133 S    
N1    Ni1   1.884161 S    
C6    H6    1.079720 S    
C14   N46   1.429073 S    
C26   H18   1.072802 S    
C189  C190  1.526929 S    
C60   C68   1.386065 A    
C192  C193  1.526871 S    
C136  N39   1.433133 S    
C86   C94   1.422252 A    
C50   H26   1.082397 S    
C89   C106  1.418108 A    
C205  H124  1.110822 S    
C108  C194  1.528536 S    
C172  C180  1.387752 A    
C173  C181  1.387397 A    
C81   C86   1.381190 A    
C204  H127  1.111989 S    
C93   C110  1.420350 A    
C185  H86   1.111921 S    
C20   H12   1.075604 S    
C175  C183  1.388218 A    
N17   Ni2   1.885479 S    
C134  N37   1.435269 S    
C21   H13   1.079858 S    
C184  H56   1.084115 S    
N41   O18   1.299686 A    
C125  C133  1.410978 A    
C148  C164  1.426005 A    
C135  N40   1.433122 S    
C118  C142  1.402314 A    
C150  C166  1.425886 A    
N34   O4    1.301132 A    
N24   Ni4   1.887754 S    
C37   C119  1.493648 S    
N45   O26   1.298352 A    
C152  C168  1.425269 A    
N13   Ni7   1.858776 S    
C181  H53   1.084278 S    
N26   Ni5   1.857618 S    
C197  H115  1.111566 S    
C3    H3    1.079626 S    
C201  C202  1.527093 S    
C202  H118  1.110376 S    
C121  C153  1.400391 A    
C26   C36   1.395675 A    
C6    C38   1.388182 A    
C12   N44   1.430577 S    
N39   O14   1.301413 A    
N38   O12   1.301153 A    
C189  H91   1.111971 S    
C30   C40   1.393540 A    
N2    Ni2   1.884161 S    
C78   C102  1.396671 A    
N2    N28   1.424602 A    
C180  H52   1.084301 S    
C97   H41   1.081310 S    
C55   H31   1.082225 S    
C125  C157  1.407007 A    
C56   H32   1.083041 S    
C79   C103  1.395960 A    
C18   H10   1.079267 S    
C164  C167  1.419799 A    
C140  H59   1.073135 S    
C9    C41   1.392234 A    
C207  C208  1.526576 S    
C187  H82   1.110959 S    
C146  C154  1.418638 A    
C141  H62   1.078364 S    
C102  C106  1.400567 A    
N44   O24   1.299604 A    
C95   C112  1.418961 A    
N35   O6    1.301306 A    
N10   Ni6   1.858776 S    
C96   C111  1.416659 A    
C17   C41   1.371238 A    
C27   H19   1.072646 S    
N14   Ni8   1.858776 S    
C170  C178  1.388328 A    
C36   C114  1.479176 S    
N10   N18   1.361420 A    
C133  N38   1.434670 S    
C177  H49   1.083572 S    
C79   C87   1.408460 A    
C203  H129  1.111751 S    
C139  C147  1.401894 A    
C100  H44   1.081210 S    
C120  C136  1.418765 A    
C123  C131  1.401137 A    
C77   C101  1.395351 A    
C138  C146  1.404194 A    
N18   Ni1   1.885481 S    
C114  C130  1.417365 A    
C75   C99   1.396001 A    
N30   Ni7   1.857618 S    
C80   C88   1.409765 A    
C195  H105  1.111589 S    
C20   C44   1.365616 A    
C74   C82   1.408956 A    
C7    N7    1.351756 A    
C142  H61   1.072000 S    
C183  H55   1.084105 S    
C8    N8    1.341606 A    
C153  C181  1.391397 A    
C105  C185  1.529915 S    
C67   C75   1.370774 A    
C49   C57   1.384244 A    
N46   O27   1.300417 A    
C186  C187  1.526402 S    
C103  H47   1.081255 S    
N40   O16   1.301142 A    
C196  H103  1.110771 S    
N3    N25   1.424603 A    
N8    N30   1.424601 A    
C9    N9    1.336376 A    
C30   N30   1.337043 A    
C203  C204  1.538334 S    
N5    N31   1.424600 A    
C185  C186  1.538581 S    
C145  C161  1.426004 A    
C114  C138  1.405102 A    
C119  C135  1.418333 A    
N19   Ni1   1.887752 S    
C116  C132  1.414977 A    
C73   C81   1.409994 A    
C63   C71   1.387172 A    
C198  H112  1.112059 S    
C64   C72   1.385231 A    
C23   N23   1.327894 A    
C199  H111  1.109760 S    
C193  H97   1.110308 S    
N31   Ni7   1.856004 S    
N36   O8    1.301488 A    
C6    N6    1.339811 A    
C151  C159  1.412788 A    
C44   C57   1.408158 S    
C129  N34   1.433010 S    
N37   O10   1.301317 A    
C123  H67   1.084309 S    
C29   H21   1.073082 S    
C91   C108  1.419331 A    
C48   C61   1.423630 S    
C1    C33   1.389366 A    
C188  C189  1.537881 S    
N6    N32   1.424602 A    
C200  H121  1.107472 S    
C191  H101  1.107565 S    
C162  C169  1.416588 A    
C161  C166  1.420564 A    
C176  C184  1.388780 A    
C208  H131  1.110871 S    
C23   C47   1.364242 A    
C28   N28   1.338216 A    
C123  C155  1.401727 A    
C1    H1    1.072915 S    
C194  H108  1.111743 S    
N47   O29   1.300813 A    
C146  C162  1.424118 A    
C90   C105  1.418614 A    
C5    N5    1.340114 A    
C29   N29   1.331578 A    
C101  H45   1.081323 S    
C174  C182  1.384044 A    
C82   C85   1.385519 A    
C97   C109  1.395039 A    
C106  C188  1.527227 S    
C94   C109  1.419137 A    
C25   N25   1.335683 A    
C99   H43   1.081695 S    
C150  C158  1.414206 A    
C169  C177  1.399784 A    
C102  H46   1.081703 S    
C192  H99   1.111741 S    
N48   O32   1.298470 A    
C71   H39   1.086048 S    
N11   Ni6   1.857239 S    
C21   C45   1.362046 A    
C43   C58   1.419236 S    
C31   N31   1.335989 A    
C169  H73   1.079278 S    
N15   Ni8   1.857239 S    
C204  C205  1.526924 S    
C76   C100  1.395597 A    
C201  H119  1.111194 S    
C7    C39   1.396078 A    
N13   N21   1.361421 A    
C206  H135  1.112233 S    
C196  H102  1.110814 S    
C52   C60   1.384825 A    
C59   C67   1.384923 A    
C121  H65   1.084531 S    
C57   C65   1.383052 A    
C122  C130  1.395309 A    
C199  H109  1.110732 S    
C56   C64   1.381195 A    
N22   Ni3   1.885481 S    
C68   C76   1.372895 A    
C69   C77   1.371439 A    
C137  C145  1.400834 A    
C182  H54   1.084193 S    
C202  H117  1.110382 S    
C138  H57   1.075386 S    
C17   N17   1.322247 A    
C72   C80   1.376163 A    
C19   H11   1.078387 S    
C20   N20   1.322822 A    
N6    Ni4   1.884161 S    
N7    Ni4   1.886482 S    
C21   N21   1.322144 A    
C100  C112  1.397949 A    
C155  C183  1.392954 A    
C188  H94   1.112336 S    
C70   H38   1.085606 S    
C171  C179  1.389643 A    
C113  C129  1.418218 A    
N32   Ni8   1.856008 S    
C104  C108  1.399671 A    
C167  C176  1.414197 A    
C12   N12   1.335664 A    
C32   H24   1.072970 S    
N33   O1    1.301215 A    
C168  C175  1.414376 A    
C13   N13   1.335611 A    
C152  C160  1.413185 A    
C198  H113  1.111579 S    
C84   C92   1.425897 A    
C85   C93   1.425544 A    
C164  C171  1.413382 A    
C4    C36   1.382441 A    
C165  C174  1.411181 A    
C39   C117  1.485106 S    
N35   O5    1.301545 A    
C88   C96   1.423700 A    
C30   H22   1.073156 S    
N41   O17   1.300062 A    
C200  C201  1.538409 S    
C8    C40   1.388092 A    
C147  C163  1.425745 A    
C195  C196  1.526970 S    
C76   C84   1.408448 A    
C176  H80   1.078036 S    
C77   C85   1.407930 A    
N45   O25   1.300546 A    
C107  C191  1.529060 S    
C22   C46   1.370522 A    
C75   C83   1.409514 A    
C80   C104  1.396326 A    
C154  C182  1.392957 A    
C197  H114  1.111941 S    
C118  C134  1.414382 A    
C190  H89   1.110884 S    
C53   H29   1.081892 S    
C70   C78   1.380202 A    
C186  H84   1.111937 S    
C24   C48   1.370235 A    
C27   C33   1.395384 A    
C25   H17   1.070573 S    
C143  C151  1.401976 A    
C189  H92   1.111233 S    
N21   Ni4   1.885479 S    
C10   N10   1.334542 A    
C82   C90   1.424731 A    
N27   Ni5   1.856004 S    
C116  C140  1.405201 A    
C110  C200  1.528969 S    
C196  H104  1.109097 S    
C125  H69   1.083763 S    
C12   C44   1.381065 A    
C15   C47   1.371599 A    
C22   H14   1.077282 S    
C32   N32   1.336677 A    
N16   Ni7   1.857242 S    
C9    N41   1.433681 S    
C193  H96   1.108926 S    
C42   C59   1.410866 S    
N11   N19   1.361418 A    
C13   C45   1.380083 A    
C46   C63   1.417952 S    
C203  H128  1.112450 S    
C206  C207  1.538606 S    
C172  H76   1.075149 S    
N33   O2    1.301459 A    
C173  H77   1.073752 S    
N28   Ni6   1.856008 S    
N1    N27   1.424600 A    
C175  H79   1.078032 S    
C195  H106  1.112146 S    
N47   O30   1.300202 A    
C40   C118  1.481497 S    
C205  H123  1.110865 S    
C188  H93   1.111730 S    
C98   H42   1.081106 S    
C205  H125  1.108638 S    
C126  C158  1.402270 A    
C28   H20   1.072162 S    
N5    Ni3   1.884161 S    
C204  H126  1.111579 S    
C10   C42   1.387803 A    
C185  H87   1.112240 S    
C145  C153  1.413214 A    
C33   C115  1.482988 S    
N46   O28   1.298592 A    
C142  C150  1.401758 A    
N9    Ni5   1.858776 S    
N23   Ni3   1.887752 S    
C2    H2    1.072316 S    
N34   O3    1.301384 A    
C23   H15   1.081693 S    
C61   C69   1.387225 A    
C81   C89   1.422430 A    
C24   H16   1.080066 S    
N9    N17   1.361421 A    
C51   C91   1.392208 A    
C49   C89   1.391839 A    
C2    N2    1.342956 A    
N12   N20   1.361420 A    
C127  C135  1.402425 A    
C5    C37   1.392296 A    
C66   H34   1.085700 S    
C160  C180  1.392154 A    
C19   N19   1.327224 A    
N15   N23   1.361418 A    
C92   C107  1.419662 A    
C13   N45   1.430567 S    
N16   N24   1.361420 A    
C115  C131  1.415146 A    
N38   O11   1.301169 A    
C148  C156  1.414358 A    
C83   C88   1.382186 A    
C130  N33   1.435346 S    
C159  C179  1.394156 A    
C124  C156  1.401549 A    
C158  C178  1.392682 A    
C191  C192  1.538551 S    
C199  H110  1.108994 S    
C119  C143  1.405966 A    
C53   C61   1.386692 A    
C170  H74   1.077426 S    
C109  C197  1.530658 S    
C71   C79   1.374719 A    
C15   N15   1.328424 A    
C16   N16   1.340909 A    
N37   O9    1.301530 A    
C104  H48   1.081455 S    
C140  C148  1.403599 A    
C54   C94   1.381239 A    
C50   C58   1.383488 A    
N42   O20   1.298618 A    
C187  H83   1.110270 S    
C1    N1    1.341025 A    
N44   O23   1.300687 A    
N7    N29   1.424603 A    
N12   Ni5   1.857242 S    
C144  C152  1.402519 A    
C54   C62   1.383777 A    
C191  H100  1.111936 S    
C58   C66   1.387483 A    
C51   H27   1.082294 S    
C55   C63   1.383616 A    
