data_mof_unit_13674.cif
_audit_creation_date              2012-10-26T21:25:53-0400
_audit_creation_method            fapswitch 2.2
_symmetry_space_group_name_H-M    P1
_symmetry_Int_Tables_number       1
_space_group_crystal_system       triclinic
_cell_length_a                    10.904964
_cell_length_b                    10.852507
_cell_length_c                    12.687441
_cell_angle_alpha                 92.523832
_cell_angle_beta                  91.938901
_cell_angle_gamma                 88.520029
_cell_volume                      1498.74967021

loop_
_atom_site_label
_atom_site_type_symbol
_atom_type_description
_atom_site_fract_x
_atom_site_fract_y
_atom_site_fract_z
_atom_type_partial_charge
C1    C     C_R   0.261794 0.499728 0.501842 0.570356
C2    C     C_R   0.817736 0.573872 0.249281 -0.032259
C3    C     C_R   0.120607 0.527405 0.706128 0.034854
C4    C     C_R   0.879394 0.472661 0.293863 0.034869
C5    C     C_R   0.099451 0.635206 0.769113 -0.091408
C6    C     C_R   0.900610 0.364902 0.230831 -0.091437
C7    C     C_R   0.139040 0.641157 0.875172 -0.111561
C8    C     C_R   0.861035 0.358998 0.124768 -0.111573
C9    C     C_R   0.198430 0.539168 0.919354 -0.109047
C10   C     C_R   0.801594 0.460990 0.080630 -0.109045
C11   C     C_R   0.935976 0.516313 0.592532 -0.107496
C12   C     C_R   0.738206 0.500280 0.498157 0.570342
C13   C     C_R   0.064023 0.483714 0.407464 -0.107498
C14   C     C_R   0.871674 0.501510 0.495509 0.025072
C15   C     C_R   0.128325 0.498513 0.504488 0.025074
C16   C     C_R   0.500493 0.262073 0.501329 0.570230
C17   C     C_R   0.499510 0.737927 0.498671 0.570216
C18   C     C_R   0.936841 0.485240 0.401201 -0.028599
C19   C     C_R   0.063158 0.514795 0.598794 -0.028618
C20   C     C_2   0.485682 0.454299 0.031641 -0.183422
C21   C     C_2   0.514317 0.545701 0.968359 -0.183433
C22   C     C_1   0.518116 0.529272 0.852723 0.144245
C23   C     C_R   0.503098 0.871419 0.495737 -0.043980
C24   C     C_1   0.481883 0.470727 0.147277 0.144247
C25   C     C_R   0.878920 0.171901 0.701714 0.079760
C26   C     C_R   0.121106 0.828080 0.298264 0.079766
C27   C     C_R   0.792978 0.128710 0.624733 -0.086019
C28   C     C_R   0.207040 0.871268 0.375254 -0.086020
C29   C     C_R   0.667247 0.131560 0.645435 0.039640
C30   C     C_R   0.332771 0.868440 0.354555 0.039650
C31   C     C_R   0.627360 0.182182 0.742488 -0.013525
C32   C     C_R   0.372668 0.817843 0.257499 -0.013525
C33   C     C_R   0.711816 0.231371 0.816986 -0.125948
C34   C     C_R   0.496907 0.128581 0.504264 -0.043971
C35   C     C_R   0.288220 0.768662 0.182989 -0.125953
C36   C     C_R   0.837143 0.225375 0.797335 -0.112439
C37   C     C_R   0.162893 0.774636 0.202637 -0.112439
C38   C     C_R   0.584367 0.935649 0.566295 0.022507
C39   C     C_R   0.415636 0.064351 0.433708 0.022504
C40   C     C_2   0.011769 0.153395 0.684762 0.556777
C41   C     C_2   0.988255 0.846560 0.315216 0.556783
C42   C     C_2   0.677431 0.867802 0.632185 0.594506
C43   C     C_2   0.322567 0.132197 0.367822 0.594510
C44   C     C_R   0.420216 0.935031 0.428001 -0.074714
C45   C     C_R   0.579792 0.064969 0.571998 -0.074703
C46   C     C_R   0.220554 0.431977 0.857024 -0.090079
C47   C     C_R   0.779408 0.568136 0.143005 -0.090028
C48   C     C_R   0.182217 0.426196 0.750750 -0.032355
Cu1   Cu    Cu3+1 0.492140 0.492110 0.395880 1.022990
Cu2   Cu    Cu3+1 0.507860 0.507890 0.604120 1.023005
H1    H     H_    0.901494 0.260694 0.857466 0.136972
H2    H     H_    0.466125 0.363561 0.996655 0.125313
H3    H     H_    0.823793 0.085541 0.551328 0.162353
H4    H     H_    0.176218 0.914417 0.448663 0.162340
H5    H     H_    0.531050 0.182012 0.760796 0.129353
H6    H     H_    0.468978 0.818029 0.239195 0.129334
H7    H     H_    0.680366 0.270919 0.891382 0.106721
H8    H     H_    0.319678 0.729139 0.108589 0.106706
H9    H     H_    0.227117 0.543145 0.001884 0.114712
H10   H     H_    0.772918 0.457050 0.998097 0.114724
H11   H     H_    0.266598 0.352970 0.891145 0.125245
H12   H     H_    0.098548 0.739323 0.142498 0.136989
H13   H     H_    0.733326 0.647146 0.108916 0.125239
H14   H     H_    0.199535 0.342796 0.703172 0.162934
H15   H     H_    0.800377 0.657243 0.296891 0.162893
H16   H     H_    0.146339 0.116345 0.582063 0.350020
H17   H     H_    0.853678 0.883562 0.417918 0.350013
H18   H     H_    0.752453 0.840487 0.777028 0.336052
H19   H     H_    0.247540 0.159521 0.222982 0.336049
H20   H     H_    0.050168 0.713498 0.736538 0.141525
H21   H     H_    0.949934 0.286611 0.263371 0.141500
H22   H     H_    0.121876 0.724067 0.923550 0.124129
H23   H     H_    0.878251 0.276123 0.076353 0.124100
H24   H     H_    0.887011 0.527782 0.665475 0.148751
H25   H     H_    0.112990 0.472249 0.334521 0.148737
H26   H     H_    0.533873 0.636439 0.003344 0.125299
N1    N     N_1   0.480320 0.480250 0.239400 -0.188669
N2    N     N_1   0.519680 0.519750 0.760600 -0.188666
O1    O     O_R   0.313000 0.493330 0.412070 -0.491525
O2    O     O_R   0.053956 0.129233 0.582872 -0.677024
O3    O     O_2   0.915390 0.843889 0.239769 -0.553374
O4    O     O_R   0.946063 0.870694 0.417109 -0.677047
O5    O     O_2   0.746734 0.791262 0.590612 -0.527679
O6    O     O_R   0.685510 0.891880 0.741333 -0.686948
O7    O     O_2   0.253262 0.208729 0.409402 -0.527655
O8    O     O_R   0.314487 0.108129 0.258674 -0.686949
O9    O     O_R   0.687000 0.506670 0.587930 -0.491520
O10   O     O_R   0.326280 0.506660 0.587930 -0.505636
O11   O     O_R   0.673720 0.493340 0.412070 -0.505661
O12   O     O_R   0.493370 0.312980 0.412070 -0.467975
O13   O     O_R   0.506630 0.687020 0.587930 -0.467976
O14   O     O_R   0.506650 0.326310 0.587930 -0.515555
O15   O     O_R   0.493350 0.673690 0.412070 -0.515565
O16   O     O_2   0.084636 0.156069 0.760208 -0.553386

loop_
_geom_bond_atom_site_label_1
_geom_bond_atom_site_label_2
_ccdc_geom_bond_type
C16   O12   A    
C27   C29   A    
C14   C18   A    
C10   H10   S    
C17   O13   A    
Cu1   O12   S    
C2    H15   S    
C37   H12   S    
C15   C19   A    
C21   H26   S    
C11   C19   A    
C17   C23   S    
C13   C18   A    
C35   H8    S    
C35   C37   A    
C38   C42   S    
C25   C40   S    
C47   H13   S    
C11   C14   A    
C48   H14   S    
C3    C48   A    
C33   C36   A    
C38   C45   A    
C16   C34   S    
C13   H25   S    
C31   C33   A    
C3    C19   S    
C1    C15   S    
Cu2   O10   S    
C4    C18   S    
C1    O10   A    
C9    C46   A    
C21   C22   S    
C30   C44   S    
Cu2   N2    S    
C6    H21   S    
C46   C48   A    
C46   H11   S    
C34   C39   A    
C43   O7    D    
C32   C35   A    
C20   C24   S    
C12   O11   A    
C42   O6    S    
C22   N2    T    
C4    C6    A    
C40   O16   D    
C7    H22   S    
C5    C7    A    
C28   H4    S    
C6    C8    A    
C23   C44   A    
Cu1   O1    S    
C29   C45   S    
C9    H9    S    
H18   O6    S    
C2    C4    A    
C5    H20   S    
C24   N1    T    
C41   O3    D    
C40   O2    S    
C34   C45   A    
C36   H1    S    
Cu2   O9    S    
Cu2   O14   S    
C12   C14   S    
C16   O14   A    
C13   C15   A    
C1    O1    A    
C17   O15   A    
C7    C9    A    
C33   H7    S    
C12   O9    A    
C43   O8    S    
C42   O5    D    
Cu1   O11   S    
C3    C5    A    
C11   H24   S    
C39   C43   S    
C27   H3    S    
C26   C37   A    
C39   C44   A    
C2    C47   A    
C25   C27   A    
C23   C38   A    
H16   O2    S    
C26   C28   A    
C20   H2    S    
C31   H5    S    
C28   C30   A    
C29   C31   A    
C30   C32   A    
C41   O4    S    
C8    H23   S    
Cu1   N1    S    
C25   C36   A    
Cu2   O13   S    
C20   C21   D    
H17   O4    S    
C8    C10   A    
Cu1   Cu2   S    
C10   C47   A    
Cu1   O15   S    
C32   H6    S    
H19   O8    S    
C26   C41   S    
