data_mof_unit_52892.cif
_audit_creation_date              2013-03-05T16:12:15-0500
_audit_creation_method            fapswitch 2.2
_symmetry_space_group_name_H-M    P1
_symmetry_Int_Tables_number       1
_space_group_crystal_system       triclinic
_cell_length_a                    10.903131
_cell_length_b                    9.481774
_cell_length_c                    27.843245
_cell_angle_alpha                 90.093574
_cell_angle_beta                  89.729429
_cell_angle_gamma                 88.928991
_cell_volume                      2877.92395087

loop_
_atom_site_label
_atom_site_type_symbol
_atom_site_description
_atom_site_fract_x
_atom_site_fract_y
_atom_site_fract_z
_atom_type_partial_charge
O1    O     O_R   0.317570 0.620260 0.500030 -0.519505
O2    O     O_R   0.317570 0.379740 0.500030 -0.583984
C1    C     C_R   0.259207 0.501431 0.499871 0.928685
O3    O     O_R   0.499900 0.620250 0.430280 -0.594660
O4    O     O_R   0.499900 0.379750 0.430280 -0.613948
C2    C     C_R   0.499248 0.499904 0.407589 0.822708
Cu1   Cu    Cu3+1 0.499860 0.642410 0.500020 1.062663
Cu2   Cu    Cu3+1 0.499860 0.357590 0.500020 1.035812
O5    O     O_R   0.682190 0.620260 0.500010 -0.590738
O6    O     O_R   0.682190 0.379740 0.500010 -0.562971
O7    O     O_R   0.499860 0.620280 0.569750 -0.480053
O8    O     O_R   0.499860 0.379720 0.569750 -0.501246
C3    C     C_R   0.739279 0.499217 0.498456 0.927523
C4    C     C_R   0.499372 0.499846 0.592757 0.965149
C5    C     C_R   0.381356 0.509000 0.179117 0.564963
O9    O     O_2   0.276049 0.520422 0.204640 -0.507116
N1    N     N_R   0.490806 0.498323 0.202482 -0.488099
C6    C     C_R   0.599482 0.486888 0.178019 0.602952
C7    C     C_R   0.505691 0.371739 0.279041 -0.092195
C8    C     C_R   0.507944 0.371943 0.329113 -0.198164
C9    C     C_R   0.483192 0.626848 0.329219 -0.167173
C10   C     C_R   0.480395 0.626212 0.279133 -0.090778
C11   C     C_R   0.491858 0.498755 0.253956 0.332687
C12   C     C_R   0.488423 0.495203 0.102488 -0.131757
C13   C     C_R   0.377989 0.507666 0.128771 -0.029716
C14   C     C_R   0.266596 0.523006 0.104549 -0.228057
C15   C     C_R   0.601255 0.485088 0.127198 -0.092880
C16   C     C_R   0.497030 0.499611 0.354690 -0.025263
H1    H     H_    0.474104 0.726752 0.347925 0.160450
H2    H     H_    0.469852 0.724704 0.259827 0.143658
H3    H     H_    0.182397 0.539703 0.124769 0.191410
C17   C     C_R   0.494485 0.498437 0.646427 -0.186863
C18   C     C_R   0.370950 0.476235 0.976505 0.017789
C19   C     C_R   0.592935 0.512062 0.974749 0.102159
C20   C     C_R   0.480677 0.494274 0.950317 0.040165
C21   C     C_R   0.266005 0.433803 0.951287 -0.224460
C22   C     C_R   0.263724 0.427605 0.900870 0.433788
C23   C     C_R   0.369920 0.462054 0.874445 -0.076815
C24   C     C_R   0.478559 0.494234 0.899371 -0.120295
C25   C     C_R   0.585689 0.526430 0.873403 -0.009358
C26   C     C_R   0.582934 0.526845 0.823133 0.567573
N2    N     N_R   0.477770 0.494147 0.799372 -0.467580
C27   C     C_R   0.372407 0.462308 0.823641 0.610476
C28   C     C_R   0.413651 0.594344 0.722046 -0.188315
C29   C     C_R   0.419275 0.597411 0.671586 0.413268
C30   C     C_R   0.559071 0.393688 0.673201 0.241639
C31   C     C_R   0.549360 0.391062 0.723301 -0.126248
C32   C     C_R   0.478949 0.492192 0.747784 0.226557
O10   O     O_2   0.271153 0.430324 0.798508 -0.414345
C33   C     C_R   0.371111 0.496384 0.027209 0.063212
C34   C     C_R   0.485655 0.494993 0.051617 -0.066753
C35   C     C_R   0.597267 0.492618 0.025302 -0.017632
C36   C     C_R   0.261775 0.521266 0.054246 0.389739
H4    H     H_    0.358235 0.671545 0.741510 0.165389
H5    H     H_    0.186229 0.397750 0.970402 0.198782
O11   O     O_2   0.704923 0.477294 0.203072 -0.440868
C37   C     C_R   0.711864 0.472138 0.100828 0.347957
H6    H     H_    0.518691 0.272307 0.347712 0.157418
H7    H     H_    0.514661 0.272948 0.259663 0.144098
C38   C     C_R   0.696307 0.553215 0.947913 -0.116872
C39   C     C_R   0.692846 0.559583 0.898107 -0.145908
O12   O     O_2   0.684615 0.560167 0.798061 -0.489181
C40   C     C_R   0.708731 0.465489 0.050025 0.271502
H8    H     H_    0.779739 0.586441 0.964973 0.205905
H9    H     H_    0.774994 0.590128 0.879038 0.204335
H10   H     H_    0.600769 0.312894 0.743669 0.196097
C41   C     C_3   0.061516 0.665026 0.500359 0.470592
C42   C     C_3   0.066219 0.413440 0.544233 0.450711
C43   C     C_3   0.920987 0.650816 0.507251 -0.464131
C44   C     C_3   0.923553 0.409254 0.539878 -0.525871
H11   H     H_    0.894484 0.679422 0.544791 0.213362
H12   H     H_    0.877299 0.447879 0.572751 0.264296
H13   H     H_    0.869494 0.729648 0.485729 0.239034
H14   H     H_    0.889526 0.300185 0.537118 0.222135
C45   C     C_3   0.074446 0.437065 0.449361 0.578878
C46   C     C_3   0.119723 0.504008 0.499111 -0.358515
C47   C     C_3   0.876447 0.498879 0.497624 -0.210165
C48   C     C_3   0.928388 0.443558 0.448077 0.702293
C49   C     C_3   0.620722 0.080936 0.516774 0.299813
C50   C     C_3   0.620665 0.913437 0.516926 0.306247
H15   H     H_    0.692007 0.113195 0.490163 0.093602
H16   H     H_    0.692007 0.878838 0.490305 0.083669
C51   C     C_3   0.397949 0.086249 0.530556 0.341372
C52   C     C_3   0.399070 0.919979 0.531039 0.369332
C53   C     C_3   0.481444 0.084171 0.451897 -0.444296
C54   C     C_3   0.482638 0.916935 0.451858 -0.434714
N3    N     N_3   0.500250 0.143650 0.501060 -0.204273
N4    N     N_3   0.500250 0.856350 0.501060 -0.204827
H17   H     H_    0.393375 0.124564 0.436697 0.199460
H18   H     H_    0.396617 0.879447 0.435890 0.245123
H19   H     H_    0.554404 0.120802 0.427057 0.205684
H20   H     H_    0.556826 0.878255 0.427315 0.196863
H21   H     H_    0.310528 0.118483 0.513045 0.181371
H22   H     H_    0.311142 0.888800 0.514759 0.187980
O13   O     O_3   0.822267 0.466125 0.125014 -0.659957
H23   H     H_    0.887219 0.504708 0.104055 0.323359
N5    N     N_R   0.642028 0.295395 0.650696 0.166490
O14   O     O_R   0.650227 0.166273 0.666325 -0.301376
O15   O     O_R   0.728784 0.342843 0.623463 -0.355682
O16   O     O_3   0.810447 0.418488 0.024326 -0.744396
H24   H     H_    0.862796 0.358117 0.045150 0.347514
N6    N     N_R   0.086904 0.743380 0.455053 0.196985
O17   O     O_R   0.000113 0.788637 0.426656 -0.281976
O18   O     O_R   0.197720 0.780426 0.444580 -0.358323
N7    N     N_R   0.110742 0.263720 0.546625 0.148107
O19   O     O_R   0.070792 0.169233 0.516981 -0.323157
O20   O     O_R   0.154561 0.215223 0.586887 -0.201257
N8    N     N_R   0.102367 0.756915 0.539970 0.124314
O21   O     O_R   0.190712 0.723110 0.568877 -0.228645
O22   O     O_R   0.052743 0.882241 0.544382 -0.286567
N9    N     N_R   0.101790 0.481618 0.590042 0.171487
O23   O     O_R   0.023534 0.549495 0.617486 -0.285785
O24   O     O_R   0.214636 0.469498 0.604795 -0.279998
O25   O     O_3   0.122834 0.513866 0.410310 -0.693820
H25   H     H_    0.105705 0.461109 0.380299 0.349728
O26   O     O_3   0.116039 0.296208 0.444029 -0.688186
H26   H     H_    0.200939 0.295160 0.430986 0.340095
O27   O     O_3   0.887997 0.539782 0.412666 -0.678117
H27   H     H_    0.893191 0.491967 0.380943 0.363171
O28   O     O_3   0.879306 0.310571 0.436437 -0.716522
H28   H     H_    0.902234 0.241316 0.461427 0.363959
O29   O     O_3   0.655521 0.135122 0.561324 -0.637863
H29   H     H_    0.745307 0.118227 0.564351 0.353189
O30   O     O_3   0.655224 0.857118 0.561632 -0.676478
H30   H     H_    0.745243 0.867915 0.564606 0.335178
O31   O     O_3   0.390135 0.146403 0.576687 -0.601238
H31   H     H_    0.463644 0.120792 0.595397 0.385595
O32   O     O_3   0.396198 0.865182 0.577671 -0.570507
H32   H     H_    0.467020 0.898108 0.596152 0.382601
O33   O     O_3   0.348215 0.692774 0.646403 -0.585636
H33   H     H_    0.300062 0.752680 0.669148 0.366255
O34   O     O_3   0.158735 0.387338 0.877206 -0.640207
H34   H     H_    0.092778 0.369153 0.900920 0.332529
O35   O     O_3   0.153206 0.556478 0.031338 -0.735135
H35   H     H_    0.086928 0.571769 0.055404 0.328530

loop_
_geom_bond_atom_site_label_1
_geom_bond_atom_site_label_2
_geom_bond_distance
_ccdc_geom_bond_type
C52   O32   1.399709 S    
C51   N3    1.493424 S    
O31   H31   0.984774 S    
C26   N2    1.366874 A    
C43   C47   1.552166 S    
O13   H23   0.991134 S    
C12   C15   1.414158 A    
O32   H32   0.985270 S    
C49   N3    1.499148 S    
O25   H25   0.993455 S    
C53   H19   1.112531 S    
Cu1   Cu2   2.700598 S    
C47   C48   1.574229 S    
O26   H26   0.992633 S    
Cu1   O7    1.953156 S    
N7    O20   1.301873 A    
N1    C11   1.433283 S    
C51   C52   1.576437 S    
C21   C22   1.405269 A    
C48   O27   1.410851 S    
C23   C24   1.413661 A    
O7    C4    1.310324 A    
C54   N4    1.498183 S    
C41   N8    1.479814 S    
C5    C13   1.402493 A    
C5    O9    1.349984 S    
C51   H21   1.110683 S    
C18   C21   1.409979 A    
N8    O21   1.294216 A    
N1    C6    1.366400 A    
C19   C20   1.415809 A    
C17   C29   1.416863 A    
C43   H11   1.114849 S    
Cu1   N4    2.028774 S    
O5    C3    1.295922 A    
O27   H27   0.993063 S    
C2    C16   1.473197 S    
C7    C8    1.394526 A    
O34   H34   0.991662 S    
C44   H14   1.107886 S    
C28   C29   1.406379 A    
C43   H13   1.105415 S    
C31   H10   1.083504 S    
C6    O11   1.349214 S    
C12   C34   1.416879 A    
C29   O33   1.374979 S    
C9    C10   1.395048 A    
C44   C47   1.537107 S    
C19   C38   1.410785 A    
C26   O12   1.350092 S    
O3    Cu1   1.952779 S    
N5    O15   1.297058 A    
N5    O14   1.301654 A    
Cu1   O5    1.995122 S    
C53   N3    1.496095 S    
C49   O29   1.398650 S    
C3    C47   1.495572 S    
C33   C36   1.422641 A    
C6    C15   1.415114 A    
C34   C35   1.417306 A    
C12   C13   1.409028 A    
C50   H16   1.116363 S    
C15   C37   1.412226 A    
C24   C25   1.409404 A    
C49   H15   1.118405 S    
C53   H17   1.112868 S    
C7    C11   1.399264 A    
C27   O10   1.348914 S    
C52   H22   1.107340 S    
C8    C16   1.406294 A    
C40   O16   1.383287 S    
C7    H7    1.082841 S    
C18   C33   1.424328 A    
C53   C54   1.585502 S    
C9    H1    1.082960 S    
O6    C3    1.303438 A    
C25   C39   1.399148 A    
C38   C39   1.388822 A    
O1    C1    1.304312 A    
C42   N9    1.485426 S    
C48   O28   1.416656 S    
C45   C46   1.606439 S    
C22   C23   1.412640 A    
C28   H4    1.083363 S    
C31   C32   1.392463 A    
Cu2   O8    1.952475 S    
C33   C34   1.424494 A    
N9    O24   1.302087 A    
C45   O25   1.415064 S    
N2    C32   1.436449 S    
N6    O18   1.296582 A    
C1    C46   1.520805 S    
O3    C2    1.303562 A    
C25   C26   1.400146 A    
C30   N5    1.428495 S    
O8    C4    1.305787 A    
C42   N7    1.493402 S    
C54   H18   1.104331 S    
N2    C27   1.368854 A    
C51   O31   1.406112 S    
C8    H6    1.082788 S    
C14   C36   1.401920 A    
O28   H28   0.987323 S    
C50   O30   1.405580 S    
C5    N1    1.364045 A    
C30   C31   1.398752 A    
C10   H2    1.082819 S    
N9    O23   1.303002 A    
O1    Cu1   2.002497 S    
C17   C30   1.421027 A    
C9    C16   1.406479 A    
O2    Cu2   1.994689 S    
C36   O35   1.382966 S    
C52   N4    1.497500 S    
C37   C40   1.416432 A    
C4    C17   1.495147 S    
C35   C40   1.419079 A    
O4    Cu2   1.953463 S    
O35   H35   0.991666 S    
C41   C46   1.642649 S    
C42   C46   1.634474 S    
N7    O19   1.299690 A    
C19   C35   1.420754 A    
C22   O34   1.383079 S    
C38   H8    1.080144 S    
Cu2   N3    2.028710 S    
O33   H33   0.991912 S    
C13   C14   1.397318 A    
C23   C27   1.414673 A    
C50   N4    1.497696 S    
C21   H5    1.078893 S    
C54   H20   1.112946 S    
O4    C2    1.303546 A    
C20   C24   1.418790 A    
O16   H24   0.990762 S    
C18   C20   1.411391 A    
N8    O22   1.301847 A    
O2    C1    1.307250 A    
N6    O17   1.302979 A    
C45   C48   1.593104 S    
C49   C50   1.588213 S    
C39   H9    1.083380 S    
C14   H3    1.083610 S    
Cu2   O6    2.002930 S    
C37   O13   1.382370 S    
C42   C44   1.562031 S    
C10   C11   1.399414 A    
C44   H12   1.101769 S    
C45   O26   1.409801 S    
C41   C43   1.551665 S    
O29   H29   0.993010 S    
C28   C32   1.392795 A    
C41   N6    1.492426 S    
O30   H30   0.992550 S    
