data_mof_unit_36042.cif
_audit_creation_date              2013-03-05T16:01:37-0500
_audit_creation_method            fapswitch 2.2
_symmetry_space_group_name_H-M    P1
_symmetry_Int_Tables_number       1
_space_group_crystal_system       triclinic
_cell_length_a                    14.02099
_cell_length_b                    14.922922
_cell_length_c                    15.479695
_cell_angle_alpha                 90.316101
_cell_angle_beta                  67.010925
_cell_angle_gamma                 90.142809
_cell_volume                      2981.60105564

loop_
_atom_site_label
_atom_site_type_symbol
_atom_site_description
_atom_site_fract_x
_atom_site_fract_y
_atom_site_fract_z
_atom_type_partial_charge
O1    O     O_R   0.419720 0.632140 0.499980 -0.618498
O2    O     O_R   0.580280 0.367860 0.500020 -0.622818
O3    O     O_R   0.580270 0.632160 0.499970 -0.623075
O4    O     O_R   0.419730 0.367840 0.500030 -0.620112
C1    C     C_R   0.499768 0.673311 0.500679 0.870641
C2    C     C_R   0.499734 0.326748 0.500110 0.888216
O5    O     O_R   0.373870 0.499980 0.632250 -0.614897
O6    O     O_R   0.626130 0.500020 0.367750 -0.614705
O7    O     O_R   0.534420 0.500000 0.632240 -0.609463
O8    O     O_R   0.465580 0.500000 0.367760 -0.615706
C3    C     C_R   0.435036 0.500839 0.676500 0.868922
C4    C     C_R   0.564906 0.500156 0.323470 0.875793
Zn1   Zn    Zn3+2 0.392800 0.499980 0.500010 0.944741
Zn2   Zn    Zn3+2 0.607200 0.500020 0.499990 0.934999
C5    C     C_R   0.393954 0.493243 0.778324 -0.100966
C6    C     C_R   0.606438 0.493736 0.221404 -0.096765
C7    C     C_R   0.270633 0.434867 0.923756 -0.179063
C8    C     C_R   0.746352 0.477223 0.069418 -0.173823
C9    C     C_R   0.296633 0.456488 0.829837 -0.201306
C10   C     C_R   0.712560 0.485102 0.166760 -0.200406
C11   C     C_R   0.461700 0.511494 0.821886 -0.186675
C12   C     C_R   0.535650 0.491297 0.178689 -0.169076
C13   C     C_R   0.445358 0.476688 0.909829 0.100704
C14   C     C_R   0.566870 0.471415 0.083837 0.103846
C15   C     C_R   0.345031 0.442954 0.963509 0.098704
C16   C     C_R   0.673614 0.473108 0.027658 0.091491
C17   C     C_R   0.524525 0.475027 0.946003 -0.114012
C18   C     C_R   0.493847 0.456240 0.043122 -0.113745
C19   C     C_R   0.393377 0.420003 0.096069 0.486849
C20   C     C_R   0.633246 0.487978 0.889871 0.518718
C21   C     C_R   0.319931 0.416254 0.055449 -0.376205
C22   C     C_R   0.705713 0.475914 0.931032 -0.336691
H1    H     H_    0.242017 0.393138 0.095961 0.158983
H2    H     H_    0.787887 0.476712 0.887387 0.153911
H3    H     H_    0.455716 0.508203 0.219621 0.188559
H4    H     H_    0.526676 0.553192 0.784700 0.210472
H5    H     H_    0.768860 0.486761 0.198700 0.154623
H6    H     H_    0.242332 0.442711 0.797308 0.150147
H7    H     H_    0.194456 0.407579 0.963853 0.133407
H8    H     H_    0.828751 0.475836 0.026909 0.133738
C23   C     C_R   0.537583 0.186875 0.559743 -0.206715
C24   C     C_R   0.449288 0.813668 0.453497 -0.188208
C25   C     C_R   0.496818 0.231311 0.503218 -0.093630
C26   C     C_R   0.497638 0.768903 0.503666 -0.093270
C27   C     C_R   0.448149 0.185555 0.453314 -0.192298
C28   C     C_R   0.539299 0.814550 0.559504 -0.204857
C29   C     C_R   0.443198 0.092873 0.456378 -0.022563
C30   C     C_R   0.530292 0.907300 0.567929 -0.039366
C31   C     C_R   0.485304 0.046789 0.513103 -0.065492
C32   C     C_R   0.485770 0.953543 0.513114 -0.063562
C33   C     C_R   0.529445 0.094261 0.567784 -0.035815
C34   C     C_R   0.444948 0.906322 0.455666 -0.024048
C35   C     C_R   0.398139 0.045755 0.403011 0.338793
C36   C     C_R   0.565613 0.954731 0.628968 0.370322
C37   C     C_R   0.402377 0.952184 0.400012 0.355233
C38   C     C_R   0.564789 0.048560 0.629105 0.367851
H9    H     H_    0.573400 0.225216 0.598691 0.171400
H10   H     H_    0.417652 0.775693 0.410848 0.186324
H11   H     H_    0.416663 0.222657 0.410402 0.182462
H12   H     H_    0.576827 0.777087 0.597165 0.175943
C39   C     C_R   0.176602 0.443347 0.558127 -0.043758
C40   C     C_R   0.823726 0.555965 0.441111 -0.047648
N1    N     N_R   0.249980 0.499930 0.499960 -0.105950
N2    N     N_R   0.750020 0.500070 0.500040 -0.121794
C41   C     C_R   0.228093 0.554807 0.439815 -0.006804
C42   C     C_R   0.773561 0.441640 0.556399 0.001339
C43   C     C_R   0.128660 0.555042 0.436652 -0.103368
C44   C     C_R   0.874078 0.439126 0.557063 -0.103066
C45   C     C_R   0.051623 0.498016 0.497634 0.014536
C46   C     C_R   0.950363 0.497758 0.497783 0.011061
C47   C     C_R   0.075999 0.440912 0.558224 -0.033835
C48   C     C_R   0.925521 0.555857 0.438268 -0.024459
C49   C     C_R   0.104462 0.609943 0.373817 0.499157
C50   C     C_R   0.900451 0.379473 0.614870 0.505715
C51   C     C_R   0.002897 0.611513 0.376635 -0.286608
C52   C     C_R   0.000053 0.382161 0.616575 -0.315279
H13   H     H_    0.196842 0.399881 0.604139 0.125452
H14   H     H_    0.803107 0.600222 0.395955 0.133328
H15   H     H_    0.288534 0.598298 0.394398 0.156298
H16   H     H_    0.713330 0.397706 0.601382 0.174770
H17   H     H_    0.985176 0.655481 0.329427 0.163081
H18   H     H_    0.018214 0.337200 0.662744 0.160970
O9    O     O_3   0.178960 0.663988 0.310233 -0.615498
C53   C     C_3   0.237045 0.613657 0.228650 0.088808
H19   H     H_    0.218081 0.540627 0.232585 0.151770
H20   H     H_    0.320286 0.618703 0.216537 0.148523
C54   C     C_3   0.222294 0.652935 0.144212 -0.846843
H21   H     H_    0.243627 0.725022 0.136904 0.262753
H22   H     H_    0.272357 0.616981 0.079404 0.222786
H23   H     H_    0.140177 0.645768 0.152987 0.245205
O10   O     O_3   0.828784 0.319022 0.671577 -0.613559
C55   C     C_3   0.830751 0.239970 0.619704 0.080987
H24   H     H_    0.879653 0.243864 0.542873 0.110495
H25   H     H_    0.750691 0.225782 0.625850 0.201653
C56   C     C_3   0.867883 0.161574 0.660864 -0.767698
H26   H     H_    0.818568 0.154547 0.736642 0.263991
H27   H     H_    0.863463 0.098666 0.623940 0.232301
H28   H     H_    0.949429 0.172671 0.652281 0.221722
O11   O     O_3   0.368888 0.391704 0.188095 -0.641772
C57   C     C_3   0.310481 0.311469 0.212369 0.125479
H29   H     H_    0.350222 0.265550 0.243780 0.195139
H30   H     H_    0.304874 0.274026 0.152094 0.119277
C58   C     C_3   0.203111 0.331424 0.286905 -0.888668
H31   H     H_    0.161163 0.379579 0.260130 0.241351
H32   H     H_    0.157063 0.268822 0.307108 0.218549
H33   H     H_    0.210326 0.360639 0.350224 0.269400
O12   O     O_3   0.670298 0.502509 0.793709 -0.614091
C59   C     C_3   0.740309 0.576320 0.766636 0.072906
H34   H     H_    0.819603 0.550379 0.726310 0.174046
H35   H     H_    0.742743 0.617197 0.826390 0.124993
C60   C     C_3   0.711050 0.640347 0.704641 -0.843143
H36   H     H_    0.639039 0.676965 0.747176 0.229426
H37   H     H_    0.774059 0.689964 0.672647 0.230699
H38   H     H_    0.698122 0.603458 0.648059 0.285789
O13   O     O_3   0.357090 0.090818 0.347542 -0.629779
C61   C     C_3   0.248094 0.096866 0.394570 0.133469
H39   H     H_    0.227683 0.166837 0.419911 0.138316
H40   H     H_    0.213772 0.051508 0.456377 0.135891
C62   C     C_3   0.197992 0.074508 0.325823 -0.809962
H41   H     H_    0.211722 0.003005 0.304387 0.283014
H42   H     H_    0.113187 0.086492 0.359523 0.200663
H43   H     H_    0.231362 0.116926 0.262298 0.238611
O14   O     O_3   0.606842 0.910772 0.685055 -0.578461
C63   C     C_3   0.525424 0.880148 0.767443 0.108585
H44   H     H_    0.498487 0.813189 0.754767 0.130976
H45   H     H_    0.457309 0.926168 0.792794 0.100740
C64   C     C_3   0.565389 0.871276 0.845339 -0.824985
H46   H     H_    0.590196 0.937802 0.861548 0.258831
H47   H     H_    0.503140 0.844701 0.909623 0.198037
H48   H     H_    0.632465 0.824781 0.823376 0.257295
O15   O     O_3   0.360994 0.905512 0.345256 -0.591265
C65   C     C_3   0.436767 0.899687 0.252832 0.115389
H49   H     H_    0.510254 0.870095 0.251617 0.118050
H50   H     H_    0.453138 0.966989 0.219541 0.180717
C66   C     C_3   0.396674 0.839511 0.194868 -0.819535
H51   H     H_    0.323616 0.867199 0.193976 0.262657
H52   H     H_    0.455092 0.834933 0.121691 0.196146
H53   H     H_    0.381798 0.771350 0.225602 0.266497
O16   O     O_3   0.605262 0.095063 0.684861 -0.593458
C67   C     C_3   0.523282 0.125840 0.767149 0.056175
H54   H     H_    0.500367 0.072133 0.820726 0.158945
H55   H     H_    0.453325 0.146961 0.754800 0.122614
C68   C     C_3   0.559725 0.206309 0.807071 -0.781223
H56   H     H_    0.580421 0.262578 0.756346 0.255690
H57   H     H_    0.496773 0.228917 0.873264 0.207058
H58   H     H_    0.628319 0.187957 0.822200 0.266432

loop_
_geom_bond_atom_site_label_1
_geom_bond_atom_site_label_2
_geom_bond_distance
_ccdc_geom_bond_type
C15   C21   1.386512 A    
C66   H53   1.109602 S    
C42   C44   1.413992 A    
C54   H21   1.110316 S    
N1    C41   1.365456 A    
C16   C22   1.384312 A    
C41   H15   1.081930 S    
C20   O12   1.389845 S    
C68   H58   1.110290 S    
C49   C51   1.407827 A    
C35   C37   1.397521 A    
C56   H26   1.110191 S    
C8    C16   1.405695 A    
C67   C68   1.523287 S    
C36   O14   1.385098 S    
C24   H10   1.084950 S    
C56   H28   1.110390 S    
O14   C63   1.416023 S    
C29   C31   1.416370 A    
C11   H4    1.067723 S    
C59   H34   1.110387 S    
C30   C36   1.412586 A    
C12   H3    1.079895 S    
C50   C52   1.407497 A    
O1    C1    1.281893 A    
C18   C19   1.431026 A    
C67   H55   1.116520 S    
C47   C52   1.403997 A    
C49   O9    1.382660 S    
C44   C50   1.413793 A    
C68   H56   1.110838 S    
C68   H57   1.110859 S    
C61   H39   1.111458 S    
C39   N1    1.364803 A    
C33   C38   1.409949 A    
C7    H7    1.083816 S    
O4    Zn1   2.008690 S    
C45   C47   1.408307 A    
C8    H8    1.083663 S    
C55   H24   1.118743 S    
C40   N2    1.365131 A    
C5    C9    1.396368 A    
C3    C5    1.456550 S    
C4    C6    1.457561 S    
C39   H13   1.082799 S    
C65   H49   1.115364 S    
C41   C43   1.413995 A    
C32   C34   1.415496 A    
O12   C59   1.425075 S    
C21   H1    1.082156 S    
C43   C49   1.414346 A    
C13   C17   1.425508 A    
C58   H33   1.110649 S    
C34   C37   1.406095 A    
C6    C10   1.400970 A    
C29   C35   1.405351 A    
C39   C47   1.410352 A    
C62   H42   1.110618 S    
C17   C20   1.442850 A    
C23   C25   1.389585 A    
O2    C2    1.283409 A    
C24   C26   1.388587 A    
C48   C51   1.404557 A    
C57   H30   1.113670 S    
C26   C28   1.392204 A    
C28   C30   1.390943 A    
C27   C29   1.384806 A    
O16   C67   1.416763 S    
C36   C38   1.400273 A    
C19   O11   1.396208 S    
C61   C62   1.521897 S    
C66   H51   1.110596 S    
C53   H19   1.117480 S    
C58   H32   1.109002 S    
C52   H18   1.083556 S    
O10   C55   1.417601 S    
C38   O16   1.386548 S    
C51   H17   1.083610 S    
O6    Zn2   1.958674 S    
C31   C33   1.414846 A    
C55   C56   1.521848 S    
C43   C45   1.410618 A    
N2    C42   1.365687 A    
C50   O10   1.381764 S    
C57   C58   1.525754 S    
O5    C3    1.289786 A    
O7    Zn2   1.897503 S    
C64   H47   1.110622 S    
C9    H6    1.083057 S    
O7    C3    1.290570 A    
O9    C53   1.418261 S    
Zn1   N1    2.002778 S    
C5    C11   1.388580 A    
O6    C4    1.290866 A    
Zn2   N2    2.002779 S    
C55   H25   1.108848 S    
C40   C48   1.410676 A    
C60   H37   1.110408 S    
C67   H54   1.109654 S    
C25   C27   1.390044 A    
O3    Zn2   2.008687 S    
O8    C4    1.289851 A    
C63   C64   1.521642 S    
O4    C2    1.280170 A    
C1    C26   1.427009 S    
C37   O15   1.384115 S    
C2    C25   1.425222 S    
C11   C13   1.392499 A    
C12   C14   1.388993 A    
O1    Zn1   2.007049 S    
O15   C65   1.412430 S    
C17   C18   1.422213 A    
C63   H45   1.115920 S    
C62   H43   1.110225 S    
C66   H52   1.110578 S    
C27   H11   1.084907 S    
C6    C12   1.391321 A    
C60   H36   1.109538 S    
C28   H12   1.083479 S    
C40   H14   1.082702 S    
C14   C18   1.413542 A    
C14   C16   1.407225 A    
O3    C1    1.282552 A    
O8    Zn1   1.897506 S    
C62   H41   1.110374 S    
C56   H27   1.110531 S    
C53   C54   1.521522 S    
C42   H16   1.082054 S    
C59   C60   1.523729 S    
C7    C15   1.407591 A    
C54   H22   1.110358 S    
C64   H48   1.110126 S    
C23   H9    1.083655 S    
C19   C21   1.401444 A    
O11   C57   1.416042 S    
C20   C22   1.406639 A    
C10   H5    1.082961 S    
O13   C61   1.415824 S    
C59   H35   1.116769 S    
C65   C66   1.519893 S    
C30   C32   1.417122 A    
C57   H29   1.110711 S    
C7    C9    1.393292 A    
C61   H40   1.118475 S    
C60   H38   1.105100 S    
C8    C10   1.396244 A    
C13   C15   1.418000 A    
C45   C46   1.418859 A    
O2    Zn2   2.007051 S    
C35   O13   1.383852 S    
O5    Zn1   1.958674 S    
C65   H50   1.113167 S    
C31   C32   1.391531 A    
C54   H23   1.110364 S    
C24   C34   1.383799 A    
C58   H31   1.109028 S    
C44   C46   1.410376 A    
C53   H20   1.109853 S    
C46   C48   1.408092 A    
C23   C33   1.388770 A    
C64   H46   1.110500 S    
C22   H2    1.084465 S    
C63   H44   1.110603 S    
