data_mof_unit_47743.cif
_audit_creation_date              2012-12-10T17:09:56-0500
_audit_creation_method            fapswitch 2.2
_symmetry_space_group_name_H-M    P1
_symmetry_Int_Tables_number       1
_space_group_crystal_system       triclinic
_cell_length_a                    10.834978
_cell_length_b                    12.990199
_cell_length_c                    11.697668
_cell_angle_alpha                 100.819866
_cell_angle_beta                  92.733602
_cell_angle_gamma                 90.037044
_cell_volume                      1615.24208015

loop_
_atom_site_label
_atom_site_type_symbol
_atom_type_description
_atom_site_fract_x
_atom_site_fract_y
_atom_site_fract_z
_atom_type_partial_charge
C1    C     C_R   0.500647 0.299360 0.477871 0.794482
C2    C     C_R   0.064207 0.490032 0.607951 0.087171
C3    C     C_R   0.126906 0.512564 0.510447 -0.132021
C4    C     C_R   0.058037 0.526088 0.409867 -0.211371
C5    C     C_R   0.930613 0.516938 0.404497 -0.208715
C6    C     C_R   0.870952 0.482877 0.494213 -0.103851
C7    C     C_R   0.500807 0.815680 0.535691 -0.071049
C8    C     C_R   0.510338 0.186653 0.464966 -0.038259
C9    C     C_R   0.605385 0.024147 0.379218 -0.187247
C10   C     C_R   0.583891 0.130032 0.380663 -0.222288
C11   C     C_R   0.453913 0.136965 0.544473 -0.234968
C12   C     C_R   0.261864 0.506128 0.503265 0.798524
C13   C     C_R   0.471500 0.030508 0.541497 0.084451
C14   C     C_R   0.550687 0.972879 0.460635 0.158457
C15   C     C_R   0.572116 0.866049 0.463054 0.074615
C16   C     C_R   0.419234 0.874454 0.613422 0.124386
C17   C     C_R   0.409412 0.981862 0.618394 -0.209682
C18   C     C_R   0.403377 0.390794 0.017206 -0.332709
C19   C     C_R   0.408294 0.400709 0.139128 0.385560
C20   C     C_R   0.539960 0.550236 0.158317 -0.019461
C21   C     C_R   0.536040 0.541702 0.034982 0.063597
C22   C     C_R   0.467340 0.460151 0.964524 0.029679
C23   C     C_R   0.502247 0.701123 0.522140 0.828064
C24   C     C_R   0.463647 0.449166 0.841950 0.006715
C25   C     C_R   0.590769 0.599423 0.857113 0.088996
C26   C     C_R   0.598957 0.611785 0.979719 -0.324711
C27   C     C_R   0.737179 0.491935 0.497546 0.788160
C28   C     C_R   0.115321 0.501267 0.724234 0.196664
C29   C     C_R   0.064972 0.442855 0.800417 -0.169371
C30   C     C_R   0.955457 0.386661 0.768576 -0.190277
C31   C     C_R   0.890258 0.396811 0.665851 -0.155182
C32   C     C_R   0.940716 0.455303 0.588608 0.062974
Cu1   Cu    Cu3+1 0.509250 0.507730 0.615930 0.927786
Cu2   Cu    Cu3+1 0.490750 0.492270 0.384070 0.932840
H1    H     H_    0.102611 0.546136 0.335899 0.166978
H2    H     H_    0.628484 0.168624 0.318982 0.147703
H3    H     H_    0.395887 0.181616 0.608751 0.133218
H4    H     H_    0.638570 0.654485 0.815597 0.131796
H5    H     H_    0.653208 0.675905 0.030574 0.134658
H6    H     H_    0.594978 0.611578 0.212688 0.133863
H7    H     H_    0.915974 0.342415 0.827851 0.148291
H8    H     H_    0.801246 0.357917 0.646681 0.155651
H9    H     H_    0.878842 0.536596 0.330111 0.160697
H10   H     H_    0.664232 0.983419 0.313653 0.148353
N1    N     N_R   0.523180 0.519350 0.790130 -0.185584
N2    N     N_R   0.476820 0.480650 0.209890 -0.177353
O1    O     O_R   0.506570 0.354460 0.582000 -0.591406
O2    O     O_R   0.490940 0.341410 0.386200 -0.586026
O3    O     O_R   0.327470 0.506530 0.597920 -0.575032
O4    O     O_R   0.311840 0.493480 0.402120 -0.588992
O5    O     O_R   0.509060 0.658590 0.613800 -0.589549
O6    O     O_R   0.493430 0.645540 0.418000 -0.577361
O7    O     O_R   0.688160 0.506520 0.597880 -0.580325
O8    O     O_R   0.672530 0.493470 0.402080 -0.588855
H11   H     H_    0.347839 0.027167 0.678626 0.143305
H12   H     H_    0.409717 0.386582 0.787987 0.127943
H13   H     H_    0.350998 0.327222 0.962738 0.138205
C33   C     C_3   0.342131 0.315477 0.184401 -0.780075
H14   H     H_    0.271285 0.275500 0.119229 0.176598
H15   H     H_    0.408691 0.254182 0.199867 0.229361
H16   H     H_    0.290749 0.344902 0.262340 0.257485
C34   C     C_3   0.191379 0.595763 0.780115 -0.822552
H17   H     H_    0.141765 0.641656 0.853540 0.215537
H18   H     H_    0.281247 0.572701 0.815083 0.248078
H19   H     H_    0.205058 0.648282 0.718030 0.232520
H20   H     H_    0.105524 0.447262 0.887723 0.144059
C35   C     C_3   0.672998 0.808425 0.391615 -0.883638
H21   H     H_    0.759783 0.855558 0.407015 0.227430
H22   H     H_    0.696843 0.732113 0.415755 0.236592
H23   H     H_    0.644484 0.795441 0.297580 0.225223
C36   C     C_3   0.334073 0.823480 0.684589 -0.850030
H24   H     H_    0.271294 0.880673 0.734768 0.222728
H25   H     H_    0.275805 0.765262 0.624002 0.216482
H26   H     H_    0.387810 0.785488 0.748074 0.252062

loop_
_geom_bond_atom_site_label_1
_geom_bond_atom_site_label_2
_ccdc_geom_bond_type
C6    C32   A    
C21   C26   A    
C31   H8    S    
C1    C8    S    
Cu1   N1    S    
C12   O3    A    
C27   O8    A    
C34   H17   S    
C24   N1    A    
C28   C29   A    
C5    C6    A    
C20   H6    S    
C26   H5    S    
C16   C17   A    
C33   H15   S    
C2    C32   A    
C18   C19   A    
C11   H3    S    
C34   H18   S    
C3    C12   S    
C31   C32   A    
C12   O4    A    
C30   H7    S    
Cu2   N2    S    
C9    C10   A    
C17   H11   S    
C33   H16   S    
C7    C15   A    
C5    H9    S    
C4    H1    S    
C13   C14   A    
C16   C36   S    
C19   C33   S    
Cu1   O7    S    
C19   N2    A    
Cu2   O4    S    
C35   H21   S    
C36   H25   S    
C1    O1    A    
C25   C26   A    
C35   H22   S    
C9    C14   A    
C29   C30   A    
C25   H4    S    
C18   H13   S    
C23   O5    A    
C6    C27   S    
C15   C35   S    
Cu1   Cu2   S    
C7    C16   A    
Cu2   O8    S    
Cu1   O1    S    
C22   C24   A    
C24   H12   S    
C3    C4    A    
C25   N1    A    
C9    H10   S    
C34   H19   S    
C18   C22   A    
C4    C5    A    
C36   H26   S    
C2    C28   A    
C27   O7    A    
C1    O2    A    
Cu1   O5    S    
Cu2   O6    S    
C13   C17   A    
C35   H23   S    
C2    C3    A    
C33   H14   S    
C36   H24   S    
C11   C13   A    
C23   O6    A    
C30   C31   A    
C8    C11   A    
C7    C23   S    
C29   H20   S    
Cu2   O2    S    
C20   C21   A    
C8    C10   A    
C14   C15   A    
C10   H2    S    
C21   C22   A    
Cu1   O3    S    
C20   N2    A    
C28   C34   S    
