data_mof_unit_60805.cif
_audit_creation_date              2013-03-05T15:42:05-0500
_audit_creation_method            fapswitch 2.2
_symmetry_space_group_name_H-M    P1
_symmetry_Int_Tables_number       1
_space_group_crystal_system       triclinic
_cell_length_a                    21.748313
_cell_length_b                    21.74805
_cell_length_c                    47.152539
_cell_angle_alpha                 90.683731
_cell_angle_beta                  91.184488
_cell_angle_gamma                 89.993986
_cell_volume                      22296.0146518

loop_
_atom_site_label
_atom_site_type_symbol
_atom_site_description
_atom_site_fract_x
_atom_site_fract_y
_atom_site_fract_z
_atom_type_partial_charge
O1    O     O_R   0.999970 0.909590 0.023670 -0.600338
O2    O     O_R   0.090410 0.999970 0.023670 -0.586356
O3    O     O_R   0.000030 0.090410 0.023670 -0.563844
O4    O     O_R   0.909590 0.000030 0.023670 -0.579523
O5    O     O_R   0.499970 0.409590 0.523670 -0.600343
O6    O     O_R   0.590410 0.499970 0.523670 -0.586367
O7    O     O_R   0.500030 0.590410 0.523670 -0.563812
O8    O     O_R   0.409590 0.500030 0.523670 -0.579570
O9    O     O_R   1.000000 0.909590 0.976330 -0.563916
O10   O     O_R   0.090410 0.000000 0.976330 -0.579662
O11   O     O_R   0.000000 0.090410 0.976330 -0.600391
O12   O     O_R   0.909590 0.000000 0.976330 -0.586242
O13   O     O_R   0.500000 0.409590 0.476330 -0.563889
O14   O     O_R   0.590410 0.500000 0.476330 -0.579700
O15   O     O_R   0.500000 0.590410 0.476330 -0.600384
O16   O     O_R   0.409590 0.500000 0.476330 -0.586260
C1    C     C_R   0.997129 0.881040 0.999682 0.859056
C2    C     C_R   0.118958 0.997151 0.000384 0.861965
C3    C     C_R   0.002866 0.118960 0.000317 0.859443
C4    C     C_R   0.881042 0.002850 0.999616 0.861882
C5    C     C_R   0.497128 0.381040 0.499682 0.859068
C6    C     C_R   0.618958 0.497154 0.500384 0.861993
C7    C     C_R   0.502868 0.618960 0.500317 0.859447
C8    C     C_R   0.381042 0.502845 0.499615 0.861942
Zn1   Zn    Zn3+2 0.000000 0.000000 0.031610 1.134459
Zn2   Zn    Zn3+2 0.500000 0.500000 0.531610 1.134462
Zn3   Zn    Zn3+2 0.000000 0.000000 0.968400 1.134397
Zn4   Zn    Zn3+2 0.500000 0.500000 0.468400 1.134411
C9    C     C_2   0.717205 0.045366 0.015472 -0.183776
C10   C     C_2   0.955585 0.716877 0.015542 -0.181798
C11   C     C_2   0.282794 0.954638 0.984526 -0.183593
C12   C     C_2   0.044427 0.283119 0.984467 -0.181096
C13   C     C_2   0.217206 0.545386 0.515458 -0.183765
C14   C     C_2   0.455588 0.216877 0.515544 -0.181801
C15   C     C_2   0.782792 0.454624 0.484536 -0.183584
C16   C     C_2   0.544418 0.783120 0.484461 -0.181091
C17   C     C_2   0.684751 0.997591 0.005306 -0.307512
C18   C     C_2   0.002774 0.684615 0.005488 -0.309135
C19   C     C_2   0.315249 0.002411 0.994694 -0.309763
C20   C     C_2   0.997225 0.315385 0.994506 -0.311391
C21   C     C_2   0.184750 0.497593 0.505313 -0.307555
C22   C     C_2   0.502775 0.184615 0.505487 -0.309119
C23   C     C_2   0.815250 0.502409 0.494689 -0.309789
C24   C     C_2   0.497224 0.815385 0.494509 -0.311357
H1    H     H_    0.694857 0.087250 0.022659 0.184616
H2    H     H_    0.914068 0.694397 0.022561 0.184374
H3    H     H_    0.305139 0.912753 0.977340 0.186533
H4    H     H_    0.085960 0.305595 0.977464 0.186554
H5    H     H_    0.194862 0.587288 0.522626 0.184651
H6    H     H_    0.414075 0.194397 0.522566 0.184370
H7    H     H_    0.805136 0.412726 0.477363 0.186548
H8    H     H_    0.585943 0.805597 0.477451 0.186534
H9    H     H_    0.706867 0.953582 0.001269 0.197052
H10   H     H_    0.046584 0.706790 0.001622 0.196477
H11   H     H_    0.293134 0.046421 0.998731 0.197655
H12   H     H_    0.953407 0.293214 0.998358 0.197186
H13   H     H_    0.206864 0.453575 0.501293 0.197078
H14   H     H_    0.546582 0.206790 0.501618 0.196479
H15   H     H_    0.793136 0.546426 0.498714 0.197668
H16   H     H_    0.453410 0.793213 0.498368 0.197182
C25   C     C_2   0.784021 0.039861 0.018156 0.514008
C26   C     C_2   0.961208 0.783664 0.018235 0.502134
C27   C     C_2   0.215978 0.960148 0.981841 0.513406
C28   C     C_2   0.038802 0.216334 0.981772 0.501752
C29   C     C_2   0.284023 0.539885 0.518142 0.513960
C30   C     C_2   0.461212 0.283663 0.518237 0.502130
C31   C     C_2   0.715977 0.460131 0.481851 0.513374
C32   C     C_2   0.538791 0.716335 0.481766 0.501761
C33   C     C_2   0.815336 0.010742 0.997766 0.309179
C34   C     C_2   0.989214 0.815333 0.997931 0.316806
C35   C     C_2   0.184663 0.989261 0.002232 0.308424
C36   C     C_2   0.010765 0.184668 0.002068 0.316175
C37   C     C_2   0.315335 0.510720 0.497766 0.309207
C38   C     C_2   0.489210 0.315333 0.497931 0.316822
C39   C     C_2   0.684664 0.489277 0.502232 0.308449
C40   C     C_2   0.510774 0.684667 0.502068 0.316182
O17   O     O_R   0.500030 0.051130 0.958080 -0.619845
O18   O     O_R   0.948870 0.500030 0.958080 -0.620837
O19   O     O_R   0.499970 0.948870 0.958080 -0.622954
O20   O     O_R   0.051130 0.499970 0.958080 -0.622196
O21   O     O_R   0.000030 0.551130 0.458080 -0.619859
O22   O     O_R   0.448870 0.000030 0.458080 -0.620874
O23   O     O_R   0.999970 0.448870 0.458080 -0.622955
O24   O     O_R   0.551130 0.999970 0.458080 -0.622224
C41   C     C_R   0.500021 0.999651 0.944514 0.883030
C42   C     C_R   0.999422 0.500056 0.944513 0.882798
C43   C     C_R   0.000021 0.499651 0.444514 0.883041
C44   C     C_R   0.499422 0.000055 0.444512 0.882841
O25   O     O_R   0.590470 0.051110 0.000000 -0.612614
O26   O     O_R   0.948890 0.590470 0.000000 -0.612635
O27   O     O_R   0.409530 0.948890 0.000000 -0.613350
O28   O     O_R   0.051110 0.409530 0.000000 -0.613041
O29   O     O_R   0.090470 0.551110 0.500000 -0.612629
O30   O     O_R   0.448890 0.090470 0.500000 -0.612639
O31   O     O_R   0.909530 0.448890 0.500000 -0.613354
O32   O     O_R   0.551110 0.909530 0.500000 -0.613041
O33   O     O_R   0.590450 0.948970 0.000000 -0.616251
O34   O     O_R   0.051030 0.590450 0.000000 -0.616544
O35   O     O_R   0.409550 0.051030 0.000000 -0.615877
O36   O     O_R   0.948970 0.409550 0.000000 -0.615903
O37   O     O_R   0.090450 0.448970 0.500000 -0.616246
O38   O     O_R   0.551030 0.090450 0.500000 -0.616529
O39   O     O_R   0.909550 0.551030 0.500000 -0.615877
O40   O     O_R   0.448970 0.909550 0.500000 -0.615896
C45   C     C_R   0.619084 0.999825 0.001377 0.954895
C46   C     C_R   0.000267 0.619052 0.001418 0.956032
C47   C     C_R   0.380915 0.000176 0.998623 0.955027
C48   C     C_R   0.999733 0.380948 0.998581 0.956705
C49   C     C_R   0.119084 0.499825 0.501378 0.954934
C50   C     C_R   0.500267 0.119052 0.501418 0.956055
C51   C     C_R   0.880915 0.500175 0.498622 0.955065
C52   C     C_R   0.499733 0.880948 0.498581 0.956715
Zn5   Zn    Zn3+2 0.500010 0.068250 0.000000 0.999649
Zn6   Zn    Zn3+2 0.931750 0.500010 0.000000 0.999936
Zn7   Zn    Zn3+2 0.499990 0.931750 0.000000 0.998401
Zn8   Zn    Zn3+2 0.068250 0.499990 0.000000 0.998489
Zn9   Zn    Zn3+2 0.000010 0.568250 0.500000 0.999616
Zn10  Zn    Zn3+2 0.431750 0.000010 0.500000 0.999907
Zn11  Zn    Zn3+2 0.999990 0.431750 0.500000 0.998379
Zn12  Zn    Zn3+2 0.568250 0.999990 0.500000 0.998470
O41   O     O_R   0.499980 0.051120 0.041920 -0.621750
O42   O     O_R   0.948880 0.499980 0.041920 -0.620769
O43   O     O_R   0.500020 0.948880 0.041920 -0.620918
O44   O     O_R   0.051120 0.500020 0.041920 -0.622080
O45   O     O_R   0.999980 0.551120 0.541920 -0.621773
O46   O     O_R   0.448880 0.999980 0.541920 -0.620781
O47   O     O_R   0.000020 0.448880 0.541920 -0.620945
O48   O     O_R   0.551120 0.000020 0.541920 -0.622085
C53   C     C_R   0.499936 0.000326 0.055484 0.883158
C54   C     C_R   0.000591 0.500023 0.055490 0.882882
C55   C     C_R   0.999937 0.500326 0.555485 0.883190
C56   C     C_R   0.500591 0.000022 0.555490 0.882893
C57   C     C_R   0.966937 0.457136 0.189814 0.511268
C58   C     C_R   0.537189 0.963308 0.190657 0.510007
C59   C     C_R   0.043479 0.536100 0.191155 0.509858
C60   C     C_R   0.458627 0.040244 0.190252 0.511007
C61   C     C_R   0.466973 0.957105 0.689815 0.511266
C62   C     C_R   0.037344 0.463464 0.690661 0.510005
C63   C     C_R   0.543449 0.036132 0.691155 0.509858
C64   C     C_R   0.958493 0.540103 0.690251 0.511003
N1    N     N_R   0.005011 0.496960 0.176292 -0.357276
N2    N     N_R   0.498120 0.001924 0.176265 -0.357269
N3    N     N_R   0.505014 0.996960 0.676293 -0.357277
N4    N     N_R   0.998130 0.501931 0.676267 -0.357285
C65   C     C_R   0.044791 0.536076 0.220867 -0.016897
C66   C     C_R   0.457663 0.040999 0.219951 -0.018221
C67   C     C_R   0.965807 0.456325 0.219491 -0.018944
C68   C     C_R   0.536988 0.961608 0.220329 -0.017549
C69   C     C_R   0.544761 0.036109 0.720867 -0.016897
C70   C     C_R   0.957523 0.540855 0.719950 -0.018230
C71   C     C_R   0.465843 0.956293 0.719491 -0.018944
C72   C     C_R   0.037153 0.461769 0.720333 -0.017562
C73   C     C_R   0.005225 0.496106 0.235082 -0.018598
C74   C     C_R   0.497010 0.001036 0.235038 -0.018615
C75   C     C_R   0.505229 0.996107 0.735082 -0.018599
C76   C     C_R   0.997023 0.501045 0.735039 -0.018614
C77   C     C_R   0.084260 0.575236 0.236621 -0.147644
C78   C     C_R   0.418259 0.080425 0.234841 -0.146701
C79   C     C_R   0.926267 0.416892 0.233867 -0.146337
C80   C     C_R   0.575744 0.921614 0.235559 -0.147366
C81   C     C_R   0.584198 0.075302 0.736621 -0.147645
C82   C     C_R   0.917966 0.580128 0.734836 -0.146700
C83   C     C_R   0.426336 0.916827 0.733868 -0.146337
C84   C     C_R   0.076064 0.421927 0.735566 -0.147369
C85   C     C_R   0.584314 0.074848 0.766181 -0.147554
C86   C     C_R   0.917791 0.580028 0.764401 -0.146615
C87   C     C_R   0.425628 0.917198 0.763421 -0.146497
C88   C     C_R   0.075058 0.421002 0.765100 -0.147363
C89   C     C_R   0.084376 0.574782 0.266181 -0.147553
C90   C     C_R   0.418087 0.080325 0.264405 -0.146609
C91   C     C_R   0.925560 0.417262 0.263420 -0.146497
C92   C     C_R   0.574734 0.920688 0.265092 -0.147370
C93   C     C_R   0.544671 0.035518 0.780560 -0.017930
C94   C     C_R   0.956854 0.540339 0.779645 -0.018475
C95   C     C_R   0.464749 0.956708 0.779171 -0.017888
C96   C     C_R   0.035471 0.460246 0.779977 -0.017392
C97   C     C_R   0.044700 0.535485 0.280559 -0.017933
C98   C     C_R   0.456995 0.040484 0.279647 -0.018480
C99   C     C_R   0.964714 0.456739 0.279170 -0.017891
C100  C     C_R   0.535301 0.960085 0.279973 -0.017396
C101  C     C_R   0.504931 0.996064 0.764963 -0.018585
C102  C     C_R   0.996429 0.500529 0.764912 -0.018597
C103  C     C_R   0.004927 0.496063 0.264963 -0.018585
C104  C     C_R   0.496415 0.000520 0.264911 -0.018596
C105  C     C_R   0.543656 0.034575 0.810241 0.510770
C106  C     C_R   0.957718 0.539629 0.809354 0.511738
C107  C     C_R   0.464522 0.958207 0.808870 0.510139
C108  C     C_R   0.033894 0.460332 0.809647 0.509160
C109  C     C_R   0.043684 0.534542 0.310241 0.510768
C110  C     C_R   0.457859 0.039770 0.309356 0.511735
C111  C     C_R   0.964489 0.458238 0.308870 0.510136
C112  C     C_R   0.533726 0.960175 0.309642 0.509151
N5    N     N_R   0.503699 0.996622 0.823745 -0.357295
N6    N     N_R   0.995782 0.499961 0.823692 -0.357349
N7    N     N_R   0.003696 0.496622 0.323745 -0.357298
N8    N     N_R   0.495770 0.999953 0.323690 -0.357359
O49   O     O_2   0.930586 0.418196 0.174558 -0.542220
O50   O     O_2   0.576429 0.927029 0.176274 -0.546378
O51   O     O_2   0.079791 0.575393 0.177205 -0.548468
O52   O     O_2   0.420005 0.077006 0.175440 -0.544588
O53   O     O_2   0.430655 0.918134 0.674559 -0.542215
O54   O     O_2   0.076715 0.427328 0.676280 -0.546346
O55   O     O_2   0.579728 0.075455 0.677205 -0.548466
O56   O     O_2   0.919737 0.576721 0.675435 -0.544549
H17   H     H_    0.115183 0.606313 0.226181 0.196968
H18   H     H_    0.387596 0.111597 0.223722 0.197586
H19   H     H_    0.895520 0.385886 0.222350 0.198135
H20   H     H_    0.606828 0.890797 0.224726 0.197495
H21   H     H_    0.615095 0.106405 0.726181 0.196968
H22   H     H_    0.887182 0.611181 0.723715 0.197589
H23   H     H_    0.395615 0.885795 0.722351 0.198137
H24   H     H_    0.107267 0.391231 0.724735 0.197499
H25   H     H_    0.615300 0.105613 0.777701 0.197148
H26   H     H_    0.886902 0.611031 0.775242 0.197596
H27   H     H_    0.394397 0.886428 0.773857 0.197933
H28   H     H_    0.105553 0.389656 0.776210 0.197565
H29   H     H_    0.115386 0.605521 0.277701 0.197150
H30   H     H_    0.387319 0.111448 0.275249 0.197602
H31   H     H_    0.894303 0.386518 0.273857 0.197934
H32   H     H_    0.605106 0.889222 0.276201 0.197570
O57   O     O_2   0.582565 0.070937 0.825517 -0.545193
O58   O     O_2   0.921374 0.578717 0.823827 -0.544024
O59   O     O_2   0.425029 0.922085 0.822794 -0.545469
O60   O     O_2   0.069848 0.420874 0.824376 -0.546302
O61   O     O_2   0.082621 0.570874 0.325517 -0.545185
O62   O     O_2   0.421669 0.079000 0.323832 -0.543992
O63   O     O_2   0.924968 0.422147 0.322793 -0.545461
O64   O     O_2   0.569527 0.920576 0.324369 -0.546284
C113  C     C_R   0.517383 0.944071 0.869226 -0.084725
C114  C     C_R   0.050433 0.515751 0.869216 -0.085469
C115  C     C_R   0.486814 0.051313 0.868750 -0.086515
C116  C     C_R   0.943146 0.485247 0.868700 -0.085808
C117  C     C_R   0.017347 0.444061 0.369225 -0.084733
C118  C     C_R   0.550484 0.015544 0.369212 -0.085494
C119  C     C_R   0.986847 0.551323 0.368751 -0.086530
C120  C     C_R   0.443086 0.985436 0.368700 -0.085842
H33   H     H_    0.530020 0.902285 0.858069 0.155427
H34   H     H_    0.091637 0.527931 0.858060 0.154983
H35   H     H_    0.474960 0.092546 0.857206 0.154329
H36   H     H_    0.901297 0.472995 0.857138 0.154594
H37   H     H_    0.029957 0.402267 0.358067 0.155416
H38   H     H_    0.591731 0.027569 0.358054 0.154958
H39   H     H_    0.975020 0.592564 0.357207 0.154316
H40   H     H_    0.401191 0.973339 0.357140 0.154578
C121  C     C_R   0.516007 0.944646 0.898725 -0.194492
C122  C     C_R   0.051493 0.515348 0.898721 -0.192498
C123  C     C_R   0.486174 0.052196 0.898264 -0.199302
C124  C     C_R   0.943901 0.485576 0.898239 -0.201291
C125  C     C_R   0.015973 0.444637 0.398725 -0.194489
C126  C     C_R   0.551545 0.015147 0.398716 -0.192526
C127  C     C_R   0.986207 0.552205 0.398264 -0.199305
C128  C     C_R   0.443846 0.985763 0.398239 -0.201244
C129  C     C_R   0.500627 0.998803 0.913449 -0.044937
C130  C     C_R   0.998200 0.500344 0.913440 -0.044821
C131  C     C_R   0.000627 0.498803 0.413449 -0.044943
C132  C     C_R   0.498200 0.000339 0.413439 -0.044865
C133  C     C_R   0.502651 0.997338 0.854123 0.296428
C134  C     C_R   0.996387 0.500403 0.854086 0.296537
C135  C     C_R   0.002649 0.497337 0.354123 0.296445
C136  C     C_R   0.496381 0.000394 0.354084 0.296576
C137  C     C_R   0.057179 0.483161 0.130967 -0.084819
C138  C     C_R   0.514144 0.055132 0.131361 -0.083719
C139  C     C_R   0.950018 0.514034 0.131110 -0.086047
C140  C     C_R   0.482753 0.948103 0.130656 -0.087241
C141  C     C_R   0.557192 0.983203 0.630967 -0.084825
C142  C     C_R   0.013996 0.555179 0.631362 -0.083761
C143  C     C_R   0.450007 0.013991 0.631111 -0.086056
C144  C     C_R   0.982917 0.448060 0.630662 -0.087278
C145  C     C_R   0.056253 0.484332 0.101447 -0.195863
C146  C     C_R   0.514325 0.054877 0.101831 -0.199475
C147  C     C_R   0.948784 0.514473 0.101596 -0.197709
C148  C     C_R   0.483678 0.947533 0.101163 -0.194185
C149  C     C_R   0.556265 0.984374 0.601448 -0.195868
C150  C     C_R   0.014178 0.554921 0.601831 -0.199428
C151  C     C_R   0.448773 0.014430 0.601596 -0.197704
C152  C     C_R   0.983836 0.447490 0.601169 -0.194198
H41   H     H_    0.097723 0.472486 0.090289 0.170542
H42   H     H_    0.526818 0.096545 0.090994 0.169112
H43   H     H_    0.906467 0.526823 0.090568 0.169242
H44   H     H_    0.471573 0.905520 0.089815 0.170477
H45   H     H_    0.597745 0.972561 0.590290 0.170546
H46   H     H_    0.026549 0.596625 0.590993 0.169146
H47   H     H_    0.406445 0.026747 0.590569 0.169251
H48   H     H_    0.971852 0.405440 0.589824 0.170494
C153  C     C_R   0.001935 0.499708 0.086562 -0.045013
C154  C     C_R   0.499350 0.000961 0.086544 -0.044795
C155  C     C_R   0.501936 0.999708 0.586563 -0.045020
C156  C     C_R   0.999355 0.500962 0.586546 -0.044832
C157  C     C_R   0.004102 0.498088 0.145908 0.296248
C158  C     C_R   0.498253 0.001782 0.145877 0.296230
C159  C     C_R   0.504104 0.998087 0.645908 0.296262
C160  C     C_R   0.998262 0.501785 0.645880 0.296313
F1    F     F_    0.813353 0.066618 0.040890 -0.636498
F2    F     F_    0.935585 0.812594 0.040845 -0.646928
F3    F     F_    0.186646 0.933401 0.959104 -0.635976
F4    F     F_    0.064464 0.187399 0.959173 -0.645924
F5    F     F_    0.313360 0.566703 0.540860 -0.636513
F6    F     F_    0.435599 0.312593 0.540851 -0.646925
F7    F     F_    0.686641 0.433341 0.459125 -0.635988
F8    F     F_    0.564428 0.687402 0.459160 -0.645912
F9    F     F_    0.787213 0.994263 0.972689 -0.659291
F10   F     F_    0.004472 0.787563 0.972954 -0.649710
F11   F     F_    0.212786 0.005728 0.027311 -0.659180
F12   F     F_    0.995469 0.212439 0.027039 -0.649195
F13   F     F_    0.287210 0.494181 0.472697 -0.659299
F14   F     F_    0.504458 0.287564 0.472952 -0.649679
F15   F     F_    0.712789 0.505787 0.527305 -0.659175
F16   F     F_    0.495504 0.712438 0.527043 -0.649173
H49   H     H_    0.527656 0.902999 0.909998 0.170818
H50   H     H_    0.093803 0.527271 0.909993 0.171434
H51   H     H_    0.473874 0.094407 0.909167 0.169247
H52   H     H_    0.902320 0.473598 0.909153 0.168584
H53   H     H_    0.027595 0.402981 0.409997 0.170823
H54   H     H_    0.593901 0.026915 0.409986 0.171455
H55   H     H_    0.973934 0.594424 0.409167 0.169250
H56   H     H_    0.402221 0.973942 0.409153 0.168635
H57   H     H_    0.099053 0.470456 0.142260 0.155499
H58   H     H_    0.526540 0.096690 0.142996 0.155533
H59   H     H_    0.908940 0.526053 0.142527 0.154369
H60   H     H_    0.470019 0.906818 0.141729 0.154334
H61   H     H_    0.599076 0.970532 0.642260 0.155492
H62   H     H_    0.026270 0.596775 0.642995 0.155482
H63   H     H_    0.408920 0.025976 0.642527 0.154363
H64   H     H_    0.970307 0.406739 0.641738 0.154283

loop_
_geom_bond_atom_site_label_1
_geom_bond_atom_site_label_2
_geom_bond_distance
_ccdc_geom_bond_type
O8    Zn2   1.993976 S    
O23   C43   1.282859 A    
C14   C22   1.335031 D    
C28   C36   1.342330 D    
C151  C155  1.403638 A    
C22   H14   1.087645 S    
C117  C135  1.400699 A    
C123  H51   1.083042 S    
C96   C102  1.408129 A    
C124  H52   1.083026 S    
C143  C151  1.391530 A    
C23   C51   1.437195 S    
C90   C98   1.404594 A    
C59   O51   1.349658 S    
C121  H49   1.083038 S    
O21   Zn9   2.007038 S    
C10   C18   1.335032 D    
C68   C80   1.404424 A    
O23   Zn11  2.015753 S    
O20   C42   1.282246 A    
C77   C89   1.393965 A    
O22   C44   1.283404 A    
C72   C76   1.408144 A    
C29   F5    1.360765 S    
C99   C111  1.400502 A    
C150  H46   1.083037 S    
O3    C3    1.273186 A    
C71   C75   1.408121 A    
C144  C160  1.400581 A    
C114  C122  1.391063 A    
O33   C45   1.269649 A    
C147  H43   1.083059 S    
C105  O57   1.349681 S    
C107  N5    1.370156 A    
C118  C126  1.391057 A    
O39   Zn9   2.002721 S    
C146  C154  1.403826 A    
O17   Zn5   2.007038 S    
C96   C108  1.400100 A    
O25   Zn5   2.002317 S    
C86   C94   1.404590 A    
Zn7   O43   2.007049 S    
O12   Zn3   2.009083 S    
O27   C47   1.278841 A    
C84   C88   1.393593 A    
C77   H17   1.083102 S    
C82   H22   1.083098 S    
O31   Zn11  2.002317 S    
C121  C129  1.403956 A    
C9    H1    1.086355 S    
C118  C136  1.400599 A    
C65   C77   1.404517 A    
C66   C74   1.408246 A    
O11   Zn3   1.997090 S    
O12   C4    1.273356 A    
C27   F3    1.360757 S    
C80   C92   1.393583 A    
O44   C54   1.283001 A    
C28   F4    1.360712 S    
O28   Zn8   2.002372 S    
C119  H39   1.082912 S    
C24   C52   1.437349 S    
C27   C35   1.342243 D    
C125  C131  1.403959 A    
C15   H7    1.086348 S    
C149  C155  1.403990 A    
C16   C24   1.335029 D    
C150  C156  1.403845 A    
O22   Zn10  2.018955 S    
C113  H33   1.082910 S    
O19   C41   1.282857 A    
C2    C35   1.440210 S    
C57   O49   1.349716 S    
C115  C123  1.391882 A    
O24   C44   1.282262 A    
C16   C32   1.461418 S    
C79   H19   1.083105 S    
O34   C46   1.269714 A    
C69   C75   1.408265 A    
C149  H45   1.083035 S    
C62   O54   1.349746 S    
C146  H42   1.083045 S    
C84   H24   1.083109 S    
C26   F2    1.360704 S    
O26   Zn6   2.002372 S    
C67   C73   1.408123 A    
O47   C55   1.282160 A    
C60   O52   1.349636 S    
O4    C4    1.283833 A    
O5    C5    1.284144 A    
C128  H56   1.083025 S    
C141  C159  1.400803 A    
O20   Zn8   2.003818 S    
C13   H5    1.086354 S    
C60   C66   1.400855 A    
C100  C104  1.408137 A    
C40   F16   1.364204 S    
O10   Zn3   1.993894 S    
O19   Zn7   2.015753 S    
C87   H27   1.083105 S    
C7    C40   1.440516 S    
C37   F13   1.364108 S    
C94   C102  1.408265 A    
O4    Zn1   1.993976 S    
C115  C133  1.400958 A    
C26   C34   1.342346 D    
O7    Zn2   2.005953 S    
C33   F9    1.364101 S    
C142  C150  1.392470 A    
C64   O56   1.349627 S    
C85   H25   1.083099 S    
C126  H54   1.083057 S    
C30   C38   1.342344 D    
C63   N3    1.370131 A    
O28   C48   1.278838 A    
C57   C67   1.400372 A    
O46   C56   1.282347 A    
C151  H47   1.083055 S    
C137  C145  1.392167 A    
C92   H32   1.083115 S    
C23   H15   1.087664 S    
C95   C101  1.408230 A    
C113  C121  1.391804 A    
C139  C147  1.391525 A    
O17   C41   1.282781 A    
C148  H44   1.083064 S    
C21   C49   1.437192 S    
C139  C157  1.400852 A    
C91   C99   1.404469 A    
O29   Zn9   2.002317 S    
C120  C128  1.392524 A    
C89   C97   1.404552 A    
C143  H63   1.082925 S    
C122  H50   1.083054 S    
C126  C132  1.403695 A    
C9    C25   1.461049 S    
O36   C48   1.269716 A    
C11   C27   1.461044 S    
O36   Zn6   2.002621 S    
C12   C28   1.461416 S    
O40   C52   1.269711 A    
C76   C102  1.409088 A    
C78   C90   1.394142 A    
C152  H48   1.083060 S    
C20   H12   1.087647 S    
C30   F6    1.360710 S    
C116  C124  1.392534 A    
C17   C45   1.437186 S    
C80   H20   1.083109 S    
O45   C55   1.283079 A    
C15   C31   1.461046 S    
C144  C152  1.391134 A    
C145  H41   1.083036 S    
C118  H38   1.082943 S    
C141  C149  1.392166 A    
C140  H60   1.082934 S    
C31   C39   1.342235 D    
C123  C129  1.403687 A    
C87   C95   1.404470 A    
O9    C1    1.273212 A    
C88   C96   1.404404 A    
C31   F7    1.360759 S    
C110  O62   1.349623 S    
C106  N6    1.370124 A    
C142  C160  1.401042 A    
C75   C101  1.409130 A    
C66   C78   1.404588 A    
C42   C130  1.464923 S    
O33   Zn7   2.002721 S    
O1    C1    1.284143 A    
C88   H28   1.083108 S    
C22   C50   1.437342 S    
O30   C50   1.278840 A    
C62   N4    1.370157 A    
O30   Zn10  2.002372 S    
O6    Zn2   2.009177 S    
C61   O53   1.349713 S    
O7    C7    1.273189 A    
O8    C8    1.283834 A    
C111  N7    1.370156 A    
C95   C107  1.400499 A    
C59   N1    1.370140 A    
Zn5   O41   2.015813 S    
O25   C45   1.278836 A    
C11   H3    1.086349 S    
Zn9   O45   2.015813 S    
C91   H31   1.083105 S    
O29   C49   1.278833 A    
Zn11  O47   2.007049 S    
N2    C158  1.432901 S    
C89   H29   1.083100 S    
C12   H4    1.086339 S    
C117  C125  1.391812 A    
N4    C160  1.432876 S    
C144  H64   1.082936 S    
O11   C3    1.284135 A    
C79   C91   1.393814 A    
C112  N8    1.370166 A    
O10   C2    1.283838 A    
C35   F11   1.364103 S    
C36   F12   1.364205 S    
C55   C156  1.464836 S    
C98   C110  1.400878 A    
C8    C37   1.440198 S    
C56   C155  1.464965 S    
N7    C135  1.432969 S    
O37   C49   1.269656 A    
O6    C6    1.273344 A    
O39   C51   1.269652 A    
C60   N2    1.370164 A    
C82   C86   1.394143 A    
C19   H11   1.087664 S    
C59   C65   1.400703 A    
C137  C157  1.400808 A    
N5    C133  1.432970 S    
O13   Zn4   2.005859 S    
C38   F14   1.364205 S    
C20   C48   1.437352 S    
C92   C100  1.404398 A    
C43   C131  1.465026 S    
C106  O58   1.349617 S    
C93   C101  1.408150 A    
C140  C148  1.391124 A    
C116  C134  1.400972 A    
C34   F10   1.364204 S    
C14   C30   1.461419 S    
O18   Zn6   2.018955 S    
C68   C74   1.408139 A    
C10   H2    1.086342 S    
O40   Zn10  2.002621 S    
C70   C82   1.404590 A    
C78   H18   1.083104 S    
O3    Zn1   2.005953 S    
O26   C46   1.278837 A    
C120  H40   1.082883 S    
C122  C130  1.403677 A    
C62   C72   1.400132 A    
C97   C103  1.408147 A    
C81   H21   1.083101 S    
C63   C69   1.400703 A    
C58   N2    1.370177 A    
C39   F15   1.364103 S    
C109  N7    1.370213 A    
C127  C131  1.403692 A    
C18   H10   1.087642 S    
O24   Zn12  2.003818 S    
C93   C105  1.400578 A    
C137  H57   1.082893 S    
C139  H59   1.082926 S    
O21   C43   1.282784 A    
C25   F1    1.360752 S    
C10   C26   1.461420 S    
C81   C85   1.393970 A    
O38   C50   1.269712 A    
C69   C81   1.404518 A    
O38   Zn12  2.002621 S    
O9    Zn3   2.005859 S    
C152  C156  1.403731 A    
Zn8   O44   2.018983 S    
C64   N4    1.370150 A    
O41   C53   1.283064 A    
O35   Zn5   2.002721 S    
Zn12  O48   2.018983 S    
O35   C47   1.269646 A    
C57   N1    1.370210 A    
C13   C21   1.334844 D    
C32   F8    1.360707 S    
C143  C159  1.400849 A    
C21   H13   1.087665 S    
C63   O55   1.349652 S    
O14   C6    1.283842 A    
O15   Zn4   1.997090 S    
C24   H16   1.087647 S    
O27   Zn7   2.002317 S    
O2    Zn1   2.009177 S    
C141  H61   1.082892 S    
O5    Zn2   1.997173 S    
C119  C135  1.400954 A    
C9    C17   1.334835 D    
C85   C93   1.404547 A    
C113  C133  1.400704 A    
O16   Zn4   2.009083 S    
O2    C2    1.273355 A    
C119  C127  1.391882 A    
C67   C79   1.404500 A    
C13   C29   1.461052 S    
C44   C132  1.464959 S    
C19   C47   1.437189 S    
O32   C52   1.278842 A    
C107  O59   1.349690 S    
C145  C153  1.403983 A    
C53   C154  1.464767 S    
C124  C130  1.403958 A    
C138  C146  1.392465 A    
C148  C154  1.403711 A    
C29   C37   1.342247 D    
C115  H35   1.082913 S    
N8    C136  1.432840 S    
C117  H37   1.082907 S    
C73   C103  1.409135 A    
C74   C104  1.409089 A    
C110  N8    1.370139 A    
C128  C132  1.403977 A    
C65   C73   1.408265 A    
O18   C42   1.283387 A    
O15   C7    1.284136 A    
C61   N3    1.370201 A    
C108  N6    1.370160 A    
C1    C34   1.440537 S    
O16   C8    1.273342 A    
C70   C76   1.408238 A    
O43   C53   1.282147 A    
O1    Zn1   1.997173 S    
C3    C36   1.440509 S    
C6    C39   1.440190 S    
C54   C153  1.464951 S    
O48   C56   1.283005 A    
C147  C153  1.403635 A    
C99   C103  1.408231 A    
C142  H62   1.082886 S    
C127  H55   1.083045 S    
C14   H6    1.086341 S    
C97   C109  1.400579 A    
O13   C5    1.273213 A    
O37   Zn11  2.002721 S    
C114  C134  1.400610 A    
C100  C112  1.400097 A    
C83   H23   1.083102 S    
C5    C38   1.440542 S    
C138  C158  1.401062 A    
N6    C134  1.432855 S    
C18   C46   1.437344 S    
C83   C87   1.393815 A    
O34   Zn8   2.002621 S    
C120  C136  1.400959 A    
C140  C158  1.400601 A    
C32   C40   1.342332 D    
C72   C84   1.404409 A    
C86   H26   1.083099 S    
C108  O60   1.349755 S    
N3    C159  1.432950 S    
C71   C83   1.404500 A    
C4    C33   1.440217 S    
C114  H34   1.082943 S    
C64   C70   1.400855 A    
C15   C23   1.334839 D    
C25   C33   1.342250 D    
C58   O50   1.349751 S    
C111  O63   1.349692 S    
O32   Zn12  2.002372 S    
C109  O61   1.349684 S    
C105  N5    1.370211 A    
C16   H8    1.086336 S    
N1    C157  1.432946 S    
C58   C68   1.400132 A    
C41   C129  1.465021 S    
C138  H58   1.082882 S    
C17   H9    1.087661 S    
O31   C51   1.278837 A    
C94   C106  1.400881 A    
C11   C19   1.334833 D    
C12   C20   1.335034 D    
C125  H53   1.083036 S    
Zn6   O42   2.003862 S    
C112  O64   1.349766 S    
C116  H36   1.082883 S    
C61   C71   1.400372 A    
Zn10  O46   2.003862 S    
O14   Zn4   1.993894 S    
O42   C54   1.282347 A    
C98   C104  1.408261 A    
C90   H30   1.083098 S    
