data_mof_unit_48893.cif
_audit_creation_date              2012-12-10T17:05:12-0500
_audit_creation_method            fapswitch 2.2
_symmetry_space_group_name_H-M    P1
_symmetry_Int_Tables_number       1
_space_group_crystal_system       triclinic
_cell_length_a                    10.741235
_cell_length_b                    11.056989
_cell_length_c                    9.82195
_cell_angle_alpha                 111.8388
_cell_angle_beta                  97.933424
_cell_angle_gamma                 91.158204
_cell_volume                      1069.17853067

loop_
_atom_site_label
_atom_site_type_symbol
_atom_type_description
_atom_site_fract_x
_atom_site_fract_y
_atom_site_fract_z
_atom_type_partial_charge
C1    C     C_R   0.489188 0.253560 0.439640 0.741126
C2    C     C_3   0.878441 0.498430 0.493936 0.120218
C3    C     C_3   0.939376 0.638798 0.540290 -0.403688
C4    C     C_3   0.908772 0.411981 0.335709 -0.026040
C5    C     C_2   0.480449 0.113279 0.404914 0.431424
C6    C     C_2   0.482789 0.070969 0.515849 -0.294472
C7    C     C_2   0.520693 0.890051 0.600918 -0.099801
C8    C     C_2   0.482391 0.932254 0.490754 -0.148557
C9    C     C_2   0.509648 0.511503 0.081816 -0.070857
C10   C     C_2   0.490669 0.488012 0.917949 -0.061088
C11   C     C_R   0.259982 0.494268 0.499865 0.765314
C12   C     C_R   0.512259 0.747312 0.561528 0.832856
C13   C     C_R   0.740392 0.500302 0.498114 0.746632
C14   C     C_3   0.085025 0.451692 0.623527 -0.400426
C15   C     C_3   0.940370 0.441836 0.609282 -0.410091
C16   C     C_3   0.080839 0.632801 0.526406 -0.366447
C17   C     C_3   0.051624 0.392159 0.349595 -0.401604
C18   C     C_3   0.122566 0.492942 0.500054 0.145511
Cu1   Cu    Cu3+1 0.522160 0.521810 0.644910 0.915105
Cu2   Cu    Cu3+1 0.477840 0.478190 0.355090 0.936266
H1    H     H_    0.126491 0.524886 0.734766 0.186301
H2    H     H_    0.099078 0.661037 0.433026 0.160764
H3    H     H_    0.892140 0.689198 0.470588 0.146871
H4    H     H_    0.450252 0.863079 0.378143 0.215906
H5    H     H_    0.487301 0.141306 0.628558 0.138329
H6    H     H_    0.419809 0.412562 0.843439 0.151126
H7    H     H_    0.580667 0.586760 0.156128 0.156832
H8    H     H_    0.620180 0.627510 0.936357 0.184181
H9    H     H_    0.121227 0.355820 0.614564 0.153013
H10   H     H_    0.378095 0.374162 0.064009 0.188657
H11   H     H_    0.904515 0.338040 0.575473 0.157895
H12   H     H_    0.915940 0.497464 0.720834 0.196403
H13   H     H_    0.136883 0.705214 0.629625 0.160254
H14   H     H_    0.928630 0.697787 0.657195 0.168263
H15   H     H_    0.090767 0.398466 0.253171 0.187144
H16   H     H_    0.065960 0.291089 0.344169 0.140139
H17   H     H_    0.855760 0.314728 0.300165 0.136854
N1    N     N_2   0.444530 0.445420 0.137360 -0.286784
N2    N     N_2   0.555520 0.554510 0.862630 -0.285840
O1    O     O_R   0.511820 0.332340 0.577400 -0.611207
O2    O     O_R   0.474400 0.295500 0.332650 -0.536550
O3    O     O_R   0.336400 0.518400 0.622370 -0.578374
O4    O     O_R   0.298980 0.481560 0.377620 -0.581937
O5    O     O_R   0.525600 0.704500 0.667350 -0.578866
O6    O     O_R   0.488180 0.667660 0.422600 -0.586240
O7    O     O_R   0.701020 0.518440 0.622380 -0.579450
O8    O     O_R   0.663600 0.481600 0.377630 -0.587873
C19   C     C_3   0.873307 0.469525 0.213252 -0.367069
C20   C     C_3   0.844317 0.360718 0.058076 -0.382394
C21   C     C_3   0.852715 0.413405 0.936632 -0.847560
H18   H     H_    0.792609 0.496062 0.950168 0.257513
H19   H     H_    0.951916 0.447503 0.941958 0.242653
H20   H     H_    0.820613 0.334795 0.826249 0.247065
H21   H     H_    0.912076 0.284121 0.046230 0.216652
H22   H     H_    0.747484 0.315432 0.042535 0.232753
H23   H     H_    0.791453 0.529189 0.230837 0.203583
H24   H     H_    0.951506 0.538355 0.216190 0.204135
C22   C     C_3   0.571974 0.989117 0.758775 -0.418103
C23   C     C_3   0.625890 0.934880 0.876294 -0.298085
C24   C     C_3   0.688259 0.043618 0.019836 -0.841450
H25   H     H_    0.774346 0.087629 0.000280 0.226330
H26   H     H_    0.622159 0.120107 0.061753 0.282939
H27   H     H_    0.716291 0.002420 0.105837 0.258773
H28   H     H_    0.548408 0.884570 0.904244 0.263898
H29   H     H_    0.698122 0.865753 0.833771 0.217663
H30   H     H_    0.648586 0.053555 0.749459 0.210672
H31   H     H_    0.494805 0.050566 0.802417 0.203998
F1    F     F_    0.472820 0.028301 0.261500 -0.681160

loop_
_geom_bond_atom_site_label_1
_geom_bond_atom_site_label_2
_ccdc_geom_bond_type
C21   H19   S    
C11   C18   S    
C11   O4    A    
C17   H16   S    
C16   H13   S    
Cu2   N1    S    
C9    C10   S    
C14   C18   S    
C7    C22   S    
C3    H3    S    
Cu1   Cu2   S    
C1    O1    A    
Cu1   O3    S    
C16   H2    S    
C10   H6    S    
C17   C18   S    
Cu1   O7    S    
C19   H24   S    
C12   O5    A    
C23   C24   S    
C23   H29   S    
C15   H11   S    
C2    C15   S    
H10   N1    S    
C23   H28   S    
C5    C6    D    
Cu1   N2    S    
C5    F1    S    
C1    C5    S    
C2    C4    S    
C14   H1    S    
C24   H26   S    
C19   C20   S    
C8    H4    S    
C22   H30   S    
C2    C3    S    
C4    H17   S    
C24   H27   S    
C13   O7    A    
C7    C12   S    
Cu2   O8    S    
C7    C8    D    
Cu1   O1    S    
C4    C17   S    
C14   H9    S    
C20   H21   S    
C6    H5    S    
C9    N1    D    
C22   H31   S    
C15   H12   S    
Cu2   O4    S    
Cu2   O2    S    
Cu1   O5    S    
C9    H7    S    
C11   O3    A    
C16   C18   S    
C20   C21   S    
C4    C19   S    
C1    O2    A    
C19   H23   S    
C2    C13   S    
C14   C15   S    
C24   H25   S    
C3    H14   S    
C6    C8    S    
C17   H15   S    
H8    N2    S    
C21   H18   S    
C22   C23   S    
C20   H22   S    
C13   O8    A    
C10   N2    D    
C3    C16   S    
Cu2   O6    S    
C21   H20   S    
C12   O6    A    
