data_mof_unit_27393.cif
_audit_creation_date              2012-12-10T17:37:21-0500
_audit_creation_method            fapswitch 2.2
_symmetry_space_group_name_H-M    P1
_symmetry_Int_Tables_number       1
_space_group_crystal_system       triclinic
_cell_length_a                    12.339241
_cell_length_b                    13.160978
_cell_length_c                    15.841883
_cell_angle_alpha                 77.827282
_cell_angle_beta                  101.102662
_cell_angle_gamma                 116.619174
_cell_volume                      2234.05546775

loop_
_atom_site_label
_atom_site_type_symbol
_atom_type_description
_atom_site_fract_x
_atom_site_fract_y
_atom_site_fract_z
_atom_type_partial_charge
C1    C     C_R   0.854902 0.286459 0.507657 0.758911
C2    C     C_3   0.999151 0.499997 0.917181 0.189903
C3    C     C_3   0.108177 0.577984 0.030337 -0.155435
C4    C     C_3   0.000393 0.499915 0.082756 0.188852
C5    C     C_3   0.018321 0.604697 0.956475 -0.153776
C6    C     C_3   0.910536 0.526628 0.010435 -0.154645
C7    C     C_1   0.998745 0.500015 0.825321 -0.071465
C8    C     C_1   0.000935 0.499918 0.174634 -0.074173
C9    C     C_R   0.279810 0.013745 0.372502 -0.201741
C10   C     C_R   0.227936 0.834978 0.470114 -0.095844
C11   C     C_R   0.815542 0.083727 0.561571 -0.190789
C12   C     C_R   0.999530 0.499866 0.659953 0.817707
C13   C     C_R   0.737472 0.967709 0.574389 -0.145796
C14   C     C_R   0.614320 0.930574 0.543804 -0.162292
C15   C     C_R   0.566885 0.009402 0.498663 0.069646
C16   C     C_R   0.650504 0.123655 0.472851 0.085966
C17   C     C_R   0.439925 0.976445 0.472892 0.024312
C18   C     C_R   0.402702 0.048971 0.406116 0.158837
C19   C     C_R   0.488647 0.155451 0.372658 -0.231936
C20   C     C_R   0.610372 0.193163 0.406317 -0.196759
C21   C     C_R   0.348023 0.875175 0.511406 -0.086218
C22   C     C_R   0.193730 0.905620 0.402121 -0.203524
C23   C     C_R   0.145001 0.713419 0.488116 0.808535
C24   C     C_R   0.773123 0.163180 0.511918 -0.100033
C25   C     C_R   0.345083 0.327020 0.637307 -0.301524
C26   C     C_R   0.760234 0.646748 0.383524 0.632192
C27   C     C_R   0.662868 0.678296 0.359108 -0.347226
C28   C     C_R   0.559927 0.622874 0.403086 -0.245564
C29   C     C_R   0.551602 0.534483 0.472801 -0.004081
C30   C     C_R   0.652845 0.504899 0.496282 0.205234
C31   C     C_R   0.446956 0.474829 0.520179 -0.017824
C32   C     C_R   0.445767 0.387024 0.589846 0.173220
C33   C     C_R   0.545184 0.359818 0.612093 -0.272420
C34   C     C_R   0.000477 0.500169 0.340038 0.825663
C35   C     C_R   0.646488 0.417755 0.566722 -0.155880
C36   C     C_R   0.342544 0.498138 0.501757 0.028727
C37   C     C_R   0.245698 0.354145 0.615950 0.080098
C38   C     C_3   0.981218 0.395213 0.043460 -0.162050
C39   C     C_3   0.891361 0.421926 0.969595 -0.161360
C40   C     C_1   0.998844 0.499981 0.749671 -0.168928
C41   C     C_1   0.001012 0.499988 0.250305 -0.172415
C42   C     C_3   0.089002 0.473284 0.989504 -0.154125
Cu1   Cu    Cu3+1 0.098270 0.475420 0.519690 0.949376
Cu2   Cu    Cu3+1 0.901730 0.524580 0.480310 0.969457
H1    H     H_    0.802362 0.357909 0.943273 0.130051
H2    H     H_    0.909361 0.111242 0.590711 0.152365
H3    H     H_    0.558584 0.839123 0.552634 0.148466
H4    H     H_    0.771995 0.906412 0.609813 0.146366
H5    H     H_    0.673064 0.274852 0.375874 0.171920
H6    H     H_    0.167608 0.308088 0.652284 0.120606
H7    H     H_    0.545053 0.293072 0.665641 0.149170
H8    H     H_    0.343349 0.259647 0.690649 0.136667
H9    H     H_    0.335266 0.563200 0.449990 0.122612
H10   H     H_    0.966031 0.309247 0.080540 0.130019
H11   H     H_    0.488531 0.651364 0.381051 0.154016
H12   H     H_    0.666667 0.746154 0.305773 0.143089
H13   H     H_    0.718148 0.391393 0.589760 0.203691
H14   H     H_    0.837294 0.548523 0.020413 0.133415
H15   H     H_    0.033508 0.690663 0.919393 0.132124
H16   H     H_    0.197177 0.642011 0.056647 0.131532
H17   H     H_    0.162249 0.451390 0.979532 0.132673
H18   H     H_    0.101183 0.876027 0.370289 0.185449
H19   H     H_    0.461478 0.210540 0.320702 0.143524
H20   H     H_    0.251235 0.067809 0.320506 0.136826
N1    N     N_R   0.246280 0.438200 0.549540 -0.180335
N2    N     N_R   0.754330 0.561180 0.450980 -0.218675
O1    O     O_R   0.972510 0.318130 0.524770 -0.583734
O2    O     O_R   0.806530 0.359650 0.491510 -0.610144
O3    O     O_R   0.082970 0.479240 0.637550 -0.569378
O4    O     O_R   0.916990 0.520750 0.604290 -0.599697
O5    O     O_R   0.193470 0.640350 0.508490 -0.581988
O6    O     O_R   0.027490 0.681870 0.475230 -0.534065
O7    O     O_R   0.083010 0.479250 0.395710 -0.586674
O8    O     O_R   0.917030 0.520760 0.362450 -0.530544
C43   C     C_1   0.369640 0.820731 0.598736 0.229580
N3    N     N_1   0.386221 0.777202 0.668423 -0.285430
O9    O     O_3   0.862872 0.701394 0.340303 -0.715849
H21   H     H_    0.853266 0.761099 0.293585 0.283540

loop_
_geom_bond_atom_site_label_1
_geom_bond_atom_site_label_2
_ccdc_geom_bond_type
Cu1   O7    S    
C12   O3    A    
C3    C42   S    
C9    H20   S    
C6    H14   S    
Cu2   N2    S    
C2    C7    S    
C4    C8    S    
O9    H21   S    
C10   C22   A    
C26   C27   A    
C20   H5    S    
C30   C35   A    
C28   C29   A    
C38   C42   S    
C31   C36   A    
C5    C6    S    
C9    C22   A    
C15   C16   A    
C11   C24   A    
C1    O2    A    
C18   C19   A    
C43   N3    T    
C36   H9    S    
C33   C35   A    
C2    C39   S    
C19   C20   A    
C19   H19   S    
C37   N1    A    
C7    C40   T    
Cu2   O4    S    
C16   C20   A    
C39   H1    S    
C25   C37   A    
C3    H16   S    
C25   C32   A    
C16   C24   A    
C13   C14   A    
C34   C41   S    
C28   H11   S    
C10   C21   A    
C26   O9    S    
C5    H15   S    
C26   N2    A    
C23   O5    A    
C8    C41   T    
C4    C6    S    
C27   H12   S    
C17   C21   A    
C12   C40   S    
Cu1   Cu2   S    
C29   C30   A    
C22   H18   S    
C31   C32   A    
C38   H10   S    
Cu1   N1    S    
C14   C15   A    
C17   C18   A    
Cu2   O8    S    
C42   H17   S    
C30   N2    A    
C34   O8    A    
C4    C38   S    
Cu2   O2    S    
C2    C5    S    
C3    C4    S    
C15   C17   A    
C12   O4    A    
Cu1   O5    S    
C36   N1    A    
C23   O6    A    
C3    C5    S    
C13   H4    S    
C14   H3    S    
C10   C23   S    
C33   H7    S    
C21   C43   S    
C35   H13   S    
C32   C33   A    
C25   H8    S    
C29   C31   A    
C37   H6    S    
C11   C13   A    
C38   C39   S    
C2    C42   S    
C1    O1    A    
Cu2   O6    S    
C34   O7    A    
C9    C18   A    
C1    C24   S    
Cu1   O1    S    
C27   C28   A    
C6    C39   S    
C11   H2    S    
Cu1   O3    S    
