data_mof_unit_27296.cif
_audit_creation_date              2012-12-11T15:49:17-0500
_audit_creation_method            fapswitch 2.2
_symmetry_space_group_name_H-M    P1
_symmetry_Int_Tables_number       1
_space_group_crystal_system       triclinic
_cell_length_a                    8.229547
_cell_length_b                    19.111945
_cell_length_c                    26.995518
_cell_angle_alpha                 95.83402
_cell_angle_beta                  92.486331
_cell_angle_gamma                 85.582979
_cell_volume                      4208.6832274

loop_
_atom_site_label
_atom_site_type_symbol
_atom_type_description
_atom_site_fract_x
_atom_site_fract_y
_atom_site_fract_z
_atom_type_partial_charge
Ba1   Ba    Ba6+2 0.854000 0.466860 0.523710 1.640568
Ba2   Ba    Ba6+2 0.335820 0.533080 0.476290 1.639999
C1    C     C_3   0.640777 0.217390 0.657698 -0.366430
C2    C     C_R   0.887062 0.558105 0.177242 0.585925
C3    C     C_2   0.736778 0.513649 0.270031 -0.071685
C4    C     C_3   0.151623 0.311106 0.660445 0.290693
C5    C     C_3   0.693896 0.509353 0.323989 -0.048627
C6    C     C_1   0.982525 0.486495 0.342771 0.038926
C7    C     C_2   0.023053 0.485835 0.295494 -0.097740
C8    C     C_2   0.894008 0.501001 0.255821 0.202993
C9    C     C_R   0.016402 0.500253 0.102292 -0.078224
C10   C     C_R   0.066813 0.442641 0.129366 -0.034738
C11   C     C_R   0.157266 0.384991 0.105290 -0.061145
C12   C     C_3   0.647285 0.288549 0.637636 0.346110
C13   C     C_R   0.925645 0.558258 0.126560 -0.031641
C14   C     C_2   0.842959 0.517171 0.358025 -0.274284
C15   C     C_2   0.348160 0.481637 0.641669 -0.282708
C16   C     C_3   0.120395 0.295059 0.713023 -0.343018
C17   C     C_R   0.189787 0.440704 0.975946 0.019886
C18   C     C_R   0.042197 0.557596 0.972754 0.019754
C19   C     C_R   0.135705 0.498928 0.948981 0.050203
C20   C     C_R   0.283518 0.384014 0.950466 -0.099880
C21   C     C_R   0.321799 0.384310 0.900702 -0.061094
C22   C     C_R   0.269043 0.441079 0.873624 -0.031069
C23   C     C_3   0.504536 0.640691 0.627524 0.299142
C24   C     C_R   0.175795 0.498515 0.897647 -0.077274
C25   C     C_R   0.123145 0.555637 0.870357 -0.034081
C26   C     C_R   0.164874 0.554860 0.819822 0.590872
C27   C     C_R   0.307967 0.441311 0.822969 0.578193
C28   C     C_3   0.188294 0.319240 0.419000 0.306256
C29   C     C_2   0.454552 0.484641 0.729760 -0.072584
C30   C     C_3   0.497244 0.488709 0.675895 -0.053748
C31   C     C_1   0.208682 0.512788 0.656902 0.042848
C32   C     C_2   0.168752 0.513608 0.704310 -0.106476
C33   C     C_2   0.297601 0.497800 0.744001 0.198589
C34   C     C_3   0.470394 0.668864 0.681141 -0.367260
C35   C     C_R   0.149061 0.440948 0.027094 0.019694
C36   C     C_R   0.056465 0.499823 0.050957 0.050270
C37   C     C_R   0.003357 0.558264 0.024091 0.019746
C38   C     C_R   0.197544 0.384058 0.055577 -0.099668
C39   C     C_R   0.875356 0.615570 0.099737 -0.061934
C40   C     C_3   0.202021 0.239651 0.406356 -0.380264
C41   C     C_R   0.990624 0.613800 0.943964 -0.099628
C42   C     C_R   0.030352 0.612758 0.894201 -0.061671
C43   C     C_R   0.912904 0.615692 0.049900 -0.099664
C44   C     C_R   0.397753 0.299420 0.522656 -0.286795
C45   C     C_3   0.967559 0.693076 0.345327 0.286112
C46   C     C_R   0.539182 0.277133 0.497495 0.079193
C47   C     C_R   0.593846 0.205355 0.493285 -0.117967
C48   C     C_R   0.505743 0.155441 0.513993 -0.017386
C49   C     C_R   0.359285 0.179112 0.537909 -0.136766
C50   C     C_R   0.304880 0.250764 0.541381 0.011953
C51   C     C_R   0.545005 0.036728 0.547915 -0.074992
C52   C     C_3   0.006751 0.682406 0.583030 0.308734
C53   C     C_R   0.595101 0.964645 0.542903 -0.080040
C54   C     C_R   0.663873 0.932357 0.498658 0.056785
C55   C     C_R   0.682685 0.974464 0.459762 -0.053630
C56   C     C_3   0.908651 0.726671 0.298445 -0.333326
C57   C     C_R   0.632477 0.046610 0.464764 -0.073624
C58   C     C_R   0.562299 0.078764 0.508866 0.060510
C59   C     C_R   0.857527 0.828423 0.468798 -0.120151
C60   C     C_R   0.902147 0.755606 0.464260 0.018869
C61   C     C_R   0.661475 0.734308 0.506490 0.048078
C62   C     C_R   0.616347 0.806841 0.512284 -0.107589
C63   C     C_R   0.712795 0.854994 0.492853 0.001471
C64   C     C_3   0.998955 0.761674 0.597262 -0.385983
C65   C     C_R   0.800490 0.709201 0.481214 -0.284559
C66   C     C_3   0.689196 0.366627 0.373342 0.302749
C67   C     C_3   0.452518 0.710354 0.339332 0.306462
C68   C     C_3   0.728458 0.333668 0.321058 -0.366539
C69   C     C_2   0.531932 0.771254 0.367856 0.502579
C70   C     C_3   0.363368 0.731490 0.291572 -0.273836
C71   C     C_R   0.024968 0.443454 0.179900 0.589350
H1    H     H_    0.757203 0.286581 0.614929 0.103794
H2    H     H_    0.802303 0.385656 0.391845 0.022657
H3    H     H_    0.594685 0.410866 0.371276 0.028288
H4    H     H_    0.751259 0.206222 0.681533 0.135060
H5    H     H_    0.813491 0.285954 0.323290 0.141791
H6    H     H_    0.787623 0.371032 0.300165 0.075839
H7    H     H_    0.614750 0.318486 0.300440 0.122089
H8    H     H_    0.536123 0.298034 0.613990 -0.036834
H9    H     H_    0.389098 0.623351 0.609317 0.031426
H10   H     H_    0.597323 0.595315 0.627217 0.032628
H11   H     H_    0.385251 0.716932 0.681742 0.139849
H12   H     H_    0.285819 0.225206 0.375187 0.133433
H13   H     H_    0.413358 0.629129 0.700464 0.075472
H14   H     H_    0.585925 0.682201 0.701459 0.123152
H15   H     H_    0.530533 0.217277 0.680005 0.122924
H16   H     H_    0.174121 0.334932 0.740278 0.128299
H17   H     H_    0.027644 0.640006 0.334509 0.057021
H18   H     H_    0.858243 0.687394 0.367040 -0.005179
H19   H     H_    0.813513 0.695645 0.278422 0.171031
H20   H     H_    0.855748 0.781245 0.308440 0.142771
H21   H     H_    0.010692 0.728057 0.273182 0.108871
H22   H     H_    0.362351 0.693802 0.364195 0.085046
H23   H     H_    0.250155 0.212962 0.439017 0.064182
H24   H     H_    0.451206 0.747884 0.265615 0.134915
H25   H     H_    0.270471 0.775824 0.300285 0.120320
H26   H     H_    0.100798 0.365791 0.656339 0.078114
H27   H     H_    0.301616 0.685856 0.272751 0.105325
H28   H     H_    0.149010 0.474312 0.285329 0.128762
H29   H     H_    0.197892 0.339758 0.124951 0.122906
H30   H     H_    0.552295 0.476245 0.757312 0.107711
H31   H     H_    0.393957 0.339303 0.883406 0.122163
H32   H     H_    0.330564 0.338056 0.967832 0.069162
H33   H     H_    0.266854 0.337222 0.040661 0.069699
H34   H     H_    0.079941 0.220965 0.395259 0.124332
H35   H     H_    0.805735 0.661145 0.117293 0.121237
H36   H     H_    0.918353 0.659970 0.958577 0.069376
H37   H     H_    0.285314 0.307271 0.655386 -0.015535
H38   H     H_    0.987357 0.657474 0.874307 0.122007
H39   H     H_    0.868885 0.662322 0.032842 0.069333
H40   H     H_    0.835460 0.546694 0.394548 0.072446
H41   H     H_    0.355276 0.451764 0.605285 0.070257
H42   H     H_    0.507251 0.825365 0.532104 0.072035
H43   H     H_    0.581447 0.934290 0.574018 0.064127
H44   H     H_    0.494114 0.059748 0.582696 0.063988
H45   H     H_    0.883027 0.666118 0.573014 0.006568
H46   H     H_    0.703844 0.188625 0.473435 0.088149
H47   H     H_    0.732869 0.951268 0.424921 0.096349
H48   H     H_    0.987108 0.296904 0.718555 0.143219
H49   H     H_    0.645313 0.076853 0.433544 0.067874
H50   H     H_    0.936556 0.863919 0.454628 0.078224
H51   H     H_    0.284792 0.141938 0.552169 0.078630
H52   H     H_    0.834717 0.653136 0.477242 0.059320
H53   H     H_    0.354422 0.354500 0.524891 0.066364
H54   H     H_    0.176406 0.241896 0.719565 0.119251
H55   H     H_    0.310704 0.337304 0.428831 0.010734
H56   H     H_    0.086747 0.669427 0.550842 0.059177
H57   H     H_    0.107705 0.332182 0.451066 0.066856
H58   H     H_    0.635764 0.175353 0.626211 0.073849
H59   H     H_    0.594643 0.763145 0.403056 -0.030289
H60   H     H_    0.639171 0.522003 0.242425 0.101635
H61   H     H_    0.043447 0.526436 0.714704 0.134055
H62   H     H_    0.915457 0.776061 0.628516 0.134391
H63   H     H_    0.953708 0.790452 0.565328 0.059609
H64   H     H_    0.122528 0.778193 0.608906 0.121309
N1    N     N_R   0.936159 0.500953 0.203571 -0.423035
N2    N     N_R   0.255763 0.497838 0.796313 -0.423759
O1    O     O_2   0.913240 0.537010 0.617740 -0.464670
O2    O     O_2   0.244783 0.748931 0.457453 -0.492196
O3    O     O_3   0.080431 0.735499 0.372054 -0.614110
O4    O     O_3   0.145240 0.536960 0.557560 -0.489585
O5    O     O_3   0.557280 0.416300 0.475860 -0.485997
O6    O     O_2   0.376710 0.670070 0.522470 -0.464294
O7    O     O_3   0.564355 0.694652 0.603813 -0.643892
O8    O     O_2   0.358327 0.561820 0.323891 -0.512637
O9    O     O_3   0.574626 0.656933 0.326228 -0.651011
O10   O     O_2   0.065840 0.392356 0.202546 -0.597766
O11   O     O_2   0.387658 0.390738 0.802561 -0.600216
O12   O     O_3   0.627714 0.315323 0.398819 -0.637113
O13   O     O_2   0.810592 0.609309 0.197985 -0.611824
O14   O     O_2   0.122227 0.605659 0.797057 -0.598828
O15   O     O_3   0.669960 0.410470 0.588880 -0.488938
O16   O     O_2   0.833422 0.445881 0.673429 -0.496889
O17   O     O_3   0.068017 0.649230 0.624288 -0.628174
O18   O     O_3   0.653430 0.341473 0.677558 -0.590979
O19   O     O_2   0.812980 0.329910 0.477500 -0.465023
O20   O     O_3   0.078660 0.374870 0.564770 -0.490212
O21   O     O_2   0.966926 0.249833 0.533880 -0.485827
O22   O     O_2   0.527438 0.829347 0.352472 -0.596593
O23   O     O_3   0.075216 0.262466 0.626371 -0.602062
O24   O     O_2   0.276450 0.462960 0.382230 -0.470917
O25   O     O_3   0.044470 0.462980 0.442430 -0.492682
O26   O     O_3   0.519740 0.589470 0.411120 -0.469959
O27   O     O_3   0.124304 0.350423 0.377089 -0.627047
O28   O     O_3   0.632420 0.583650 0.524140 -0.473364
O29   O     O_3   0.111040 0.625070 0.435230 -0.482089
P1    P     P_3+3 0.082480 0.557670 0.610090 0.998429
P2    P     P_3+3 0.635220 0.340300 0.462910 0.987434
P3    P     P_3+3 0.106075 0.283353 0.566074 0.937165
P4    P     P_3+3 0.107220 0.442270 0.389900 0.994860
P5    P     P_3+3 0.088185 0.717013 0.434236 0.948251
P6    P     P_3+3 0.664206 0.423105 0.653970 0.970189
P7    P     P_3+3 0.560717 0.671780 0.539432 0.950913
P8    P     P_3+3 0.530801 0.576168 0.346181 0.949093

loop_
_geom_bond_atom_site_label_1
_geom_bond_atom_site_label_2
_ccdc_geom_bond_type
C53   C54   A    
O27   P4    S    
O1    P1    D    
Ba2   O4    S    
C39   H35   S    
C44   C50   A    
C68   H5    S    
Ba2   O5    S    
O17   P1    S    
Ba1   O5    S    
C19   C24   A    
C31   P1    S    
C14   H40   S    
C43   H39   S    
C70   H25   S    
Ba2   O6    S    
C3    H60   S    
C45   O3    S    
C24   C25   A    
O9    P8    S    
O12   P2    S    
O20   P3    S    
C60   C65   A    
C40   H23   S    
C12   H1    S    
C38   H33   S    
Ba1   O19   S    
C17   C19   A    
C56   H20   S    
C22   C24   A    
C32   C33   S    
C35   C38   A    
C65   H52   S    
C52   O17   S    
C36   C37   A    
C51   H44   S    
C55   C57   A    
C53   H43   S    
C32   H61   S    
C54   C63   S    
O5    P2    S    
Ba1   P2    S    
C54   C55   A    
Ba1   Ba2   S    
C47   H46   S    
C67   C69   S    
C22   C27   A    
C11   C38   A    
C17   C35   A    
C33   N2    S    
C69   H59   S    
C9    C13   A    
C25   C42   A    
O23   P3    S    
C4    O23   S    
Ba1   O25   S    
C6    C7    D    
C21   C22   A    
C23   O7    S    
C40   H34   S    
O18   P6    S    
C37   C43   A    
C57   H49   S    
C27   O11   D    
C57   C58   A    
C6    C14   D    
C62   H42   S    
C10   C71   A    
O7    P7    S    
O2    P5    D    
C49   H51   S    
C4    H37   S    
Ba1   O15   S    
C26   N2    Am   
C15   C31   D    
C27   N2    Am   
C50   P3    S    
C51   C58   A    
C15   H41   S    
C48   C49   A    
O3    P5    S    
C28   H55   S    
C70   H24   S    
C51   C53   A    
C34   H14   S    
O29   P5    S    
C2    O13   D    
C4    C16   S    
C61   C65   A    
O15   P6    S    
C12   O18   S    
C68   H7    S    
C49   C50   A    
O6    P7    D    
Ba1   O20   S    
C17   C20   A    
C13   C39   A    
Ba2   O25   S    
C3    C5    S    
C18   C37   A    
O8    P8    D    
O19   P2    D    
C16   H48   S    
C34   H13   S    
C28   H57   S    
C60   P5    S    
C30   P6    S    
C64   H62   S    
C66   H2    S    
C29   H30   S    
C67   C70   S    
C41   C42   A    
C42   H38   S    
C35   C36   A    
Ba1   O4    S    
C16   H54   S    
C29   C30   S    
C5    P8    S    
C31   C32   D    
C40   H12   S    
C18   C19   A    
O24   P4    D    
Ba1   O1    S    
Ba2   O26   S    
O4    P1    S    
C1    C12   S    
C55   H47   S    
C64   H63   S    
O16   P6    D    
C66   C68   S    
C46   C47   A    
C52   H45   S    
C23   H9    S    
C45   H17   S    
C1    H58   S    
O25   P4    S    
C1    H15   S    
C1    H4    S    
Ba2   O29   S    
C18   C41   A    
O28   P7    S    
C70   H27   S    
C28   O27   S    
C15   C30   S    
C52   H56   S    
C5    C14   S    
C39   C43   A    
C69   O22   D    
C71   O10   D    
C68   H6    S    
C16   H16   S    
C45   H18   S    
C44   H53   S    
C67   H22   S    
Ba2   O24   S    
C9    C10   A    
C61   P7    S    
C52   C64   S    
C66   H3    S    
C20   H32   S    
C8    N1    S    
O26   P8    S    
C59   H50   S    
C48   C58   S    
C62   C63   A    
C2    C13   A    
C56   H21   S    
C3    C8    D    
C66   O12   S    
C4    H26   S    
C45   C56   S    
C46   P2    S    
C26   O14   D    
C64   H64   S    
C34   H11   S    
Ba1   P1    S    
O21   P3    D    
C7    C8    S    
C29   C33   D    
C21   H31   S    
C59   C60   A    
C23   C34   S    
C2    N1    Am   
C61   C62   A    
C44   C46   A    
C59   C63   A    
C10   C11   A    
C7    H28   S    
C47   C48   A    
C71   N1    Am   
C25   C26   A    
C23   H10   S    
C67   O9    S    
Ba1   O28   S    
C20   C21   A    
C28   C40   S    
C9    C36   A    
C41   H36   S    
C12   H8    S    
C11   H29   S    
C56   H19   S    
Ba2   O28   S    
C6    P4    S    
Ba2   P4    S    
