data_mof_unit_45145.cif
_audit_creation_date              2012-12-10T20:47:09-0500
_audit_creation_method            fapswitch 2.2
_symmetry_space_group_name_H-M    P1
_symmetry_Int_Tables_number       1
_space_group_crystal_system       triclinic
_cell_length_a                    10.703895
_cell_length_b                    8.926976
_cell_length_c                    8.121086
_cell_angle_alpha                 89.905122
_cell_angle_beta                  89.999323
_cell_angle_gamma                 90.000071
_cell_volume                      775.99642684

loop_
_atom_site_label
_atom_site_type_symbol
_atom_type_description
_atom_site_fract_x
_atom_site_fract_y
_atom_site_fract_z
_atom_type_partial_charge
C1    C     C_R   0.500003 0.218042 0.499871 1.087819
C2    C     C_R   0.065866 0.356221 0.574194 -0.193361
C3    C     C_R   0.127941 0.479465 0.500033 0.017925
C4    C     C_R   0.872060 0.479465 0.500031 0.017927
C5    C     C_R   0.063773 0.595006 0.422385 -0.162719
C6    C     C_R   0.936231 0.595006 0.422386 -0.162715
C7    C     C_1   0.500005 0.065161 0.499798 -0.046711
C8    C     C_1   0.500003 0.934747 0.499731 -0.114317
C9    C     C_R   0.500000 0.781916 0.499874 0.921777
C10   C     C_R   0.259877 0.492984 0.500137 0.947641
C11   C     C_R   0.740124 0.492987 0.500136 0.947628
C12   C     C_R   0.129990 0.231585 0.643470 0.414472
C13   C     C_R   0.870003 0.231572 0.643453 0.414472
C14   C     C_R   0.064670 0.112353 0.712885 0.449335
C15   C     C_R   0.935327 0.112346 0.712875 0.449318
C16   C     C_R   0.934131 0.356217 0.574189 -0.193368
F1    F     F_    0.255557 0.219831 0.640957 -0.646206
F2    F     F_    0.744434 0.219823 0.640948 -0.646211
F3    F     F_    0.127698 0.994282 0.777711 -0.575863
F4    F     F_    0.872301 0.994266 0.777688 -0.575870
H1    H     H_    0.112935 0.687568 0.364771 0.160866
H2    H     H_    0.887069 0.687567 0.364770 0.160863
N1    N     N_1   0.500000 0.500000 0.073640 -0.009539
N2    N     N_1   0.500000 0.500000 0.926360 0.002492
O1    O     O_R   0.500000 0.285350 0.636850 -0.523396
O2    O     O_R   0.500000 0.714650 0.636850 -0.602031
O3    O     O_R   0.500000 0.285360 0.363100 -0.645171
O4    O     O_R   0.500000 0.714640 0.363100 -0.626509
O5    O     O_R   0.316770 0.500000 0.636900 -0.575825
O6    O     O_R   0.683230 0.500000 0.636900 -0.575824
O7    O     O_R   0.316780 0.500000 0.363150 -0.636667
O8    O     O_R   0.683220 0.500000 0.363150 -0.636666
Zn1   Zn    Zn3+2 0.500000 0.500000 0.682780 1.116922
Zn2   Zn    Zn3+2 0.500000 0.500000 0.317220 1.039512

loop_
_geom_bond_atom_site_label_1
_geom_bond_atom_site_label_2
_ccdc_geom_bond_type
C12   F1    S    
C4    C16   A    
N1    N2    T    
C2    C16   A    
O2    Zn1   S    
N2    Zn1   S    
N1    Zn2   S    
C2    C12   A    
C2    C3    A    
O7    Zn2   S    
O4    Zn2   S    
C7    C8    T    
C3    C10   S    
C4    C11   S    
C1    O1    A    
C10   O5    A    
C5    C6    A    
C13   F2    S    
C14   F3    S    
C12   C14   A    
C9    O2    A    
C13   C15   A    
O3    Zn2   S    
C15   F4    S    
C6    H2    S    
O5    Zn1   S    
C5    H1    S    
C11   O6    A    
C4    C6    A    
C13   C16   A    
C1    O3    A    
C14   C15   A    
O6    Zn1   S    
C3    C5    A    
C1    C7    S    
C10   O7    A    
C9    O4    A    
O1    Zn1   S    
C8    C9    S    
C11   O8    A    
O8    Zn2   S    
