data_mof_unit_28839.cif
_audit_creation_date              2012-12-10T19:50:04-0500
_audit_creation_method            fapswitch 2.2
_symmetry_space_group_name_H-M    P1
_symmetry_Int_Tables_number       1
_space_group_crystal_system       triclinic
_cell_length_a                    14.146716
_cell_length_b                    14.943499
_cell_length_c                    15.258201
_cell_angle_alpha                 90.816943
_cell_angle_beta                  68.942712
_cell_angle_gamma                 91.259982
_cell_volume                      3009.40726348

loop_
_atom_site_label
_atom_site_type_symbol
_atom_type_description
_atom_site_fract_x
_atom_site_fract_y
_atom_site_fract_z
_atom_type_partial_charge
C1    C     C_R   0.501846 0.672370 0.497912 0.937948
C2    C     C_R   0.499147 0.327973 0.499980 0.947488
C3    C     C_R   0.374548 0.392394 0.102554 0.202638
C4    C     C_R   0.612038 0.388713 0.897698 0.209636
C5    C     C_R   0.302853 0.389381 0.057324 0.373854
C6    C     C_R   0.687471 0.402184 0.936514 0.379837
C7    C     C_R   0.418301 0.904526 0.559911 -0.138801
C8    C     C_R   0.499827 0.096904 0.579749 -0.125818
C9    C     C_R   0.419072 0.812524 0.557313 -0.192123
C10   C     C_R   0.500491 0.189007 0.578399 -0.182301
C11   C     C_R   0.504492 0.768601 0.497875 -0.163086
C12   C     C_R   0.497205 0.232430 0.499519 -0.163470
C13   C     C_R   0.591298 0.816555 0.441098 0.187254
C14   C     C_R   0.491849 0.184978 0.421428 0.190146
C15   C     C_R   0.593483 0.910166 0.448153 0.444169
C16   C     C_R   0.484647 0.091418 0.424467 0.441223
C17   C     C_R   0.503748 0.953020 0.504707 -0.037468
C18   C     C_R   0.493875 0.048424 0.502939 -0.043829
C19   C     C_R   0.911991 0.570111 0.463184 -0.194601
C20   C     C_R   0.119987 0.430352 0.457393 -0.183918
C21   C     C_R   0.812444 0.570079 0.463708 0.037464
C22   C     C_R   0.218662 0.431148 0.459100 0.054954
C23   C     C_R   0.437359 0.498796 0.676791 0.888260
C24   C     C_R   0.562483 0.497895 0.323087 0.939448
C25   C     C_R   0.779156 0.428199 0.535624 0.039727
C26   C     C_R   0.189297 0.567692 0.543479 -0.002323
C27   C     C_R   0.878354 0.424892 0.536236 0.224601
C28   C     C_R   0.088862 0.568724 0.545862 0.196395
C29   C     C_R   0.946526 0.497640 0.500649 0.035186
C30   C     C_R   0.052699 0.499177 0.501591 0.047102
C31   C     C_R   0.399403 0.481817 0.777956 -0.144388
C32   C     C_R   0.599090 0.477276 0.222108 -0.121377
C33   C     C_R   0.262438 0.457978 0.926801 0.361889
C34   C     C_R   0.728060 0.417070 0.082889 0.375301
C35   C     C_R   0.296212 0.481906 0.832158 -0.204857
C36   C     C_R   0.697947 0.448652 0.175256 -0.179391
C37   C     C_R   0.468742 0.460467 0.819500 -0.149877
C38   C     C_R   0.528814 0.469403 0.177435 -0.117034
C39   C     C_R   0.437219 0.426909 0.910594 0.048605
C40   C     C_R   0.554124 0.429636 0.088629 0.066941
C41   C     C_R   0.332146 0.424034 0.965567 -0.121722
C42   C     C_R   0.658483 0.416417 0.034735 -0.127149
C43   C     C_R   0.509515 0.406641 0.951296 -0.083805
C44   C     C_R   0.478683 0.411811 0.049307 -0.076453
H1    H     H_    0.961979 0.626594 0.433412 0.202945
H2    H     H_    0.096221 0.375893 0.422012 0.216148
H3    H     H_    0.787228 0.626316 0.434944 0.189669
H4    H     H_    0.268411 0.376346 0.428047 0.197787
H5    H     H_    0.726978 0.372949 0.564118 0.188831
H6    H     H_    0.216537 0.620701 0.577801 0.161500
H7    H     H_    0.453504 0.494907 0.212441 0.186742
H8    H     H_    0.548367 0.472290 0.780570 0.209584
H9    H     H_    0.750616 0.446284 0.212044 0.198427
H10   H     H_    0.242259 0.504463 0.802103 0.196903
H11   H     H_    0.350309 0.938280 0.603653 0.184984
H12   H     H_    0.506005 0.063112 0.639813 0.186218
H13   H     H_    0.352493 0.775445 0.601046 0.176281
H14   H     H_    0.505119 0.226573 0.638099 0.184877
N1    N     N_R   0.747530 0.500020 0.500000 -0.130884
N2    N     N_R   0.252470 0.499980 0.500000 -0.127003
O1    O     O_R   0.420530 0.630930 0.499990 -0.621973
O2    O     O_R   0.579470 0.369070 0.500010 -0.612964
O3    O     O_R   0.579480 0.630940 0.499990 -0.598013
O4    O     O_R   0.420520 0.369060 0.500010 -0.602958
O5    O     O_R   0.375120 0.499990 0.632240 -0.613699
O6    O     O_R   0.624880 0.500010 0.367760 -0.601626
O7    O     O_R   0.534080 0.500000 0.632240 -0.607752
O8    O     O_R   0.465920 0.500000 0.367760 -0.600132
Zn1   Zn    Zn3+2 0.393860 0.499990 0.500000 0.996482
Zn2   Zn    Zn3+2 0.606140 0.500010 0.500000 1.007028
S1    S     S_3+6 0.188805 0.324282 0.106094 0.116819
O9    O     O_2   0.112668 0.377050 0.182947 -0.246157
O10   O     O_2   0.145707 0.298938 0.032144 -0.218246
O11   O     O_3   0.212498 0.228926 0.151181 -0.461922
H15   H     H_    0.145017 0.201130 0.184326 0.403178
S2    S     S_3+6 0.811126 0.430119 0.856563 0.115400
O12   O     O_2   0.863031 0.496412 0.900084 -0.242631
O13   O     O_2   0.872805 0.346848 0.828044 -0.170487
O14   O     O_3   0.802390 0.477218 0.760365 -0.521899
H16   H     H_    0.872193 0.497817 0.723226 0.403886
Br1   Br    Br    0.914567 0.321409 0.589478 -0.330234
Br2   Br    Br    0.003813 0.663534 0.614626 -0.425322
Br3   Br    Br    0.127201 0.494503 0.000595 -0.284391
Br4   Br    Br    0.853517 0.353357 0.040516 -0.222276
Br5   Br    Br    0.332028 0.351701 0.230487 -0.383266
Br6   Br    Br    0.646060 0.321176 0.781434 -0.389463
Br7   Br    Br    0.700477 0.755121 0.346122 -0.366583
Br8   Br    Br    0.506676 0.248468 0.307990 -0.334469
S3    S     S_3+6 0.707994 0.970799 0.387018 0.104020
O15   O     O_2   0.703126 0.067784 0.415392 -0.280119
O16   O     O_2   0.793526 0.928936 0.407336 -0.229377
O17   O     O_3   0.731770 0.963402 0.271041 -0.445559
H17   H     H_    0.797525 0.995205 0.241144 0.405268
S4    S     S_3+6 0.463203 0.031424 0.331124 0.106061
O18   O     O_2   0.440012 0.933778 0.352282 -0.288558
O19   O     O_2   0.375149 0.072023 0.313973 -0.213230
O20   O     O_3   0.566784 0.041852 0.233259 -0.446945
H18   H     H_    0.547922 0.012533 0.183097 0.402825

loop_
_geom_bond_atom_site_label_1
_geom_bond_atom_site_label_2
_ccdc_geom_bond_type
C22   H4    S    
C5    S1    S    
C3    Br5   S    
C1    C11   S    
S2    O14   S    
C7    H11   S    
C2    C12   S    
C8    H12   S    
O20   H18   S    
C39   C41   A    
C20   C30   A    
C32   C36   A    
C10   H14   S    
S2    O13   D    
C21   N1    A    
C26   H6    S    
C22   N2    A    
C4    Br6   S    
C27   C29   A    
O2    Zn2   S    
C7    C9    A    
C23   O7    A    
C36   H9    S    
O8    Zn1   S    
C7    C17   A    
C34   C42   A    
C14   C16   A    
C32   C38   A    
S3    O16   D    
C34   C36   A    
C24   O6    A    
C40   C42   A    
C35   H10   S    
C34   Br4   S    
C1    O3    A    
C2    O4    A    
C3    C44   A    
O11   H15   S    
C28   Br2   S    
C27   Br1   S    
S2    O12   D    
C4    C6    A    
S1    O10   D    
C37   H8    S    
C39   C43   A    
C38   H7    S    
S4    O20   S    
C8    C18   A    
C31   C37   A    
C23   C31   S    
C43   C44   A    
C24   C32   S    
C29   C30   S    
C15   S3    S    
C9    C11   A    
O3    Zn2   S    
C13   Br7   S    
C17   C18   S    
O4    Zn1   S    
S3    O17   S    
S4    O19   D    
C33   Br3   S    
C10   C12   A    
C16   C18   A    
C12   C14   A    
C13   C15   A    
C31   C35   A    
C19   C29   A    
O1    Zn1   S    
C15   C17   A    
C5    C41   A    
C19   C21   A    
C16   S4    S    
C20   C22   A    
C3    C5    A    
C1    O1    A    
S1    O11   S    
C19   H1    S    
C6    S2    S    
C4    C43   A    
C25   C27   A    
C26   C28   A    
O7    Zn2   S    
C33   C41   A    
C23   O5    A    
C28   C30   A    
C14   Br8   S    
S1    O9    D    
C37   C39   A    
C38   C40   A    
C11   C13   A    
O6    Zn2   S    
N2    Zn1   S    
O5    Zn1   S    
O17   H17   S    
C33   C35   A    
C9    H13   S    
S4    O18   D    
C25   H5    S    
C24   O8    A    
N1    Zn2   S    
O14   H16   S    
C40   C44   A    
C8    C10   A    
C6    C42   A    
C25   N1    A    
S3    O15   D    
C26   N2    A    
C20   H2    S    
C2    O2    A    
C21   H3    S    
