data_mof_unit_24426.cif
_audit_creation_date              2012-12-10T17:47:02-0500
_audit_creation_method            fapswitch 2.2
_symmetry_space_group_name_H-M    P1
_symmetry_Int_Tables_number       1
_space_group_crystal_system       triclinic
_cell_length_a                    10.006693
_cell_length_b                    10.662105
_cell_length_c                    13.570288
_cell_angle_alpha                 91.994091
_cell_angle_beta                  81.80655
_cell_angle_gamma                 91.698505
_cell_volume                      1431.75419165

loop_
_atom_site_label
_atom_site_type_symbol
_atom_type_description
_atom_site_fract_x
_atom_site_fract_y
_atom_site_fract_z
_atom_type_partial_charge
C1    C     C_R   0.501382 0.739264 0.501695 0.941718
C2    C     C_1   0.454071 0.500176 0.790201 -0.192361
C3    C     C_R   0.362479 0.874201 0.670924 -0.160847
C4    C     C_R   0.287953 0.939919 0.749611 -0.134772
C5    C     C_R   0.278905 0.069418 0.746490 -0.134631
C6    C     C_R   0.345848 0.133329 0.665293 -0.135646
C7    C     C_R   0.420253 0.067386 0.583812 0.028669
C8    C     C_R   0.426484 0.936686 0.585864 0.048580
C9    C     C_R   0.503719 0.872456 0.505540 -0.227127
C10   C     C_R   0.579747 0.935137 0.426320 0.093516
C11   C     C_R   0.571098 0.064144 0.423052 0.453404
C12   C     C_R   0.474570 0.500134 0.685663 0.865133
C13   C     C_R   0.493500 0.128687 0.502096 -0.263487
C14   C     C_R   0.840903 0.625269 0.660568 0.299641
C15   C     C_R   0.895577 0.637124 0.750684 -0.205731
C16   C     C_R   0.034209 0.640633 0.747181 -0.260609
C17   C     C_R   0.114332 0.614485 0.657511 -0.123647
C18   C     C_R   0.059601 0.556732 0.577848 0.126387
C19   C     C_R   0.916116 0.558743 0.578520 0.002232
C20   C     C_R   0.941272 0.442842 0.425442 0.246715
C21   C     C_R   0.084033 0.442698 0.426162 -0.168235
C22   C     C_R   0.498029 0.261112 0.500988 0.922063
C23   C     C_R   0.525410 0.498960 0.314309 0.891981
C24   C     C_1   0.545897 0.496932 0.209666 -0.209315
C25   C     C_2   0.559030 0.495731 0.017042 -0.164876
C26   C     C_2   0.441562 0.499799 0.982717 -0.164790
C27   C     C_1   0.442915 0.500158 0.878539 -0.008364
C28   C     C_1   0.557431 0.495936 0.121277 -0.010697
H1    H     H_    0.345916 0.502955 0.032015 0.154982
H2    H     H_    0.836132 0.670066 0.819045 0.156818
H3    H     H_    0.079379 0.674390 0.811337 0.157044
H4    H     H_    0.216935 0.643415 0.650725 0.199502
H5    H     H_    0.147741 0.395087 0.366106 0.151593
H6    H     H_    0.654722 0.492797 0.967772 0.155977
H7    H     H_    0.376595 0.775649 0.679929 0.118618
H8    H     H_    0.239913 0.890580 0.814143 0.127401
H9    H     H_    0.222602 0.120910 0.808197 0.134031
H10   H     H_    0.339923 0.234402 0.668248 0.149515
N1    N     N_R   0.857120 0.501200 0.500900 -0.128754
N2    N     N_R   0.142720 0.501280 0.500940 -0.118490
O1    O     O_R   0.385310 0.683220 0.500000 -0.636237
O2    O     O_R   0.614640 0.683250 0.500010 -0.593379
O3    O     O_R   0.368830 0.499960 0.640340 -0.648529
O4    O     O_R   0.598160 0.499980 0.640350 -0.591383
O5    O     O_R   0.385360 0.316750 0.499990 -0.632324
O6    O     O_R   0.614690 0.316780 0.500000 -0.570506
O7    O     O_R   0.401840 0.500020 0.359650 -0.619172
O8    O     O_R   0.631170 0.500040 0.359660 -0.567994
Zn1   Zn    Zn3+2 0.346870 0.499980 0.499990 0.926492
Zn2   Zn    Zn3+2 0.653130 0.500020 0.500010 0.987593
N3    N     N_2   0.750097 0.718691 0.641038 -0.247849
H11   H     H_    0.790995 0.771952 0.581520 0.235581
C29   C     C_3   0.684613 0.796500 0.722657 -0.824827
H12   H     H_    0.619736 0.864113 0.693666 0.246971
H13   H     H_    0.760612 0.852996 0.758429 0.235741
H14   H     H_    0.621366 0.737690 0.778052 0.244790
N4    N     N_2   0.668460 0.868454 0.352209 -0.283269
H15   H     H_    0.758522 0.915246 0.328928 0.256574
C30   C     C_3   0.607055 0.813820 0.269958 -0.758273
H16   H     H_    0.675025 0.742356 0.230261 0.234829
H17   H     H_    0.592887 0.886651 0.216345 0.232938
H18   H     H_    0.508048 0.767857 0.296459 0.233559
O9    O     O_3   0.644688 0.127400 0.344761 -0.608027
C31   C     C_3   0.557552 0.157190 0.276184 -0.299565
H19   H     H_    0.619803 0.188773 0.206798 0.189194
H20   H     H_    0.490883 0.235198 0.305383 0.156899
H21   H     H_    0.494173 0.075329 0.256253 0.148404
N5    N     N_2   0.885209 0.379575 0.346701 -0.237659
H22   H     H_    0.910549 0.286339 0.338909 0.230701
C32   C     C_3   0.911052 0.442292 0.252768 -0.753776
H23   H     H_    0.852872 0.393602 0.198288 0.241062
H24   H     H_    0.020251 0.440255 0.222617 0.205308
H25   H     H_    0.878798 0.541376 0.262251 0.252995

loop_
_geom_bond_atom_site_label_1
_geom_bond_atom_site_label_2
_ccdc_geom_bond_type
C7    C13   A    
C23   C24   S    
C6    H10   S    
C2    C27   T    
C5    H9    S    
C9    C10   A    
O6    Zn2   S    
N1    Zn2   S    
C14   N3    S    
O5    Zn1   S    
C25   H6    S    
C2    C12   S    
C31   H19   S    
C22   O5    A    
C32   H25   S    
O8    Zn2   S    
C17   C18   A    
C26   C27   S    
C1    C9    S    
C30   H16   S    
O7    Zn1   S    
C29   H12   S    
C16   H3    S    
C1    O1    A    
C11   C13   A    
N2    Zn1   S    
N4    H15   S    
C6    C7    A    
C21   N2    A    
C19   N1    A    
O2    Zn2   S    
C4    C5    A    
O1    Zn1   S    
C22   O6    A    
C4    H8    S    
C13   C22   S    
C3    C8    A    
C12   O3    A    
C11   O9    S    
C10   N4    S    
C29   H13   S    
C20   N5    S    
C5    C6    A    
C20   N1    A    
C30   H17   S    
N4    C30   S    
C21   H5    S    
C10   C11   A    
C25   C28   S    
C3    H7    S    
N3    H11   S    
C31   H21   S    
C24   C28   T    
C1    O2    A    
C7    C8    A    
C32   H23   S    
C23   O7    A    
C20   C21   A    
C26   H1    S    
C12   O4    A    
C18   C19   A    
C15   H2    S    
C29   H14   S    
O4    Zn2   S    
C17   H4    S    
N5    C32   S    
C18   N2    A    
C14   C15   A    
C16   C17   A    
C30   H18   S    
C32   H24   S    
C23   O8    A    
C25   C26   D    
O9    C31   S    
C14   C19   A    
N5    H22   S    
O3    Zn1   S    
C3    C4    A    
C15   C16   A    
C8    C9    A    
N3    C29   S    
C31   H20   S    
