data_mof_unit_47605.cif
_audit_creation_date              2012-12-11T18:09:23-0500
_audit_creation_method            fapswitch 2.2
_symmetry_space_group_name_H-M    P1
_symmetry_Int_Tables_number       1
_space_group_crystal_system       triclinic
_cell_length_a                    8.24873
_cell_length_b                    12.594898
_cell_length_c                    19.083221
_cell_angle_alpha                 99.910374
_cell_angle_beta                  92.111556
_cell_angle_gamma                 98.098517
_cell_volume                      1929.73446275

loop_
_atom_site_label
_atom_site_type_symbol
_atom_type_description
_atom_site_fract_x
_atom_site_fract_y
_atom_site_fract_z
_atom_type_partial_charge
Ba1   Ba    Ba6+2 0.853180 0.547790 0.465300 1.639910
Ba2   Ba    Ba6+2 0.336650 0.452300 0.534710 1.637974
C1    C     C_3   0.588588 0.905036 0.252795 -0.421729
C2    C     C_3   0.639542 0.827856 0.299770 0.344323
C3    C     C_3   0.465412 0.282041 0.316625 0.311435
C4    C     C_3   0.440079 0.249089 0.236052 -0.398679
C5    C     C_3   0.064557 0.220698 0.728363 0.354403
C6    C     C_3   0.088111 0.183676 0.799289 -0.370021
C7    C     C_3   0.536147 0.185120 0.708784 0.350047
C8    C     C_3   0.575495 0.106281 0.756785 -0.426644
C9    C     C_R   0.088892 0.533081 0.799185 -0.149156
C10   C     C_R   0.028425 0.538980 0.728654 0.065798
C11   C     C_R   0.831904 0.428347 0.817573 -0.167749
C12   C     C_3   0.126190 0.770210 0.270112 0.368483
C13   C     C_R   0.772006 0.439683 0.750550 0.009337
C14   C     C_R   0.342930 0.574748 0.183089 -0.165327
C15   C     C_R   0.409338 0.572743 0.251491 0.006261
C16   C     C_R   0.125322 0.433121 0.199248 -0.138126
C17   C     C_R   0.167896 0.455810 0.273117 0.061993
C18   C     C_R   0.995250 0.468477 0.844190 -0.014098
C19   C     C_R   0.871173 0.489466 0.705454 -0.250205
C20   C     C_R   0.205797 0.497376 0.152246 0.001646
C21   C     C_R   0.314042 0.522317 0.298136 -0.256278
C22   C     C_R   0.825613 0.318126 0.948261 -0.078739
C23   C     C_3   0.102311 0.800181 0.196931 -0.370672
C24   C     C_R   0.710682 0.289234 0.996076 -0.057572
C25   C     C_R   0.723040 0.347730 0.065286 -0.071678
C26   C     C_R   0.860065 0.426041 0.088283 -0.109764
C27   C     C_R   0.990552 0.440914 0.043913 0.021624
C28   C     C_R   0.953574 0.406460 0.969066 0.038219
C29   C     C_R   0.155838 0.479828 0.071684 -0.011750
C30   C     C_R   0.275573 0.487966 0.019419 0.037615
C31   C     C_R   0.225193 0.475219 0.944991 0.001738
C32   C     C_R   0.057927 0.449983 0.919513 -0.023268
C33   C     C_R   0.446572 0.502409 0.037703 -0.077987
C34   C     C_3   0.237998 0.789324 0.620087 0.290188
C35   C     C_R   0.560673 0.523502 0.988297 -0.086989
C36   C     C_R   0.509856 0.507994 0.917207 -0.057077
C37   C     C_R   0.346072 0.472084 0.896035 -0.066554
C38   C     C_R   0.764926 0.182438 0.524133 -0.276777
C39   C     C_R   0.426910 0.807017 0.470800 -0.284396
C40   C     C_R   0.401573 0.983326 0.443139 -0.103782
C41   C     C_R   0.336296 0.875210 0.441125 -0.009671
C42   C     C_R   0.577578 0.848170 0.508390 0.065966
C43   C     C_R   0.642474 0.960166 0.514515 -0.060369
C44   C     C_R   0.553897 0.027610 0.479948 -0.065214
C45   C     C_3   0.247617 0.912305 0.633899 -0.343244
C46   C     C_R   0.617880 0.138564 0.484994 0.041968
C47   C     C_R   0.855890 0.116669 0.555443 -0.011256
C48   C     C_R   0.793175 0.007029 0.553031 -0.087329
C49   C     C_3   0.955716 0.209225 0.379065 0.281350
C50   C     C_3   0.953507 0.086791 0.364826 -0.332075
C51   C     C_3   0.673775 0.727039 0.690587 0.283007
C52   C     C_3   0.603823 0.786071 0.756864 -0.048720
H1    H     H_    0.733410 0.873268 0.341368 0.076823
H2    H     H_    0.323655 0.947728 0.683634 0.103226
H3    H     H_    0.302741 0.946897 0.589168 0.077003
H4    H     H_    0.122442 0.933885 0.639762 0.153270
H5    H     H_    0.830163 0.227170 0.387685 -0.001397
H6    H     H_    0.037520 0.243815 0.427530 0.073959
H7    H     H_    0.878457 0.050036 0.315012 0.115677
H8    H     H_    0.901007 0.050573 0.409397 0.077889
H9    H     H_    0.080430 0.068437 0.358820 0.141798
H10   H     H_    0.788686 0.698515 0.706337 -0.030973
H11   H     H_    0.585926 0.655817 0.664657 0.090629
H12   H     H_    0.542759 0.974627 0.286039 0.107855
H13   H     H_    0.695662 0.856855 0.782467 0.077985
H14   H     H_    0.492454 0.817806 0.739860 0.105954
H15   H     H_    0.529953 0.799148 0.327445 -0.061828
H16   H     H_    0.489493 0.861251 0.212982 0.109452
H17   H     H_    0.353791 0.312351 0.337572 0.010872
H18   H     H_    0.571679 0.348326 0.328861 0.073854
H19   H     H_    0.329456 0.186469 0.221830 0.125674
H20   H     H_    0.423446 0.321224 0.211882 0.059771
H21   H     H_    0.548879 0.215407 0.214151 0.123085
H22   H     H_    0.694522 0.936430 0.224096 0.128530
H23   H     H_    0.141419 0.737399 0.155431 0.066634
H24   H     H_    0.140848 0.301550 0.730769 0.075004
H25   H     H_    0.932828 0.227578 0.719386 -0.060407
H26   H     H_    0.216261 0.168958 0.807680 0.149305
H27   H     H_    0.063276 0.247175 0.843397 0.069083
H28   H     H_    0.003253 0.107248 0.800203 0.106522
H29   H     H_    0.650081 0.208289 0.681902 -0.059575
H30   H     H_    0.441400 0.142413 0.666727 0.087650
H31   H     H_    0.675394 0.146696 0.797038 0.109390
H32   H     H_    0.616780 0.034099 0.724382 0.082809
H33   H     H_    0.052259 0.689168 0.269977 0.078695
H34   H     H_    0.465523 0.079032 0.784551 0.121549
H35   H     H_    0.206801 0.579883 0.817772 0.102120
H36   H     H_    0.742424 0.391176 0.847974 0.080001
H37   H     H_    0.406559 0.630970 0.152823 0.071252
H38   H     H_    0.030501 0.365046 0.179909 0.070561
H39   H     H_    0.822017 0.494806 0.652985 0.062037
H40   H     H_    0.358815 0.529041 0.352975 0.066398
H41   H     H_    0.817314 0.267957 0.896029 0.055681
H42   H     H_    0.610174 0.223617 0.978891 0.066971
H43   H     H_    0.629046 0.330679 0.101603 0.073397
H44   H     H_    0.258295 0.765838 0.279954 -0.070380
H45   H     H_    0.866989 0.471311 0.141442 0.131035
H46   H     H_    0.496894 0.494253 0.088846 0.077634
H47   H     H_    0.689875 0.544662 0.004404 0.083532
H48   H     H_    0.597646 0.521249 0.878453 0.082980
H49   H     H_    0.311900 0.435856 0.841758 0.130689
H50   H     H_    0.328940 0.032031 0.417449 0.100481
H51   H     H_    0.865464 0.960063 0.580268 0.116095
H52   H     H_    0.814022 0.267466 0.526714 0.064329
H53   H     H_    0.374930 0.722553 0.468349 0.068977
H54   H     H_    0.971114 0.805226 0.185154 0.153178
H55   H     H_    0.176728 0.880275 0.195252 0.109794
H56   H     H_    0.361743 0.768089 0.610642 -0.032739
H57   H     H_    0.154273 0.756337 0.571979 0.078006
O1    O     O_2   0.875110 0.423180 0.326290 -0.463904
O2    O     O_3   0.712046 0.804847 0.647258 -0.660513
O3    O     O_3   0.074088 0.849840 0.321594 -0.599409
O4    O     O_2   0.314600 0.576860 0.673750 -0.455468
O5    O     O_3   0.066300 0.567050 0.585060 -0.492683
O6    O     O_3   0.528700 0.375020 0.630330 -0.462524
O7    O     O_3   0.180671 0.750325 0.680436 -0.635162
O8    O     O_3   0.611760 0.365720 0.463870 -0.485253
O9    O     O_3   0.107460 0.315620 0.594570 -0.486307
O10   O     O_2   0.188591 0.121033 0.543611 -0.476523
O11   O     O_3   0.115095 0.143607 0.674906 -0.608182
O12   O     O_3   0.123410 0.433040 0.414950 -0.494405
O13   O     O_3   0.577950 0.634370 0.536140 -0.501690
O14   O     O_2   0.341900 0.231310 0.465740 -0.458631
O15   O     O_3   0.494534 0.191194 0.345909 -0.652956
O16   O     O_2   0.455446 0.481816 0.751330 -0.491563
O17   O     O_3   0.474389 0.273589 0.749550 -0.604299
O18   O     O_3   0.661010 0.625070 0.369680 -0.466471
O19   O     O_2   0.734408 0.536143 0.243279 -0.504091
O20   O     O_3   0.010983 0.249773 0.319109 -0.635088
O21   O     O_3   0.708493 0.744307 0.257617 -0.587260
O22   O     O_2   0.847800 0.768730 0.534310 -0.451385
O23   O     O_3   0.082250 0.684470 0.405440 -0.487710
O24   O     O_2   0.003939 0.878804 0.454799 -0.481840
P1    P     P_3+3 0.042930 0.392230 0.337410 0.977946
P2    P     P_3+3 0.672230 0.754900 0.555730 0.961443
P3    P     P_3+3 0.124898 0.823675 0.406142 0.950844
P4    P     P_3+3 0.146790 0.607860 0.662600 0.989305
P5    P     P_3+3 0.065261 0.174476 0.591763 0.945657
P6    P     P_3+3 0.627329 0.618761 0.278686 0.950754
P7    P     P_3+3 0.519176 0.229790 0.438699 0.928663
P8    P     P_3+3 0.557787 0.393597 0.721666 0.939934
N1    N     N_2   0.562846 0.715296 0.807767 -0.405414
H58   H     H_    0.661404 0.681709 0.824345 0.185579
C53   C     C_3   0.475699 0.764006 0.866496 -0.231461
H59   H     H_    0.443658 0.705217 0.902501 0.113241
H60   H     H_    0.359793 0.786941 0.846290 0.115971
H61   H     H_    0.553448 0.837458 0.897610 0.092671

loop_
_geom_bond_atom_site_label_1
_geom_bond_atom_site_label_2
_ccdc_geom_bond_type
O24   P3    D    
C52   N1    S    
C8    H31   S    
O22   P2    D    
C42   P2    S    
C3    H17   S    
C11   H36   S    
Ba1   P2    S    
C4    H21   S    
C2    O21   S    
Ba2   O12   S    
C8    H34   S    
C24   C25   A    
C31   C37   A    
C41   P3    S    
C23   H23   S    
Ba2   P4    S    
O10   P5    D    
C5    H25   S    
C26   C27   A    
C33   C35   A    
C22   C24   A    
C12   H33   S    
C16   C17   A    
C3    H18   S    
Ba1   O18   S    
C50   H7    S    
Ba1   O1    S    
Ba1   O8    S    
C36   C37   A    
C51   H10   S    
C52   H14   S    
C38   C47   A    
C34   C45   S    
C15   P6    S    
Ba1   Ba2   S    
C40   C44   A    
O19   P6    D    
Ba2   O5    S    
C25   H43   S    
C14   C15   A    
C3    O15   S    
C48   H51   S    
C12   H44   S    
O9    P5    S    
Ba1   O5    S    
Ba1   P1    S    
C34   O7    S    
C7    C8    S    
C23   H55   S    
O5    P4    S    
C18   C32   S    
C39   C41   A    
O1    P1    D    
Ba1   O22   S    
C2    H15   S    
Ba2   O6    S    
C51   O2    S    
C4    H20   S    
C53   H60   S    
C24   H42   S    
C44   C46   A    
C9    C18   A    
C7    O17   S    
C20   C29   S    
C28   C32   A    
C49   C50   S    
C30   C33   A    
O13   P2    S    
C5    C6    S    
C1    H16   S    
N1    C53   S    
O20   P1    S    
C22   H41   S    
C49   O20   S    
C52   H13   S    
C17   P1    S    
C51   C52   S    
C10   C19   A    
O15   P7    S    
C6    H27   S    
C17   C21   A    
Ba1   O12   S    
C35   C36   A    
C45   H3    S    
C53   H61   S    
Ba2   O4    S    
C9    H35   S    
C29   C30   A    
C15   C21   A    
O14   P7    D    
Ba2   O8    S    
C34   H57   S    
C31   C32   A    
C10   P4    S    
C46   P7    S    
O16   P8    D    
C1    H22   S    
C7    H29   S    
C5    H24   S    
C13   P8    S    
C26   H45   S    
O4    P4    D    
C11   C13   A    
C2    H1    S    
C34   H56   S    
C39   C42   A    
C6    H28   S    
C1    H12   S    
C49   H5    S    
C40   C41   A    
C5    O11   S    
C1    C2    S    
C51   H11   S    
C42   C43   A    
C4    H19   S    
C38   H52   S    
C53   H59   S    
O21   P6    S    
C38   C46   A    
C8    H32   S    
O7    P4    S    
C14   C20   A    
C39   H53   S    
C11   C18   A    
O6    P8    S    
C16   C20   A    
N1    H58   S    
C50   H9    S    
C40   H50   S    
O23   P3    S    
C9    C10   A    
C37   H49   S    
Ba2   O13   S    
C21   H40   S    
O12   P1    S    
C16   H38   S    
C30   C31   A    
Ba1   O13   S    
O11   P5    S    
C27   C29   A    
C12   O3    S    
C45   H4    S    
C35   H47   S    
C3    C4    S    
C19   H39   S    
C43   C48   A    
C33   H46   S    
O2    P2    S    
O3    P3    S    
C12   C23   S    
O17   P8    S    
C22   C28   A    
C7    H30   S    
C27   C28   A    
Ba2   O14   S    
C43   C44   A    
C13   C19   A    
O18   P6    S    
C14   H37   S    
C36   H48   S    
C47   C48   A    
C47   P5    S    
C25   C26   A    
C6    H26   S    
O8    P7    S    
C50   H8    S    
C49   H6    S    
Ba2   O9    S    
Ba1   O23   S    
C23   H54   S    
C45   H2    S    
