data_mof_unit_24618.cif
_audit_creation_date              2012-12-10T17:35:34-0500
_audit_creation_method            fapswitch 2.2
_symmetry_space_group_name_H-M    P1
_symmetry_Int_Tables_number       1
_space_group_crystal_system       triclinic
_cell_length_a                    10.710065
_cell_length_b                    12.393939
_cell_length_c                    13.284683
_cell_angle_alpha                 117.38829
_cell_angle_beta                  76.012547
_cell_angle_gamma                 101.122084
_cell_volume                      1512.47181238

loop_
_atom_site_label
_atom_site_type_symbol
_atom_type_description
_atom_site_fract_x
_atom_site_fract_y
_atom_site_fract_z
_atom_type_partial_charge
C1    C     C_R   0.512407 0.854910 0.286803 0.765360
C2    C     C_3   0.121787 0.998967 0.499667 0.151015
C3    C     C_3   0.070984 0.121987 0.592009 -0.364763
C4    C     C_3   0.039864 0.894225 0.526574 -0.374280
C5    C     C_R   0.319164 0.281488 0.022477 -0.193824
C6    C     C_R   0.454515 0.228109 0.835430 -0.044808
C7    C     C_R   0.605158 0.811576 0.084662 -0.193923
C8    C     C_R   0.634131 0.730621 0.969526 -0.151120
C9    C     C_R   0.586644 0.608469 0.932387 -0.165673
C10   C     C_R   0.504039 0.565457 0.009941 0.083206
C11   C     C_R   0.462353 0.651463 0.124216 0.081852
C12   C     C_R   0.739725 0.999180 0.499266 0.739643
C13   C     C_R   0.459956 0.440232 0.977440 0.084696
C14   C     C_R   0.365029 0.404741 0.054654 0.168530
C15   C     C_R   0.314398 0.492839 0.161763 -0.241501
C16   C     C_R   0.361051 0.614560 0.195616 -0.199128
C17   C     C_R   0.507667 0.348838 0.870283 -0.220716
C18   C     C_R   0.362644 0.193537 0.912637 -0.197058
C19   C     C_R   0.522379 0.772578 0.163494 -0.103404
C20   C     C_R   0.708810 0.342263 0.325049 -0.308387
C21   C     C_R   0.307655 0.750324 0.626232 0.074137
C22   C     C_R   0.245207 0.639341 0.621332 -0.253382
C23   C     C_R   0.481460 0.145009 0.713352 0.813464
C24   C     C_R   0.310032 0.534545 0.558020 -0.151892
C25   C     C_R   0.442245 0.541498 0.510354 0.015501
C26   C     C_R   0.493129 0.651215 0.499895 0.290545
C27   C     C_R   0.520577 0.440509 0.461368 -0.067586
C28   C     C_R   0.633843 0.441674 0.380659 0.156615
C29   C     C_R   0.672833 0.543398 0.357620 -0.275637
C30   C     C_R   0.605983 0.647188 0.418258 -0.196983
C31   C     C_R   0.497819 0.343214 0.495006 0.283381
C32   C     C_R   0.675782 0.244077 0.353322 0.031093
C33   C     C_R   0.260190 0.999957 0.500082 0.759465
C34   C     C_3   0.959623 0.980747 0.380243 -0.386361
C35   C     C_3   0.103593 0.979455 0.379953 -0.378604
C36   C     C_3   0.926394 0.120779 0.593346 -0.384015
C37   C     C_3   0.897215 0.892772 0.524770 -0.367455
C38   C     C_3   0.877666 0.998317 0.499334 0.163711
Cu1   Cu    Cu3+1 0.529690 0.098270 0.475420 0.949704
Cu2   Cu    Cu3+1 0.470310 0.901730 0.524580 0.914409
H1    H     H_    0.948921 0.055919 0.360054 0.167555
H2    H     H_    0.049818 0.906513 0.612853 0.161773
H3    H     H_    0.869865 0.133696 0.679634 0.152223
H4    H     H_    0.085370 0.139183 0.678573 0.163018
H5    H     H_    0.320323 0.099982 0.886454 0.146093
H6    H     H_    0.238274 0.467628 0.219753 0.140987
H7    H     H_    0.246335 0.253855 0.080791 0.128548
H8    H     H_    0.584279 0.369121 0.810282 0.147632
H9    H     H_    0.650597 0.904265 0.112555 0.148933
H10   H     H_    0.613931 0.550962 0.841912 0.142620
H11   H     H_    0.697305 0.761869 0.909194 0.138018
H12   H     H_    0.925108 0.893491 0.311598 0.147213
H13   H     H_    0.314019 0.679426 0.277351 0.167483
H14   H     H_    0.733044 0.166942 0.309399 0.123931
H15   H     H_    0.758491 0.544443 0.294666 0.147094
H16   H     H_    0.793546 0.341040 0.260603 0.138525
H17   H     H_    0.255470 0.830797 0.671225 0.119986
H18   H     H_    0.254227 0.447849 0.543052 0.161821
H19   H     H_    0.642615 0.720105 0.394496 0.199602
H20   H     H_    0.138227 0.890725 0.312567 0.150335
H21   H     H_    0.161804 0.052620 0.357621 0.175314
H22   H     H_    0.912355 0.198684 0.578504 0.175412
H23   H     H_    0.125541 0.198094 0.572680 0.195911
H24   H     H_    0.838669 0.901943 0.609440 0.174460
H25   H     H_    0.864661 0.803231 0.457625 0.164896
H26   H     H_    0.074560 0.804417 0.461858 0.168638
N1    N     N_R   0.574690 0.246280 0.438200 -0.185984
N2    N     N_R   0.426100 0.754320 0.561190 -0.208087
O1    O     O_R   0.537340 0.972510 0.318130 -0.579609
O2    O     O_R   0.487200 0.806530 0.359650 -0.594456
O3    O     O_R   0.707380 0.082980 0.479220 -0.587323
O4    O     O_R   0.657240 0.917000 0.520740 -0.605299
O5    O     O_R   0.512800 0.193470 0.640350 -0.544826
O6    O     O_R   0.462660 0.027490 0.681870 -0.587845
O7    O     O_R   0.342760 0.083000 0.479260 -0.559767
O8    O     O_R   0.292620 0.917020 0.520780 -0.606129
I1    I     I_    0.365854 0.366251 0.653297 -0.437776
H27   H     H_    0.145198 0.633595 0.662160 0.143251

loop_
_geom_bond_atom_site_label_1
_geom_bond_atom_site_label_2
_ccdc_geom_bond_type
C2    C35   S    
C17   H8    S    
C20   H16   S    
C7    C8    A    
C31   N1    A    
C5    H7    S    
C11   C19   A    
C29   C30   A    
Cu2   O2    S    
C28   C29   A    
C15   C16   A    
C34   C35   S    
C16   H13   S    
C33   O7    A    
C8    C9    A    
C37   H25   S    
Cu1   O7    S    
C9    C10   A    
C12   O4    A    
C21   C22   A    
C34   H1    S    
C23   O5    A    
C36   H22   S    
C32   H14   S    
C31   I1    S    
C6    C18   A    
C3    H4    S    
C1    C19   S    
C27   C31   A    
C24   C25   A    
C22   H27   S    
Cu1   Cu2   S    
C5    C18   A    
C29   H15   S    
C25   C26   A    
C1    O1    A    
Cu2   O8    S    
C35   H20   S    
C2    C4    S    
C21   H17   S    
C37   C38   S    
C11   C16   A    
C33   O8    A    
C30   H19   S    
Cu1   O1    S    
C35   H21   S    
C8    H11   S    
C7    H9    S    
C5    C14   A    
C32   N1    A    
C2    C33   S    
C12   O3    A    
C26   C30   A    
C7    C19   A    
C21   N2    A    
C22   C24   A    
C23   O6    A    
C18   H5    S    
C37   H24   S    
C20   C32   A    
C6    C17   A    
Cu2   O4    S    
C34   C38   S    
Cu1   N1    S    
C9    H10   S    
C10   C13   A    
C3    H23   S    
C25   C27   A    
C20   C28   A    
C34   H12   S    
C1    O2    A    
C13   C17   A    
C26   N2    A    
C36   C38   S    
C2    C3    S    
C4    H26   S    
C4    H2    S    
C3    C36   S    
C6    C23   S    
Cu2   O6    S    
Cu1   O5    S    
C12   C38   S    
C10   C11   A    
C4    C37   S    
C24   H18   S    
Cu2   N2    S    
C27   C28   A    
Cu1   O3    S    
C14   C15   A    
C36   H3    S    
C15   H6    S    
C13   C14   A    
