data_mof_unit_66187.cif
_audit_creation_date              2012-12-10T16:55:20-0500
_audit_creation_method            fapswitch 2.2
_symmetry_space_group_name_H-M    P1
_symmetry_Int_Tables_number       1
_space_group_crystal_system       monoclinic
_cell_length_a                    29.350178
_cell_length_b                    31.021045
_cell_length_c                    20.820429
_cell_angle_alpha                 90.0
_cell_angle_beta                  132.482414
_cell_angle_gamma                 90.0
_cell_volume                      13980.0855877

loop_
_atom_site_label
_atom_site_type_symbol
_atom_type_description
_atom_site_fract_x
_atom_site_fract_y
_atom_site_fract_z
_atom_type_partial_charge
C1    C     C_R   0.309303 0.190792 0.119315 0.812122
C2    C     C_R   0.613994 0.868743 0.667235 -0.219581
C3    C     C_R   0.305957 0.813994 0.268766 0.096418
C4    C     C_R   0.742985 0.623969 0.135349 0.104004
C5    C     C_R   0.194043 0.313994 0.731234 0.096418
C6    C     C_R   0.257015 0.623969 0.864651 0.104006
C7    C     C_R   0.805956 0.313994 0.268766 0.096418
C8    C     C_R   0.211976 0.084578 0.113886 -0.321500
C9    C     C_R   0.681446 0.813342 0.652876 -0.340934
C10   C     C_R   0.788024 0.084578 0.886114 -0.321501
C11   C     C_R   0.318554 0.813342 0.347124 -0.340934
C12   C     C_R   0.711976 0.584577 0.113886 -0.321500
C13   C     C_R   0.658734 0.086674 0.763020 -0.220181
C14   C     C_R   0.181446 0.313342 0.652875 -0.340934
C15   C     C_R   0.288024 0.584577 0.886114 -0.321501
C16   C     C_R   0.818554 0.313342 0.347124 -0.340933
C17   C     C_R   0.244823 0.046450 0.151765 0.590238
C18   C     C_R   0.632506 0.835494 0.580692 0.587947
C19   C     C_R   0.755177 0.046450 0.848235 0.590237
C20   C     C_R   0.367494 0.835494 0.419308 0.587947
C21   C     C_R   0.744823 0.546450 0.151765 0.590237
C22   C     C_R   0.132506 0.335494 0.580692 0.587949
C23   C     C_R   0.255177 0.546450 0.848235 0.590238
C24   C     C_R   0.386006 0.868743 0.332765 -0.219582
C25   C     C_R   0.867494 0.335494 0.419308 0.587947
C26   C     C_R   0.308986 0.047421 0.215723 0.543080
C27   C     C_R   0.598676 0.862746 0.586872 0.569903
C28   C     C_R   0.691014 0.047421 0.784277 0.543080
C29   C     C_R   0.401324 0.862746 0.413128 0.569902
C30   C     C_R   0.808986 0.547421 0.215723 0.543081
C31   C     C_R   0.098676 0.362746 0.586872 0.569903
C32   C     C_R   0.191014 0.547421 0.784277 0.543080
C33   C     C_R   0.901324 0.362746 0.413128 0.569903
C34   C     C_3   0.446178 0.191133 0.252565 -0.348711
C35   C     C_R   0.841265 0.586674 0.236980 -0.220181
C36   C     C_3   0.449917 0.179986 0.184835 -0.788180
C37   C     C_3   0.615889 0.870860 0.877024 -0.356256
C38   C     C_3   0.568478 0.836692 0.850654 -0.768320
C39   C     C_3   0.553822 0.191133 0.747435 -0.348710
C40   C     C_3   0.550083 0.179986 0.815166 -0.788180
C41   C     C_3   0.384111 0.870860 0.122975 -0.356255
C42   C     C_3   0.431521 0.836692 0.149346 -0.768317
C43   C     C_3   0.946178 0.691133 0.252564 -0.348710
C44   C     C_3   0.949918 0.679986 0.184834 -0.788181
C45   C     C_3   0.115889 0.370860 0.877025 -0.356255
C46   C     C_R   0.113994 0.368743 0.667235 -0.219582
C47   C     C_3   0.068479 0.336692 0.850654 -0.768317
C48   C     C_3   0.053822 0.691133 0.747435 -0.348711
C49   C     C_3   0.050082 0.679986 0.815165 -0.788179
C50   C     C_3   0.884111 0.370860 0.122976 -0.356255
C51   C     C_3   0.931522 0.336692 0.149347 -0.768319
C52   C     C_3   0.206677 0.164447 0.115504 -0.357368
C53   C     C_3   0.182638 0.164410 0.161778 -0.805439
C54   C     C_3   0.751042 0.788726 0.802599 -0.338558
C55   C     C_3   0.741316 0.740287 0.780774 -0.714816
C56   C     C_3   0.793323 0.164447 0.884496 -0.357369
C57   C     C_R   0.158734 0.586674 0.763020 -0.220181
C58   C     C_3   0.817361 0.164410 0.838222 -0.805440
C59   C     C_3   0.248958 0.788726 0.197401 -0.338558
C60   C     C_3   0.258684 0.740287 0.219226 -0.714816
C61   C     C_3   0.706677 0.664447 0.115504 -0.357370
C62   C     C_3   0.682638 0.664410 0.161778 -0.805441
C63   C     C_3   0.251042 0.288726 0.802599 -0.338559
C64   C     C_3   0.241316 0.240287 0.780774 -0.714816
C65   C     C_3   0.293323 0.664447 0.884496 -0.357369
C66   C     C_3   0.317362 0.664410 0.838222 -0.805441
C67   C     C_3   0.748958 0.288726 0.197400 -0.338558
C68   C     C_R   0.886006 0.368743 0.332765 -0.219582
C69   C     C_3   0.758684 0.240287 0.219226 -0.714815
C70   C     C_R   0.308129 0.123764 0.186200 -0.041155
C71   C     C_R   0.657125 0.840610 0.738657 -0.031997
C72   C     C_R   0.691871 0.123764 0.813800 -0.041155
C73   C     C_R   0.692746 0.809110 0.880390 0.822924
C74   C     C_R   0.342875 0.840610 0.261343 -0.031997
C75   C     C_R   0.808129 0.623764 0.186200 -0.041155
C76   C     C_R   0.157125 0.340610 0.738657 -0.031997
C77   C     C_R   0.191871 0.623763 0.813800 -0.041155
C78   C     C_R   0.842875 0.340610 0.261343 -0.031997
C79   C     C_R   0.341610 0.158087 0.188295 -0.145471
C80   C     C_R   0.659870 0.841684 0.810979 -0.135313
C81   C     C_R   0.658390 0.158087 0.811705 -0.145471
C82   C     C_R   0.340130 0.841684 0.189021 -0.135313
C83   C     C_R   0.841610 0.658087 0.188295 -0.145471
C84   C     C_R   0.690697 0.190792 0.880685 0.812122
C85   C     C_R   0.159870 0.341684 0.810979 -0.135313
C86   C     C_R   0.158390 0.658087 0.811705 -0.145471
C87   C     C_R   0.840130 0.341684 0.189021 -0.135313
C88   C     C_R   0.407349 0.158097 0.251624 0.034621
C89   C     C_R   0.624167 0.872355 0.812105 0.034308
C90   C     C_R   0.592651 0.158097 0.748375 0.034620
C91   C     C_R   0.375832 0.872355 0.187895 0.034307
C92   C     C_R   0.907349 0.658097 0.251624 0.034620
C93   C     C_R   0.124168 0.372355 0.812105 0.034308
C94   C     C_R   0.092651 0.658097 0.748375 0.034621
C95   C     C_R   0.307254 0.809110 0.119610 0.822925
C96   C     C_R   0.875833 0.372355 0.187895 0.034308
C97   C     C_R   0.438214 0.125132 0.313395 0.557651
C98   C     C_R   0.591404 0.903814 0.747773 0.592786
C99   C     C_R   0.561786 0.125132 0.686605 0.557651
C100  C     C_R   0.408596 0.903814 0.252227 0.592788
C101  C     C_R   0.938214 0.625132 0.313395 0.557651
C102  C     C_R   0.091404 0.403814 0.747773 0.592787
C103  C     C_R   0.061785 0.625132 0.686605 0.557651
C104  C     C_R   0.908596 0.403814 0.252227 0.592788
C105  C     C_R   0.405672 0.089893 0.306737 -0.182184
C106  C     C_R   0.809303 0.690792 0.119315 0.812122
C107  C     C_R   0.587179 0.902546 0.677283 -0.136280
C108  C     C_R   0.594328 0.089893 0.693263 -0.182184
C109  C     C_R   0.412821 0.902546 0.322717 -0.136281
C110  C     C_R   0.905672 0.589893 0.306737 -0.182184
C111  C     C_R   0.087179 0.402546 0.677283 -0.136281
C112  C     C_R   0.094328 0.589893 0.693263 -0.182184
C113  C     C_R   0.912821 0.402546 0.322717 -0.136281
C114  C     C_R   0.941738 0.438896 0.382389 1.083889
C115  C     C_R   0.060751 0.558445 0.622985 0.978561
C116  C     C_R   0.058262 0.438896 0.617611 1.083888
C117  C     C_R   0.192746 0.309110 0.880390 0.822925
C118  C     C_R   0.939249 0.558445 0.377014 0.978562
C119  C     C_R   0.441738 0.938896 0.382389 1.083890
C120  C     C_R   0.560751 0.058445 0.622985 0.978561
C121  C     C_R   0.558262 0.938896 0.617611 1.083889
C122  C     C_R   0.439249 0.058445 0.377014 0.978562
C123  C     C_R   0.335165 0.248652 0.001341 0.781806
C124  C     C_R   0.665279 0.751039 0.999594 0.773959
C125  C     C_R   0.664835 0.248652 0.998659 0.781807
C126  C     C_R   0.334721 0.751039 0.000406 0.773958
C127  C     C_R   0.835165 0.748652 0.001341 0.781807
C128  C     C_R   0.190697 0.690792 0.880685 0.812122
C129  C     C_R   0.165279 0.251039 0.999594 0.773958
C130  C     C_R   0.164835 0.748652 0.998659 0.781807
C131  C     C_R   0.834721 0.251039 0.000406 0.773958
C132  C     C_1   0.386134 0.247853 0.000614 -0.197227
C133  C     C_1   0.614265 0.752168 0.000206 -0.186846
C134  C     C_1   0.613866 0.247853 0.999386 -0.197227
C135  C     C_1   0.385735 0.752168 0.999794 -0.186846
C136  C     C_1   0.886134 0.747853 0.000614 -0.197227
C137  C     C_1   0.114265 0.252168 0.000206 -0.186846
C138  C     C_1   0.113866 0.747853 0.999386 -0.197227
C139  C     C_R   0.807254 0.309110 0.119610 0.822925
C140  C     C_1   0.885735 0.252168 0.999794 -0.186846
C141  C     C_1   0.428469 0.247539 0.000281 0.006326
C142  C     C_1   0.571757 0.752610 0.000189 0.004018
C143  C     C_1   0.571531 0.247539 0.999719 0.006325
C144  C     C_1   0.428243 0.752610 0.999811 0.004018
C145  C     C_1   0.928469 0.747538 0.000281 0.006326
C146  C     C_1   0.071757 0.252610 0.000189 0.004017
C147  C     C_1   0.071530 0.747538 0.999719 0.006326
C148  C     C_1   0.928242 0.252610 0.999811 0.004018
C149  C     C_1   0.478779 0.247390 0.000068 0.016702
C150  C     C_R   0.341265 0.086674 0.236980 -0.220181
C151  C     C_1   0.521285 0.752788 0.000066 0.016318
C152  C     C_1   0.521221 0.247390 0.999932 0.016702
C153  C     C_1   0.478715 0.752788 0.999934 0.016318
C154  C     C_1   0.978779 0.747390 0.000068 0.016702
C155  C     C_1   0.021285 0.252788 0.000066 0.016318
C156  C     C_1   0.021221 0.747390 0.999932 0.016702
C157  C     C_1   0.978715 0.252788 0.999934 0.016318
C158  C     C_R   0.242985 0.123969 0.135349 0.104005
C159  C     C_R   0.694043 0.813994 0.731234 0.096418
C160  C     C_R   0.757015 0.123969 0.864651 0.104005
Cu1   Cu    Cu3+1 0.280720 0.280980 0.061500 0.969741
Cu2   Cu    Cu3+1 0.957580 0.500000 0.500070 1.153795
Cu3   Cu    Cu3+1 0.542420 0.000000 0.499930 1.153794
Cu4   Cu    Cu3+1 0.457580 0.000000 0.500070 1.153795
Cu5   Cu    Cu3+1 0.719280 0.719020 0.938500 0.956009
Cu6   Cu    Cu3+1 0.719280 0.280980 0.938500 0.969741
Cu7   Cu    Cu3+1 0.280720 0.719020 0.061500 0.956009
Cu8   Cu    Cu3+1 0.780720 0.780980 0.061500 0.969741
Cu9   Cu    Cu3+1 0.219280 0.219020 0.938500 0.956009
Cu10  Cu    Cu3+1 0.219280 0.780980 0.938500 0.969741
Cu11  Cu    Cu3+1 0.780720 0.219020 0.061500 0.956009
Cu12  Cu    Cu3+1 0.042420 0.500000 0.499930 1.153794
F1    F     F_    0.214175 0.008669 0.130369 -0.612336
F2    F     F_    0.549561 0.882092 0.512224 -0.630634
F3    F     F_    0.660902 0.009382 0.748175 -0.653543
F4    F     F_    0.450439 0.882092 0.487776 -0.630634
F5    F     F_    0.839097 0.509382 0.251825 -0.653544
F6    F     F_    0.049561 0.382092 0.512224 -0.630634
F7    F     F_    0.160902 0.509382 0.748175 -0.653543
F8    F     F_    0.950439 0.382092 0.487775 -0.630634
F9    F     F_    0.500741 0.126650 0.379413 -0.665477
F10   F     F_    0.562127 0.935820 0.752698 -0.651052
F11   F     F_    0.499259 0.126650 0.620587 -0.665477
F12   F     F_    0.619032 0.831650 0.504468 -0.612322
F13   F     F_    0.437873 0.935820 0.247302 -0.651053
F14   F     F_    0.000741 0.626650 0.379412 -0.665477
F15   F     F_    0.062127 0.435820 0.752698 -0.651052
F16   F     F_    0.999259 0.626650 0.620587 -0.665477
F17   F     F_    0.937873 0.435820 0.247303 -0.651053
F18   F     F_    0.785825 0.008669 0.869631 -0.612336
F19   F     F_    0.380968 0.831650 0.495531 -0.612322
F20   F     F_    0.714175 0.508669 0.130369 -0.612336
F21   F     F_    0.119032 0.331650 0.504468 -0.612322
F22   F     F_    0.285825 0.508669 0.869631 -0.612336
F23   F     F_    0.880968 0.331650 0.495531 -0.612322
F24   F     F_    0.339097 0.009382 0.251825 -0.653543
H1    H     H_    0.162106 0.083692 0.070575 0.196077
H2    H     H_    0.403152 0.178024 0.118776 0.235384
H3    H     H_    0.476766 0.205163 0.184749 0.242544
H4    H     H_    0.428760 0.224333 0.242660 0.217660
H5    H     H_    0.494108 0.192301 0.317144 0.257751
H6    H     H_    0.522825 0.844578 0.785829 0.286249
H7    H     H_    0.582925 0.804350 0.847415 0.242466
H8    H     H_    0.563581 0.835832 0.899055 0.238819
H9    H     H_    0.659792 0.865599 0.944677 0.219608
H10   H     H_    0.599287 0.902227 0.880253 0.261976
H11   H     H_    0.526510 0.148478 0.799225 0.272480
H12   H     H_    0.709900 0.795038 0.646955 0.197795
H13   H     H_    0.596848 0.178024 0.881224 0.235385
H14   H     H_    0.523234 0.205163 0.815251 0.242545
H15   H     H_    0.571240 0.224333 0.757340 0.217659
H16   H     H_    0.505892 0.192301 0.682856 0.257750
H17   H     H_    0.477175 0.844578 0.214171 0.286248
H18   H     H_    0.417075 0.804350 0.152585 0.242465
H19   H     H_    0.436419 0.835832 0.100945 0.238819
H20   H     H_    0.340207 0.865599 0.055323 0.219608
H21   H     H_    0.400713 0.902227 0.119748 0.261975
H22   H     H_    0.973490 0.648478 0.200775 0.272481
H23   H     H_    0.837894 0.083692 0.929425 0.196077
H24   H     H_    0.903152 0.678024 0.118776 0.235385
H25   H     H_    0.976766 0.705163 0.184749 0.242545
H26   H     H_    0.928760 0.724333 0.242660 0.217660
H27   H     H_    0.994108 0.692301 0.317144 0.257751
H28   H     H_    0.022825 0.344578 0.785829 0.286248
H29   H     H_    0.082925 0.304350 0.847415 0.242465
H30   H     H_    0.063581 0.335832 0.899055 0.238818
H31   H     H_    0.159792 0.365599 0.944677 0.219608
H32   H     H_    0.099287 0.402227 0.880253 0.261976
H33   H     H_    0.026510 0.648478 0.799225 0.272480
H34   H     H_    0.290100 0.795038 0.353045 0.197795
H35   H     H_    0.096848 0.678024 0.881224 0.235384
H36   H     H_    0.023234 0.705163 0.815251 0.242544
H37   H     H_    0.071240 0.724333 0.757340 0.217660
H38   H     H_    0.005891 0.692301 0.682856 0.257751
H39   H     H_    0.977175 0.344578 0.214172 0.286249
H40   H     H_    0.917075 0.304350 0.152586 0.242466
H41   H     H_    0.936419 0.335832 0.100946 0.238819
H42   H     H_    0.840208 0.365599 0.055323 0.219608
H43   H     H_    0.900713 0.402226 0.119748 0.261976
H44   H     H_    0.147103 0.139046 0.134947 0.254827
H45   H     H_    0.662106 0.583692 0.070575 0.196077
H46   H     H_    0.221312 0.159002 0.232756 0.266417
H47   H     H_    0.161196 0.196039 0.152486 0.246612
H48   H     H_    0.235207 0.193788 0.138494 0.197050
H49   H     H_    0.167000 0.166502 0.044181 0.215163
H50   H     H_    0.705803 0.726950 0.779817 0.274125
H51   H     H_    0.726161 0.733780 0.716440 0.225968
H52   H     H_    0.785397 0.722606 0.828829 0.237149
H53   H     H_    0.789744 0.799848 0.808421 0.195829
H54   H     H_    0.767164 0.795495 0.866605 0.181092
H55   H     H_    0.852897 0.139046 0.865053 0.254827
H56   H     H_    0.209900 0.295038 0.646955 0.197795
H57   H     H_    0.778687 0.159002 0.767244 0.266418
H58   H     H_    0.838804 0.196039 0.847514 0.246613
H59   H     H_    0.764793 0.193788 0.861505 0.197050
H60   H     H_    0.832999 0.166502 0.955819 0.215163
H61   H     H_    0.294197 0.726950 0.220183 0.274126
H62   H     H_    0.273838 0.733780 0.283560 0.225967
H63   H     H_    0.214602 0.722606 0.171171 0.237149
H64   H     H_    0.210256 0.799849 0.191579 0.195829
H65   H     H_    0.232836 0.795495 0.133395 0.181092
H66   H     H_    0.647103 0.639046 0.134947 0.254828
H67   H     H_    0.337894 0.583692 0.929425 0.196077
H68   H     H_    0.721312 0.659002 0.232756 0.266418
H69   H     H_    0.661196 0.696039 0.152486 0.246613
H70   H     H_    0.735207 0.693788 0.138495 0.197051
H71   H     H_    0.667001 0.666502 0.044181 0.215163
H72   H     H_    0.205803 0.226950 0.779817 0.274126
H73   H     H_    0.226161 0.233781 0.716440 0.225967
H74   H     H_    0.285398 0.222606 0.828829 0.237149
H75   H     H_    0.289744 0.299848 0.808421 0.195829
H76   H     H_    0.267164 0.295495 0.866605 0.181092
H77   H     H_    0.352897 0.639046 0.865053 0.254827
H78   H     H_    0.790100 0.295038 0.353045 0.197795
H79   H     H_    0.278688 0.659002 0.767244 0.266417
H80   H     H_    0.338804 0.696039 0.847514 0.246613
H81   H     H_    0.264793 0.693788 0.861505 0.197051
H82   H     H_    0.332999 0.666502 0.955819 0.215163
H83   H     H_    0.794197 0.226950 0.220183 0.274126
H84   H     H_    0.773838 0.233781 0.283560 0.225967
H85   H     H_    0.714602 0.222606 0.171171 0.237149
H86   H     H_    0.710256 0.299849 0.191579 0.195829
H87   H     H_    0.732836 0.295495 0.133395 0.181092
H88   H     H_    0.473490 0.148478 0.200775 0.272481
O1    O     O_R   0.321010 0.231060 0.142100 -0.590040
O2    O     O_R   0.730960 0.821350 0.961860 -0.581183
O3    O     O_R   0.730960 0.178650 0.961860 -0.567471
O4    O     O_R   0.269040 0.821350 0.038140 -0.581183
O5    O     O_R   0.769040 0.678650 0.038140 -0.567471
O6    O     O_R   0.230960 0.321350 0.961860 -0.581183
O7    O     O_R   0.230960 0.678650 0.961860 -0.567471
O8    O     O_R   0.769040 0.321350 0.038140 -0.581183
O9    O     O_R   0.337910 0.276140 0.051940 -0.554103
O10   O     O_R   0.662090 0.723860 0.948060 -0.566956
O11   O     O_R   0.662090 0.276140 0.948060 -0.554103
O12   O     O_R   0.678990 0.768940 0.857900 -0.570655
O13   O     O_R   0.337910 0.723860 0.051940 -0.566956
O14   O     O_R   0.837910 0.776140 0.051940 -0.554103
O15   O     O_R   0.162090 0.223860 0.948060 -0.566956
O16   O     O_R   0.162090 0.776140 0.948060 -0.554103
O17   O     O_R   0.837910 0.223860 0.051940 -0.566956
O18   O     O_R   0.285940 0.223740 0.947980 -0.573395
O19   O     O_R   0.714060 0.776260 0.052020 -0.557585
O20   O     O_R   0.714060 0.223740 0.052020 -0.573395
O21   O     O_R   0.285940 0.776260 0.947980 -0.557584
O22   O     O_R   0.785940 0.723740 0.947980 -0.573395
O23   O     O_R   0.678990 0.231060 0.857900 -0.590040
O24   O     O_R   0.214060 0.276260 0.052020 -0.557585
O25   O     O_R   0.214060 0.723740 0.052020 -0.573395
O26   O     O_R   0.785940 0.276260 0.947980 -0.557585
O27   O     O_R   0.990910 0.454660 0.410130 -0.527388
O28   O     O_R   0.009090 0.545340 0.589870 -0.555253
O29   O     O_R   0.009090 0.454660 0.589870 -0.527387
O30   O     O_R   0.990910 0.545340 0.410130 -0.555254
O31   O     O_R   0.490910 0.954660 0.410130 -0.527388
O32   O     O_R   0.509090 0.045340 0.589870 -0.555253
O33   O     O_R   0.509090 0.954660 0.589870 -0.527387
O34   O     O_R   0.321010 0.768940 0.142100 -0.570655
O35   O     O_R   0.490910 0.045340 0.410130 -0.555254
O36   O     O_R   0.919170 0.454670 0.410130 -0.564954
O37   O     O_R   0.080830 0.545330 0.589870 -0.579505
O38   O     O_R   0.080830 0.454670 0.589870 -0.564955
O39   O     O_R   0.919170 0.545330 0.410130 -0.579505
O40   O     O_R   0.419170 0.954670 0.410130 -0.564955
O41   O     O_R   0.580830 0.045330 0.589870 -0.579505
O42   O     O_R   0.580830 0.954670 0.589870 -0.564955
O43   O     O_R   0.419170 0.045330 0.410130 -0.579505
O44   O     O_R   0.821010 0.731060 0.142100 -0.590040
O45   O     O_R   0.178990 0.268940 0.857900 -0.570655
O46   O     O_R   0.178990 0.731060 0.857900 -0.590040
O47   O     O_R   0.821010 0.268940 0.142100 -0.570655
O48   O     O_R   0.269040 0.178650 0.038140 -0.567471

loop_
_geom_bond_atom_site_label_1
_geom_bond_atom_site_label_2
_ccdc_geom_bond_type
Cu4   O40   S    
C117  O6    A    
C37   H10   S    
C108  C120  S    
C70   C150  A    
C26   F24   S    
C110  C118  S    
Cu5   O22   S    
Cu12  O27   S    
C48   C94   S    
C124  C133  S    
C62   H69   S    
C34   H5    S    
C95   O4    A    
C69   H83   S    
Cu3   O41   S    
C51   H39   S    
C60   H62   S    
C3    C74   A    
C61   H71   S    
Cu3   O35   S    
C131  C140  S    
C134  C143  T    
C125  O20   A    
C128  O7    A    
Cu2   O28   S    
C91   C100  A    
C4    C12   A    
C88   C97   A    
C97   C105  A    
C100  C109  A    
Cu7   O13   S    
C38   H8    S    
C33   F8    S    
C102  C111  A    
C32   C57   A    
C53   H44   S    
C125  O11   A    
C17   F1    S    
Cu5   O12   S    
C45   C47   S    
C52   C158  S    
Cu6   O11   S    
Cu10  O4    S    
C11   C20   A    
C24   C109  A    
C86   C128  S    
C137  C146  T    
C43   H26   S    
C44   H22   S    
C127  C136  S    
C67   H87   S    
C106  O5    A    
C21   F20   S    
C101  C110  A    
C40   H13   S    
C82   C91   A    
C130  O16   A    
C103  C112  A    
C142  C151  S    
C43   C44   S    
C37   C38   S    
C85   C117  S    
Cu9   O15   S    
Cu12  O37   S    
C64   H74   S    
C81   C90   A    
Cu3   O31   S    
C96   C104  A    
Cu11  O47   S    
C1    C79   S    
C59   H64   S    
C2    C71   A    
C130  C138  S    
C10   C160  A    
C16   C25   A    
Cu6   O23   S    
C70   C79   A    
C84   O23   A    
C28   F3    S    
C13   C72   A    
C8    C17   A    
C5    C76   A    
C127  O14   A    
C50   C96   S    
C47   H30   S    
C23   F22   S    
C54   H53   S    
C58   H58   S    
C151  C153  T    
C3    C11   A    
C34   H4    S    
C129  C137  S    
C106  O44   A    
C38   H6    S    
C65   H82   S    
C66   H77   S    
Cu10  O21   S    
Cu7   O7    S    
C76   C85   A    
C78   C87   A    
C123  C132  S    
C44   H24   S    
C36   H3    S    
Cu9   O18   S    
C45   C93   S    
C20   F19   S    
C115  O37   A    
C139  O47   A    
Cu9   O48   S    
C99   C108  A    
C133  C142  T    
C120  O32   A    
C50   H43   S    
C121  O42   A    
C45   H31   S    
C63   H75   S    
C42   H19   S    
C54   C159  S    
C85   C93   A    
C73   O2    A    
C31   C46   A    
C99   F11   S    
C48   H37   S    
Cu1   Cu9   S    
C120  O41   A    
Cu1   O24   S    
C58   H55   S    
C13   C108  A    
C124  O10   A    
C27   F2    S    
C10   H23   S    
C31   F6    S    
C15   H67   S    
C126  O21   A    
C16   H78   S    
C39   C40   S    
C127  O22   A    
C129  O15   A    
Cu12  O30   S    
C43   H27   S    
Cu8   O14   S    
C13   C28   A    
C19   C28   A    
C2    C27   A    
C117  O45   A    
C145  C154  S    
Cu8   O2    S    
C41   C91   S    
C55   H52   S    
C56   H60   S    
C123  O9    A    
C90   C99   A    
C52   C53   S    
C132  C141  T    
C54   C55   S    
C82   C95   S    
Cu12  O38   S    
C131  O17   A    
C53   H47   S    
C41   H21   S    
C11   H34   S    
C102  F15   S    
Cu6   O26   S    
C89   C98   A    
C14   C22   A    
C49   H36   S    
Cu2   O36   S    
C100  F13   S    
C42   H17   S    
Cu11  O17   S    
C104  F17   S    
C56   C58   S    
C105  C122  S    
C34   C36   S    
C148  C157  S    
C61   C62   S    
C61   H70   S    
C7    C67   S    
Cu4   O33   S    
C9    C18   A    
C59   C60   S    
Cu2   Cu12  S    
Cu8   O44   S    
C33   C68   A    
C25   C33   A    
C125  C134  S    
C155  C157  T    
C41   C42   S    
C66   H80   S    
C8    C158  A    
C52   H49   S    
C1    O1    A    
C66   H79   S    
C126  O13   A    
C105  C150  A    
C73   O12   A    
C36   H2    S    
Cu11  O3    S    
C14   H56   S    
Cu9   O45   S    
C40   H14   S    
C5    C63   S    
C80   C89   A    
C24   C29   A    
C139  O8    A    
C4    C75   A    
C6    C65   S    
C146  C155  S    
C55   H50   S    
C22   F21   S    
C111  C116  S    
C154  C156  T    
C72   C81   A    
C68   C113  A    
C118  O30   A    
C40   H11   S    
C128  O46   A    
C46   C111  A    
C121  O33   A    
C140  C148  T    
C37   H9    S    
C74   C82   A    
C79   C88   A    
C59   H65   S    
C68   C78   A    
C57   C77   A    
C26   C150  A    
C123  O18   A    
C64   H72   S    
C62   H68   S    
C69   H84   S    
C98   C107  A    
Cu3   O42   S    
C51   H40   S    
C70   C158  A    
C60   H61   S    
C98   F10   S    
C122  O43   A    
C116  O29   A    
C47   H29   S    
C18   F12   S    
C10   C19   A    
C50   C51   S    
C54   H54   S    
C34   C88   S    
C147  C156  S    
C5    C14   A    
C35   C110  A    
C92   C101  A    
C143  C152  S    
C84   O3    A    
C94   C103  A    
C38   H7    S    
C65   H81   S    
C119  O31   A    
Cu10  O46   S    
C114  O36   A    
C107  C121  S    
C29   F4    S    
C109  C119  S    
Cu5   O5    S    
C113  C114  S    
Cu1   O9    S    
C103  F16   S    
C43   C92   S    
C87   C139  S    
C9    H12   S    
C93   C102  A    
C21   C30   A    
C83   C106  S    
C37   C89   S    
C23   C32   A    
C115  O28   A    
C118  O39   A    
C75   C83   A    
C48   C49   S    
C4    C61   S    
C104  C113  A    
C49   H33   S    
C64   H73   S    
C12   H45   S    
C124  O19   A    
Cu7   O34   S    
C95   O34   A    
C48   H38   S    
Cu4   O32   S    
Cu2   O39   S    
C47   H28   S    
Cu3   Cu4   S    
C116  O38   A    
C62   H66   S    
C46   C76   A    
C141  C149  S    
C83   C92   A    
C35   C75   A    
Cu7   O25   S    
C30   C35   A    
C17   C26   A    
C60   H63   S    
C52   H48   S    
C129  O24   A    
C57   C112  A    
C9    C159  A    
C2    C107  A    
C58   H57   S    
C144  C153  S    
C86   C94   A    
C6    C15   A    
C1    O48   A    
C73   C80   S    
C69   H85   S    
C39   H16   S    
Cu8   O19   S    
C32   F7    S    
C39   C90   S    
C136  C145  T    
C25   F23   S    
Cu6   O8    S    
Cu6   Cu11  S    
C55   H51   S    
C8    H1    S    
C67   H86   S    
C71   C80   A    
Cu1   O1    S    
Cu7   Cu10  S    
C20   C29   A    
C131  O26   A    
C22   C31   A    
C114  O27   A    
C50   H42   S    
C53   H46   S    
C36   H88   S    
C149  C152  T    
C41   H20   S    
C6    C77   A    
C12   C21   A    
C63   C64   S    
C67   C69   S    
C45   H32   S    
C49   H35   S    
Cu2   O29   S    
C63   H76   S    
C42   H18   S    
Cu11  O20   S    
Cu4   O43   S    
C138  C147  T    
C87   C96   A    
C39   H15   S    
C51   H41   S    
Cu10  O16   S    
C7    C78   A    
C135  C144  T    
C77   C86   A    
C119  O40   A    
Cu5   Cu8   S    
C101  F14   S    
C81   C84   S    
C7    C16   A    
C18   C27   A    
C126  C135  S    
C97   F9    S    
Cu5   O10   S    
C71   C159  A    
C72   C160  A    
Cu1   O6    S    
C56   C160  S    
C24   C74   A    
C15   C23   A    
C30   F5    S    
C19   F18   S    
C122  O35   A    
C65   C66   S    
C56   H59   S    
C44   H25   S    
C112  C115  S    
C130  O25   A    
C3    C59   S    
