data_mof_unit_58848.cif
_audit_creation_date              2012-12-11T15:48:12-0500
_audit_creation_method            fapswitch 2.2
_symmetry_space_group_name_H-M    P1
_symmetry_Int_Tables_number       1
_space_group_crystal_system       triclinic
_cell_length_a                    6.959121
_cell_length_b                    17.54699
_cell_length_c                    19.545783
_cell_angle_alpha                 108.390121
_cell_angle_beta                  88.975429
_cell_angle_gamma                 90.899152
_cell_volume                      2264.38696523

loop_
_atom_site_label
_atom_site_type_symbol
_atom_type_description
_atom_site_fract_x
_atom_site_fract_y
_atom_site_fract_z
_atom_type_partial_charge
O1    O     O_R   0.494330 0.415710 0.413720 -0.518376
O2    O     O_R   0.819360 0.430070 0.560210 -0.546715
O3    O     O_R   0.994320 0.584290 0.586280 -0.523741
C1    C     C_R   0.649486 0.417300 0.583403 0.747312
O4    O     O_R   0.823740 0.406290 0.412670 -0.509829
O5    O     O_R   0.998730 0.560340 0.437690 -0.521425
C2    C     C_R   0.655783 0.383105 0.384648 0.756590
O6    O     O_R   0.489920 0.439660 0.562310 -0.551809
O7    O     O_3   0.662330 0.550570 0.508380 -0.366731
V1    V     V_3+5 0.935370 0.490620 0.498440 1.521360
O8    O     O_R   0.328720 0.569930 0.439790 -0.531785
C3    C     C_R   0.160369 0.584923 0.418088 0.777357
O9    O     O_R   0.324340 0.593710 0.587330 -0.547129
C4    C     C_R   0.154698 0.616699 0.615362 0.684017
V2    V     V_3+5 0.435940 0.509380 0.501560 1.495634
O10   O     O_3   0.159110 0.449430 0.491620 -0.375778
C5    C     C_R   0.307743 0.720515 0.720863 -0.245277
H1    H     H_    0.447342 0.697649 0.700643 0.237899
C6    C     C_R   0.296212 0.787101 0.783250 -0.227122
H2    H     H_    0.427534 0.817095 0.806256 0.222458
C7    C     C_R   0.118493 0.812654 0.817216 -0.233866
C8    C     C_R   0.950521 0.771657 0.784029 0.349894
C9    C     C_R   0.961751 0.717280 0.713760 0.398471
C10   C     C_R   0.141504 0.685523 0.683882 -0.237313
C11   C     C_R   0.025400 0.611436 0.309594 0.395831
C12   C     C_R   0.146596 0.636242 0.370247 -0.309773
C13   C     C_R   0.237377 0.713024 0.388441 0.352202
C14   C     C_R   0.232754 0.758337 0.339762 -0.060902
C15   C     C_R   0.124618 0.729431 0.275744 -0.089138
C16   C     C_R   0.011675 0.658927 0.263226 -0.031758
C17   C     C_R   0.325490 0.834153 0.354557 0.468265
C18   C     C_R   0.343700 0.870521 0.300472 -0.271570
C19   C     C_R   0.233036 0.844272 0.238458 -0.045313
C20   C     C_R   0.118809 0.774257 0.226521 -0.089826
C21   C     C_R   0.999036 0.749162 0.165614 -0.089525
C22   C     C_R   0.873172 0.682979 0.157818 0.468517
C23   C     C_R   0.882374 0.638412 0.205642 -0.237669
C24   C     C_R   0.224449 0.890546 0.191298 0.378767
C25   C     C_R   0.111165 0.864019 0.129048 -0.278346
C26   C     C_R   0.007267 0.791084 0.114248 0.378730
H3    H     H_    0.429234 0.925104 0.311570 0.178294
H4    H     H_    0.784291 0.588026 0.197340 0.164998
C27   C     C_R   0.633944 0.221937 0.900089 0.344682
C28   C     C_R   0.629770 0.137287 0.871702 -0.172930
C29   C     C_R   0.637883 0.100500 0.796873 -0.230184
C30   C     C_R   0.648281 0.146505 0.749300 -0.050813
C31   C     C_R   0.645012 0.231158 0.777305 -0.049186
C32   C     C_R   0.636113 0.269046 0.852836 0.064037
C33   C     C_R   0.658870 0.109016 0.674073 0.392324
C34   C     C_R   0.669398 0.155530 0.626870 0.323030
C35   C     C_R   0.655758 0.239906 0.654364 -0.051929
C36   C     C_R   0.645530 0.277932 0.729726 -0.044501
C37   C     C_R   0.632764 0.362659 0.757562 0.060216
C38   C     C_R   0.627649 0.399391 0.832772 -0.186002
C39   C     C_R   0.628947 0.353371 0.879596 -0.179765
C40   C     C_R   0.649570 0.286725 0.607624 -0.260267
C41   C     C_R   0.638175 0.370374 0.634453 -0.165779
C42   C     C_R   0.624922 0.408808 0.709636 0.395558
H5    H     H_    0.636050 0.035474 0.776070 0.165235
H6    H     H_    0.653499 0.258656 0.549686 0.149770
H7    H     H_    0.621637 0.464106 0.855939 0.162100
H8    H     H_    0.622610 0.384314 0.937069 0.165127
C43   C     C_R   0.799658 0.259809 0.292076 0.375385
C44   C     C_R   0.786343 0.196466 0.226671 -0.242262
H9    H     H_    0.907396 0.156624 0.209145 0.141770
C45   C     C_R   0.620484 0.184304 0.184368 -0.185656
C46   C     C_R   0.470304 0.239396 0.206854 -0.240879
H10   H     H_    0.344146 0.233494 0.173817 0.160999
C47   C     C_R   0.486287 0.305999 0.269454 0.457668
C48   C     C_R   0.647099 0.315014 0.315101 -0.271728
O11   O     O_R   0.774940 0.060470 0.937800 -0.550151
O12   O     O_R   0.440880 0.093730 0.087350 -0.538031
O13   O     O_R   0.266130 0.939630 0.062280 -0.522574
C49   C     C_R   0.609352 0.116490 0.115483 0.773757
O14   O     O_R   0.445480 0.069960 0.939820 -0.535252
O15   O     O_R   0.270770 0.915690 0.913690 -0.552764
C50   C     C_R   0.616025 0.086363 0.919535 0.747086
O16   O     O_R   0.770300 0.084410 0.086380 -0.549481
O17   O     O_3   0.602600 0.949510 0.991670 -0.368790
V3    V     V_3+5 0.329470 0.009370 0.001550 1.453327
O18   O     O_R   0.940760 0.906160 0.912560 -0.516741
C51   C     C_R   0.109772 0.882134 0.885364 0.718593
O19   O     O_R   0.936150 0.929930 0.060100 -0.532290
C52   C     C_R   0.103931 0.912820 0.079594 0.789398
V4    V     V_3+5 0.828930 0.990450 0.998310 1.469498
O20   O     O_3   0.105670 0.050490 0.008320 -0.384177
O21   O     O_3   0.925238 0.758085 0.047318 -0.529922
C53   C     C_3   0.056163 0.702174 0.003143 -0.219407
H11   H     H_    0.978958 0.662608 0.955801 0.149573
H12   H     H_    0.118360 0.661528 0.030558 0.134032
H13   H     H_    0.173487 0.734092 0.983553 0.099121
O22   O     O_3   0.741727 0.659893 0.102649 -0.536433
C54   C     C_3   0.566598 0.698804 0.128188 -0.178749
H14   H     H_    0.584196 0.765333 0.145371 0.154073
H15   H     H_    0.504936 0.679641 0.173193 0.119913
H16   H     H_    0.461878 0.681848 0.083653 0.142607
O23   O     O_3   0.625565 0.258637 0.973942 -0.565913
C55   C     C_3   0.815195 0.271335 0.000141 0.077516
H17   H     H_    0.907940 0.301053 0.968649 0.122548
H18   H     H_    0.880873 0.213391 0.998454 0.139250
C56   C     C_3   0.810384 0.325717 0.077907 -0.732232
H19   H     H_    0.718819 0.298561 0.111243 0.228125
H20   H     H_    0.958185 0.334361 0.099770 0.184512
H21   H     H_    0.751063 0.385025 0.080670 0.215788
O24   O     O_3   0.639281 0.026515 0.646198 -0.550259
C57   C     C_3   0.821782 0.990441 0.635561 -0.290374
H22   H     H_    0.818020 0.939958 0.658222 0.161349
H23   H     H_    0.943514 0.030924 0.661445 0.117236
H24   H     H_    0.850660 0.965197 0.576782 0.160136
O25   O     O_3   0.666204 0.117265 0.553379 -0.554032
C58   C     C_3   0.854107 0.112922 0.524238 0.094120
H25   H     H_    0.953829 0.083306 0.551479 0.113654
H26   H     H_    0.912649 0.173637 0.528911 0.115727
C59   C     C_3   0.846293 0.064082 0.444740 -0.742399
H27   H     H_    0.738264 0.089651 0.417190 0.222551
H28   H     H_    0.988296 0.065512 0.418723 0.158322
H29   H     H_    0.805943 0.000802 0.438652 0.231446
O26   O     O_3   0.615729 0.491724 0.736043 -0.563366
C60   C     C_3   0.420548 0.513862 0.744783 -0.262293
H30   H     H_    0.347747 0.492122 0.786357 0.131048
H31   H     H_    0.341680 0.491734 0.693134 0.144326
H32   H     H_    0.412795 0.580241 0.763335 0.168861
O27   O     O_3   0.970976 0.272322 0.328989 -0.521633
C61   C     C_3   0.980923 0.218664 0.369424 0.123677
H33   H     H_    0.964001 0.155130 0.334603 0.092576
H34   H     H_    0.867784 0.232700 0.412505 0.095471
C62   C     C_3   0.176773 0.227670 0.404782 -0.680590
H35   H     H_    0.197100 0.289942 0.441316 0.235535
H36   H     H_    0.187977 0.185716 0.436719 0.154556
H37   H     H_    0.292392 0.213997 0.362919 0.206072
O28   O     O_3   0.347223 0.364409 0.283614 -0.527921
C63   C     C_3   0.417899 0.427462 0.259304 -0.237078
H38   H     H_    0.407138 0.410694 0.199682 0.128572
H39   H     H_    0.567700 0.445774 0.276202 0.144693
H40   H     H_    0.331162 0.481571 0.284289 0.152321
O29   O     O_3   0.773771 0.782921 0.819154 -0.549958
C64   C     C_3   0.769859 0.735463 0.865864 0.123577
H41   H     H_    0.873922 0.760164 0.909792 0.144169
H42   H     H_    0.805217 0.671528 0.836465 0.120066
C65   C     C_3   0.572374 0.736743 0.900854 -0.686012
H43   H     H_    0.466894 0.703227 0.860312 0.197529
H44   H     H_    0.579165 0.707294 0.943394 0.198013
H45   H     H_    0.523776 0.799328 0.925934 0.237548
O30   O     O_3   0.796860 0.702390 0.673091 -0.539753
C66   C     C_3   0.812796 0.744819 0.622252 0.088565
H46   H     H_    0.865739 0.704271 0.569980 0.137484
H47   H     H_    0.907699 0.799124 0.639904 0.086451
C67   C     C_3   0.619595 0.773911 0.608652 -0.695562
H48   H     H_    0.561564 0.816663 0.659301 0.222070
H49   H     H_    0.638797 0.805077 0.567611 0.205002
H50   H     H_    0.519709 0.722378 0.587415 0.248708
O31   O     O_3   0.903426 0.545864 0.301402 -0.548302
C68   C     C_3   0.961587 0.479732 0.242262 -0.300789
H51   H     H_    0.080449 0.492592 0.208314 0.123122
H52   H     H_    0.836947 0.458045 0.206747 0.144923
H53   H     H_    0.003643 0.430071 0.262436 0.215342
O32   O     O_3   0.323772 0.745994 0.454920 -0.524947
C69   C     C_3   0.181275 0.761891 0.510345 0.150525
H54   H     H_    0.179897 0.711905 0.533248 0.079683
H55   H     H_    0.033163 0.767790 0.491353 0.078982
C70   C     C_3   0.227544 0.838750 0.571157 -0.718967
H56   H     H_    0.110787 0.882330 0.577184 0.163190
H57   H     H_    0.238212 0.826506 0.623270 0.182970
H58   H     H_    0.363609 0.866597 0.560522 0.288022
O33   O     O_3   0.384565 0.876989 0.423297 -0.530385
C71   C     C_3   0.255123 0.941559 0.452052 0.061425
H59   H     H_    0.114118 0.918463 0.465269 0.127387
H60   H     H_    0.228801 0.975487 0.413796 0.103357
C72   C     C_3   0.337558 0.001783 0.519450 -0.614247
H61   H     H_    0.323364 0.063827 0.516952 0.198445
H62   H     H_    0.259917 0.999226 0.568678 0.177747
H63   H     H_    0.491232 0.988747 0.523600 0.306700
O34   O     O_3   0.333187 0.960462 0.204622 -0.547070
C73   C     C_3   0.219432 0.026001 0.244069 -0.247564
H64   H     H_    0.174747 0.020732 0.297329 0.121429
H65   H     H_    0.090751 0.032348 0.213446 0.116037
H66   H     H_    0.306446 0.081873 0.254157 0.165070

loop_
_geom_bond_atom_site_label_1
_geom_bond_atom_site_label_2
_ccdc_geom_bond_type
C32   C39   A    
C69   H55   S    
O21   C53   S    
O33   C71   S    
C37   C42   A    
C72   H61   S    
C38   C39   A    
C58   H25   S    
C65   H45   S    
C42   O26   S    
C1    O6    A    
C66   C67   S    
C2    C48   S    
C70   H56   S    
O27   C61   S    
O34   C73   S    
C28   C29   A    
C64   H42   S    
C30   C33   A    
C14   C15   A    
C12   C13   A    
C54   H14   S    
C11   O31   S    
C26   O21   S    
C28   C50   S    
C6    C7    A    
C67   H49   S    
C25   C52   S    
C35   C40   A    
O5    C3    A    
C24   C25   A    
C73   H64   S    
C57   H22   S    
V2    O10   S    
C45   C49   S    
C39   H8    S    
O23   C55   S    
C34   O25   S    
C40   C41   A    
C20   C21   A    
C4    C10   S    
C23   H4    S    
O26   C60   S    
V3    O20   S    
C69   C70   S    
C66   H47   S    
O25   C58   S    
O8    V2    S    
O32   C69   S    
C17   O33   S    
C37   C38   A    
C63   H38   S    
C1    C41   S    
C31   C32   A    
C18   H3    S    
C67   H50   S    
O1    V2    S    
C68   H52   S    
C27   C32   A    
O13   C52   A    
O17   V3    S    
C22   O22   S    
C45   C46   A    
C64   H41   S    
C54   H15   S    
O11   V4    S    
O9    C4    A    
C71   H60   S    
C72   H62   S    
C70   H57   S    
C66   H46   S    
C60   H31   S    
C64   C65   S    
C5    C10   A    
C35   C36   A    
C56   H19   S    
O15   V3    S    
C65   H43   S    
O12   C49   A    
O17   V4    S    
O15   C51   A    
C25   C26   A    
O4    C2    A    
O29   C64   S    
C24   O34   S    
C33   O24   S    
C34   C35   A    
C11   C12   A    
V4    O20   S    
C15   C20   A    
O18   C51   A    
C40   H6    S    
C16   C23   A    
C8    O29   S    
C46   C47   A    
C21   C22   A    
C44   C45   A    
O2    C1    A    
C46   H10   S    
C62   H36   S    
C15   C16   A    
C59   H28   S    
C17   C18   A    
C43   C48   A    
C47   O28   S    
C5    H1    S    
C58   H26   S    
C67   H48   S    
C68   H53   S    
O14   C50   A    
C73   H66   S    
O3    C4    A    
C61   C62   S    
O16   V4    S    
O19   V4    S    
C53   H12   S    
C55   H17   S    
O6    V2    S    
C55   H18   S    
O9    V2    S    
C27   C28   A    
C71   H59   S    
C72   H63   S    
C9    O30   S    
O19   C52   A    
C13   O32   S    
C62   H35   S    
O2    V1    S    
O11   C50   A    
C70   H58   S    
C36   C37   A    
O31   C68   S    
C61   H34   S    
O7    V1    S    
C60   H32   S    
C11   C16   A    
C30   C31   A    
C29   H5    S    
O1    C2    A    
C14   C17   A    
C27   O23   S    
C65   H44   S    
O30   C66   S    
O5    V1    S    
C43   O27   S    
C60   H30   S    
C59   H27   S    
C31   C36   A    
C38   H7    S    
C54   H16   S    
C55   C56   S    
O24   C57   S    
C19   C24   A    
C56   H20   S    
C44   H9    S    
C6    H2    S    
C21   C26   A    
O7    V2    S    
C62   H37   S    
O4    V1    S    
O12   V3    S    
O3    V1    S    
V1    O10   S    
C18   C19   A    
C7    C51   S    
C41   C42   A    
C69   H54   S    
C53   H13   S    
C57   H23   S    
C22   C23   A    
C63   H40   S    
O22   C54   S    
C5    C6    A    
O13   V3    S    
C19   C20   A    
C58   C59   S    
C47   C48   A    
C73   H65   S    
C59   H29   S    
C9    C10   A    
C43   C44   A    
C29   C30   A    
O14   V3    S    
C53   H11   S    
C71   C72   S    
C63   H39   S    
C33   C34   A    
C49   O16   A    
C3    C12   S    
C13   C14   A    
C8    C9    A    
C56   H21   S    
C68   H51   S    
C7    C8    A    
O18   V4    S    
O28   C63   S    
O8    C3    A    
C61   H33   S    
C57   H24   S    
