data_mof_unit_60758.cif
_audit_creation_date              2012-12-10T19:33:50-0500
_audit_creation_method            fapswitch 2.2
_symmetry_space_group_name_H-M    P1
_symmetry_Int_Tables_number       1
_space_group_crystal_system       triclinic
_cell_length_a                    10.954969
_cell_length_b                    15.804197
_cell_length_c                    17.153379
_cell_angle_alpha                 96.040611
_cell_angle_beta                  91.368748
_cell_angle_gamma                 81.06453
_cell_volume                      2917.4234687

loop_
_atom_site_label
_atom_site_type_symbol
_atom_type_description
_atom_site_fract_x
_atom_site_fract_y
_atom_site_fract_z
_atom_type_partial_charge
C1    C     C_R   0.498494 0.489987 0.348715 0.872451
C2    C     C_R   0.472705 0.112380 0.483375 0.356814
C3    C     C_R   0.595405 0.835794 0.569227 0.040499
C4    C     C_R   0.396353 0.165894 0.435202 0.038296
C5    C     C_R   0.588541 0.746683 0.563921 -0.050127
C6    C     C_R   0.404132 0.254889 0.440211 -0.048747
C7    C     C_R   0.264632 0.533864 0.504998 0.856755
C8    C     C_R   0.735628 0.466461 0.502097 0.858679
C9    C     C_2   0.129828 0.550075 0.511907 -0.059292
C10   C     C_2   0.870933 0.450473 0.507667 -0.058553
C11   C     C_2   0.069234 0.496442 0.548918 0.137474
C12   C     C_R   0.501281 0.510031 0.651512 0.827653
C13   C     C_2   0.934049 0.508384 0.549645 0.148447
C14   C     C_R   0.495193 0.485106 0.262798 -0.029365
C15   C     C_R   0.503913 0.514834 0.737833 -0.027550
C16   C     C_R   0.560879 0.537787 0.223627 0.056855
C17   C     C_R   0.450887 0.454881 0.776592 0.059533
C18   C     C_R   0.555036 0.534227 0.142032 -0.216115
C19   C     C_R   0.456300 0.458587 0.858194 -0.215034
C20   C     C_R   0.484267 0.478361 0.098508 0.334755
C21   C     C_R   0.513652 0.521736 0.902502 0.333534
C22   C     C_R   0.420955 0.425570 0.137412 -0.251326
C23   C     C_R   0.425111 0.428557 0.219083 0.085090
C24   C     C_R   0.564824 0.581216 0.864312 -0.250240
C25   C     C_R   0.560955 0.578507 0.782644 0.087162
C26   C     C_R   0.444086 0.759767 0.459484 0.348357
C27   C     C_R   0.559925 0.239421 0.537962 0.352921
C28   C     C_R   0.448143 0.848714 0.462608 -0.384223
C29   C     C_R   0.554962 0.150646 0.535120 -0.383124
C30   C     C_R   0.524489 0.888176 0.517736 0.357668
Cu1   Cu    Cu3+1 0.494060 0.416090 0.496220 0.976448
Cu2   Cu    Cu3+1 0.505940 0.583910 0.503780 0.977584
H1    H     H_    0.415189 0.411783 0.886391 0.160833
H2    H     H_    0.196628 0.455539 0.630817 0.233134
H3    H     H_    0.641331 0.706786 0.604044 0.154824
H4    H     H_    0.345260 0.296209 0.403719 0.155593
H5    H     H_    0.982434 0.334985 0.505951 0.243053
H6    H     H_    0.996755 0.389493 0.427100 0.218387
H7    H     H_    0.018494 0.665982 0.519807 0.244590
H8    H     H_    0.999655 0.600899 0.436226 0.222998
H9    H     H_    0.298692 0.398433 0.753864 0.218630
H10   H     H_    0.433851 0.330202 0.746181 0.221497
H11   H     H_    0.726573 0.576733 0.246126 0.216038
H12   H     H_    0.606616 0.575014 0.113195 0.160272
H13   H     H_    0.604122 0.656694 0.253718 0.221468
H14   H     H_    0.262087 0.391475 0.241462 0.213454
H15   H     H_    0.384641 0.311604 0.236700 0.219688
H16   H     H_    0.575377 0.701260 0.766205 0.222344
H17   H     H_    0.710829 0.633244 0.763123 0.215208
H18   H     H_    0.733344 0.245207 0.577923 0.202775
H19   H     H_    0.623537 0.265027 0.647849 0.195553
H20   H     H_    0.273689 0.752986 0.414515 0.208944
H21   H     H_    0.388585 0.732898 0.347918 0.195140
H22   H     H_    0.617414 0.914525 0.667056 0.223639
H23   H     H_    0.366526 0.382525 0.103984 0.147635
H24   H     H_    0.724289 0.825899 0.657712 0.210370
H25   H     H_    0.362136 0.088361 0.338925 0.223617
H26   H     H_    0.257513 0.177841 0.353030 0.207674
H27   H     H_    0.609281 0.629745 0.898368 0.148042
H28   H     H_    0.615516 0.112480 0.573373 0.176231
H29   H     H_    0.391365 0.886099 0.422011 0.175205
H30   H     H_    0.809174 0.561404 0.634208 0.226095
H31   H     H_    0.830057 0.627200 0.563952 0.226610
H32   H     H_    0.177192 0.379425 0.554742 0.238275
N1    N     N_2   0.474484 0.472759 0.015684 -0.248977
N2    N     N_3   0.064578 0.622399 0.476170 -0.596020
N3    N     N_3   0.389411 0.390764 0.733606 -0.575106
N4    N     N_3   0.635911 0.593715 0.266389 -0.570500
N5    N     N_3   0.354923 0.375943 0.257473 -0.592116
N6    N     N_3   0.618049 0.639351 0.745651 -0.598018
N7    N     N_3   0.643983 0.276757 0.591106 -0.514743
N8    N     N_3   0.363963 0.721653 0.404013 -0.507659
N9    N     N_3   0.674270 0.873439 0.626522 -0.576066
N10   N     N_3   0.310577 0.129602 0.381960 -0.574568
N11   N     N_2   0.522882 0.527581 0.985382 -0.248572
N12   N     N_R   0.514860 0.709950 0.509460 -0.169267
N13   N     N_R   0.485140 0.290050 0.490540 -0.170514
N14   N     N_2   0.532891 0.978744 0.523435 -0.215431
N15   N     N_2   0.463897 0.021865 0.477770 -0.215740
N16   N     N_3   0.873761 0.581278 0.599026 -0.599740
N17   N     N_3   0.132391 0.429908 0.592950 -0.590487
N18   N     N_3   0.933917 0.373079 0.465727 -0.594332
O1    O     O_R   0.494450 0.421340 0.382530 -0.568360
O2    O     O_R   0.505550 0.578660 0.617470 -0.575049
O3    O     O_R   0.504470 0.563060 0.388920 -0.536750
O4    O     O_R   0.495530 0.436940 0.611080 -0.542537
O5    O     O_R   0.317520 0.455180 0.497990 -0.615655
O6    O     O_R   0.682480 0.544820 0.502010 -0.609762
O7    O     O_R   0.327540 0.596900 0.504370 -0.538616
O8    O     O_R   0.672460 0.403100 0.495630 -0.536510

loop_
_geom_bond_atom_site_label_1
_geom_bond_atom_site_label_2
_ccdc_geom_bond_type
H25   N10   S    
C27   C29   A    
C26   N8    S    
C23   N5    S    
H9    N3    S    
C11   N17   S    
C2    C29   A    
H30   N16   S    
C19   C21   A    
C15   C25   A    
Cu2   O6    S    
Cu1   O1    S    
C12   O2    A    
C15   C17   A    
C9    N2    S    
H15   N5    S    
H14   N5    S    
C2    N15   S    
C7    O5    A    
Cu1   Cu2   S    
H11   N4    S    
C26   N12   A    
C12   C15   S    
C16   N4    S    
H2    N17   S    
C4    N10   S    
C28   H29   S    
C13   N16   S    
Cu1   O4    S    
H8    N2    S    
H6    N18   S    
H19   N7    S    
Cu1   N13   S    
H31   N16   S    
C1    O3    A    
Cu2   O2    S    
C17   N3    S    
Cu1   O5    S    
C20   N1    S    
C24   C25   A    
C4    C6    A    
C19   H1    S    
N14   N15   D    
C6    N13   A    
C27   N13   A    
C10   N18   S    
C8    O6    A    
C14   C23   A    
C3    C30   A    
C2    C4    A    
H18   N7    S    
H20   N8    S    
C18   H12   S    
H22   N9    S    
Cu2   O7    S    
C29   H28   S    
Cu1   O8    S    
H13   N4    S    
C9    C11   D    
C8    C10   S    
C20   C22   A    
H17   N6    S    
H10   N3    S    
H7    N2    S    
C14   C16   A    
H5    N18   S    
C8    O8    A    
C27   N7    S    
H26   N10   S    
C7    C9    S    
H24   N9    S    
H16   N6    S    
C3    C5    A    
C10   C13   D    
Cu2   N12   S    
C22   H23   S    
C1    C14   S    
C1    O1    A    
C21   N11   S    
C26   C28   A    
N1    N11   D    
C12   O4    A    
C5    N12   A    
C28   C30   A    
C11   C13   S    
C24   H27   S    
Cu2   O3    S    
C5    H3    S    
C17   C19   A    
C6    H4    S    
C18   C20   A    
C3    N9    S    
H32   N17   S    
C30   N14   S    
C16   C18   A    
C21   C24   A    
C22   C23   A    
C25   N6    S    
H21   N8    S    
C7    O7    A    
