data_mof_unit_26914.cif
_audit_creation_date              2012-10-26T18:29:00-0400
_audit_creation_method            fapswitch 2.2
_symmetry_space_group_name_H-M    P1
_symmetry_Int_Tables_number       1
_space_group_crystal_system       triclinic
_cell_length_a                    11.683723
_cell_length_b                    13.015661
_cell_length_c                    15.877532
_cell_angle_alpha                 92.48223
_cell_angle_beta                  74.273044
_cell_angle_gamma                 100.099323
_cell_volume                      2288.09456984

loop_
_atom_site_label
_atom_site_type_symbol
_atom_type_description
_atom_site_fract_x
_atom_site_fract_y
_atom_site_fract_z
_atom_type_partial_charge
C1    C     C_R   0.521039 0.700869 0.501198 0.553301
C2    C     C_R   0.344431 0.014191 0.497063 0.237554
C3    C     C_R   0.643373 0.876862 0.503237 -0.124465
C4    C     C_R   0.356630 0.123146 0.496755 -0.124390
C5    C     C_R   0.434739 0.860279 0.499605 -0.115976
C6    C     C_R   0.565263 0.139727 0.500391 -0.116030
C7    C     C_R   0.444325 0.968414 0.499166 0.044420
C8    C     C_R   0.555676 0.031594 0.500828 0.044394
C9    C     C_R   0.942827 0.597536 0.580706 -0.158580
C10   C     C_R   0.057230 0.402495 0.419224 -0.158520
C11   C     C_R   0.823817 0.588468 0.573479 0.255313
C12   C     C_R   0.478962 0.299132 0.498800 0.553007
C13   C     C_R   0.176223 0.411539 0.426502 0.255533
C14   C     C_R   0.858687 0.457581 0.465298 0.026119
C15   C     C_R   0.141322 0.542436 0.534667 0.025804
C16   C     C_R   0.427102 0.494663 0.668039 0.549057
C17   C     C_R   0.572746 0.504067 0.331962 0.549147
C18   C     C_R   0.978794 0.464568 0.470730 -0.016480
C19   C     C_R   0.021237 0.535452 0.529211 -0.016850
C20   C     C_R   0.383866 0.487326 0.763894 -0.001765
C21   C     C_R   0.614692 0.500799 0.236054 -0.001232
C22   C     C_R   0.223115 0.467042 0.898131 -0.129020
C23   C     C_R   0.350886 0.466337 0.086517 -0.133486
C24   C     C_R   0.770743 0.489264 0.101954 -0.129002
C25   C     C_R   0.260854 0.475470 0.807252 -0.134475
C26   C     C_R   0.735256 0.496533 0.192828 -0.134146
C27   C     C_R   0.468284 0.490044 0.812238 -0.128982
C28   C     C_R   0.530416 0.497852 0.187572 -0.128940
C29   C     C_R   0.432523 0.478181 0.903629 0.031789
C30   C     C_R   0.562610 0.485888 0.096280 0.031796
C31   C     C_R   0.307770 0.468870 0.946532 0.053694
C32   C     C_R   0.685676 0.484174 0.053483 0.053556
C33   C     C_R   0.517269 0.477462 0.953460 0.033555
C34   C     C_R   0.640840 0.474701 0.913498 -0.136462
C35   C     C_R   0.476508 0.477366 0.046471 0.034569
C36   C     C_R   0.268514 0.461485 0.037265 -0.129351
C37   C     C_R   0.722808 0.477223 0.962805 -0.130145
C38   C     C_R   0.466496 0.185634 0.498485 -0.054128
C39   C     C_R   0.533506 0.814371 0.501511 -0.054408
C40   C     C_R   0.655571 0.985818 0.502929 0.237472
Cu1   Cu    Cu3+1 0.386820 0.492450 0.493500 0.977072
Cu2   Cu    Cu3+1 0.613180 0.507550 0.506500 0.977173
H1    H     H_    0.173168 0.452800 0.070687 0.103789
H2    H     H_    0.864713 0.486985 0.069508 0.101248
H3    H     H_    0.312195 0.458065 0.156091 0.097026
H4    H     H_    0.677300 0.467368 0.843987 0.104262
H5    H     H_    0.650023 0.188638 0.501546 0.192867
H6    H     H_    0.349978 0.811369 0.498451 0.193034
H7    H     H_    0.280102 0.158923 0.495505 0.125027
H8    H     H_    0.719903 0.841086 0.504483 0.125152
H9    H     H_    0.174605 0.596727 0.579696 0.119293
H10   H     H_    0.825398 0.403301 0.420264 0.118310
H11   H     H_    0.261814 0.361578 0.308036 0.196888
H12   H     H_    0.816424 0.474490 0.929468 0.104574
H13   H     H_    0.214671 0.269219 0.387175 0.205186
H14   H     H_    0.785254 0.730766 0.612691 0.205446
H15   H     H_    0.738658 0.638603 0.691977 0.198203
H16   H     H_    0.823616 0.003809 0.505946 0.322402
H17   H     H_    0.176388 0.996201 0.494043 0.322400
H18   H     H_    0.973296 0.652927 0.626293 0.094762
H19   H     H_    0.026788 0.347117 0.373617 0.093531
H20   H     H_    0.440203 0.507027 0.222655 0.127634
H21   H     H_    0.562087 0.503655 0.776980 0.126112
H22   H     H_    0.801886 0.498593 0.229109 0.126935
H23   H     H_    0.194025 0.473127 0.771107 0.128073
H24   H     H_    0.127572 0.459052 0.930676 0.101203
N1    N     N_R   0.216750 0.481110 0.483710 -0.201093
N2    N     N_R   0.783250 0.518890 0.516290 -0.200887
N3    N     N_3   0.254891 0.347160 0.373647 -0.549857
N4    N     N_3   0.745178 0.652822 0.626392 -0.550988
O1    O     O_R   0.419950 0.645670 0.495380 -0.517370
O2    O     O_3   0.236437 0.951524 0.495460 -0.719276
O3    O     O_R   0.580050 0.354330 0.504620 -0.517796
O4    O     O_R   0.611110 0.658410 0.506370 -0.471748
O5    O     O_R   0.388890 0.341590 0.493630 -0.472147
O6    O     O_R   0.350820 0.490050 0.621260 -0.513977
O7    O     O_R   0.649180 0.509950 0.378740 -0.513569
O8    O     O_R   0.541970 0.502800 0.632250 -0.476325
O9    O     O_R   0.458030 0.497200 0.367750 -0.476205
O10   O     O_3   0.763566 0.048486 0.504530 -0.719611

loop_
_geom_bond_atom_site_label_1
_geom_bond_atom_site_label_2
_ccdc_geom_bond_type
C21   C26   A    
C23   H3    S    
C27   C29   A    
C34   C37   A    
Cu1   Cu2   S    
C14   C18   A    
C2    C7    A    
H11   N3    S    
C11   N4    S    
C7    C8    A    
Cu1   N1    S    
C15   C19   A    
C1    O1    A    
C30   C35   A    
C1    O4    A    
C24   C26   A    
C20   C25   A    
C29   C33   A    
C17   O9    A    
C18   C19   A    
C26   H22   S    
C22   H24   S    
C9    C19   A    
C14   H10   S    
C22   C25   A    
C40   O10   S    
C34   H4    S    
C15   H9    S    
H15   N4    S    
H16   O10   S    
H17   O2    S    
Cu1   O1    S    
C3    C39   A    
C12   O3    A    
Cu2   N2    S    
C2    O2    S    
C3    H8    S    
C5    H6    S    
Cu2   O4    S    
C6    H5    S    
C25   H23   S    
C22   C31   A    
C5    C7    A    
C6    C8    A    
C17   C21   S    
C2    C4    A    
C24   C32   A    
Cu1   O5    S    
C16   C20   S    
C15   N1    A    
C17   O7    A    
C33   C34   A    
C32   C37   A    
C9    C11   A    
H13   N3    S    
C27   H21   S    
C37   H12   S    
C21   C28   A    
C4    C38   A    
C3    C40   A    
Cu2   O8    S    
C23   C35   A    
C5    C39   A    
C24   H2    S    
C10   H19   S    
C11   N2    A    
C13   N1    A    
Cu2   O3    S    
C16   O6    A    
C10   C13   A    
Cu1   O9    S    
C20   C27   A    
H14   N4    S    
C4    H7    S    
C9    H18   S    
C28   C30   A    
C29   C31   A    
Cu1   O6    S    
C30   C32   A    
C13   N3    S    
C10   C18   A    
C33   C35   A    
C16   O8    A    
C12   C38   S    
C1    C39   S    
Cu2   O7    S    
C23   C36   A    
C12   O5    A    
C14   N2    A    
C31   C36   A    
C36   H1    S    
C8    C40   A    
C6    C38   A    
C28   H20   S    
