data_mof_unit_58609.cif
_audit_creation_date              2012-12-10T18:53:03-0500
_audit_creation_method            fapswitch 2.2
_symmetry_space_group_name_H-M    P1
_symmetry_Int_Tables_number       1
_space_group_crystal_system       triclinic
_cell_length_a                    9.816685
_cell_length_b                    10.682363
_cell_length_c                    16.771294
_cell_angle_alpha                 90.099817
_cell_angle_beta                  85.499801
_cell_angle_gamma                 89.348543
_cell_volume                      1753.18682585

loop_
_atom_site_label
_atom_site_type_symbol
_atom_type_description
_atom_site_fract_x
_atom_site_fract_y
_atom_site_fract_z
_atom_type_partial_charge
C1    C     C_R   0.499347 0.740029 0.499178 0.934161
C2    C     C_R   0.064512 0.579989 0.548744 0.181739
C3    C     C_R   0.079730 0.419311 0.452154 -0.179791
C4    C     C_R   0.920126 0.579826 0.548460 -0.151094
C5    C     C_R   0.481619 0.502707 0.653295 0.953305
C6    C     C_R   0.518498 0.492324 0.346801 0.956652
C7    C     C_R   0.472268 0.500115 0.740178 -0.288311
C8    C     C_R   0.530616 0.452192 0.263144 -0.300880
C9    C     C_R   0.584090 0.537891 0.782003 0.422021
C10   C     C_R   0.420237 0.393600 0.229231 0.428121
C11   C     C_R   0.585221 0.510741 0.863644 0.384242
C12   C     C_R   0.500651 0.259971 0.500860 0.941604
C13   C     C_R   0.440415 0.339738 0.153439 0.373230
C14   C     C_R   0.467930 0.458756 0.903756 -0.170495
C15   C     C_R   0.562890 0.362706 0.106690 -0.171708
C16   C     C_R   0.351676 0.432472 0.863397 0.511165
C17   C     C_R   0.675333 0.414024 0.141082 0.541140
C18   C     C_R   0.354644 0.452920 0.781484 -0.382157
C19   C     C_R   0.658209 0.458824 0.219437 -0.378990
C20   C     C_2   0.464276 0.434070 0.988847 -0.022837
C21   C     C_2   0.560976 0.364618 0.020035 -0.084043
C22   C     C_3   0.664594 0.727473 0.741931 -0.299862
C23   C     C_R   0.595755 0.932848 0.540770 -0.401434
C24   C     C_3   0.208442 0.480837 0.246347 -0.245983
C25   C     C_3   0.232195 0.258044 0.898723 -0.304905
C26   C     C_3   0.896527 0.352991 0.115330 -0.321563
C27   C     C_3   0.358830 0.152270 0.116442 -0.285043
C28   C     C_3   0.813642 0.479950 0.880372 -0.160718
C29   C     C_3   0.826164 0.083185 0.569475 -0.306976
C30   C     C_3   0.173547 0.915744 0.431919 -0.309689
C31   C     C_R   0.404347 0.067151 0.459207 -0.387790
C32   C     C_R   0.600754 0.062124 0.541033 0.553473
C33   C     C_R   0.399253 0.937903 0.459055 0.551320
C34   C     C_R   0.502105 0.127552 0.500988 -0.197236
C35   C     C_R   0.497910 0.872452 0.499064 -0.191456
C36   C     C_R   0.935376 0.419456 0.451636 0.174226
H1    H     H_    0.743576 0.503191 0.244924 0.199824
H2    H     H_    0.574755 0.748063 0.707324 0.144717
H3    H     H_    0.753654 0.776141 0.711885 0.168352
H4    H     H_    0.190511 0.472666 0.181878 0.181856
H5    H     H_    0.251119 0.574368 0.258789 0.165958
H6    H     H_    0.107593 0.474640 0.280634 0.160035
H7    H     H_    0.322687 0.214823 0.924489 0.172115
H8    H     H_    0.226643 0.227028 0.835685 0.154055
H9    H     H_    0.139656 0.223579 0.933767 0.186361
H10   H     H_    0.990033 0.368167 0.075065 0.220256
H11   H     H_    0.864745 0.254311 0.107224 0.152144
H12   H     H_    0.266347 0.428237 0.750084 0.203538
H13   H     H_    0.923779 0.368645 0.177689 0.160311
H14   H     H_    0.374213 0.112452 0.176466 0.172557
H15   H     H_    0.448646 0.130688 0.073800 0.150581
H16   H     H_    0.269113 0.105596 0.093784 0.180838
H17   H     H_    0.794064 0.382435 0.860687 0.108256
H18   H     H_    0.880004 0.473052 0.930782 0.214472
H19   H     H_    0.871758 0.531637 0.831760 0.201378
H20   H     H_    0.896465 0.158143 0.585533 0.193089
H21   H     H_    0.850718 0.061188 0.504915 0.140842
H22   H     H_    0.846561 0.000373 0.606865 0.147195
H23   H     H_    0.646213 0.324999 0.982820 0.161930
H24   H     H_    0.149983 0.936097 0.496777 0.138698
H25   H     H_    0.103536 0.840729 0.415569 0.189838
H26   H     H_    0.151736 0.999324 0.395538 0.160573
H27   H     H_    0.906887 0.354085 0.341477 0.152120
H28   H     H_    0.900966 0.244339 0.413867 0.157778
H29   H     H_    0.092261 0.643142 0.659410 0.169023
H30   H     H_    0.098685 0.754327 0.587893 0.148184
H31   H     H_    0.380398 0.475409 0.026604 0.178190
H32   H     H_    0.665953 0.879118 0.574296 0.170522
H33   H     H_    0.334303 0.120823 0.425502 0.187565
H34   H     H_    0.140962 0.354560 0.414406 0.181492
H35   H     H_    0.858728 0.643405 0.587008 0.158976
H36   H     H_    0.647591 0.766153 0.803647 0.183095
N1    N     N_R   0.142790 0.500030 0.500020 -0.077672
N2    N     N_R   0.857210 0.499970 0.499980 -0.077300
N3    N     N_3   0.870598 0.335485 0.400468 -0.393651
N4    N     N_3   0.129058 0.662924 0.600643 -0.397063
O1    O     O_R   0.385380 0.683250 0.500010 -0.563697
O2    O     O_3   0.293694 0.383202 0.271012 -0.588324
O3    O     O_3   0.233701 0.389688 0.904515 -0.600065
O4    O     O_3   0.794560 0.438106 0.094399 -0.585048
O5    O     O_3   0.331711 0.282008 0.121127 -0.591452
O6    O     O_3   0.693256 0.546696 0.906956 -0.584341
O7    O     O_3   0.690362 0.126596 0.586129 -0.590485
O8    O     O_3   0.309497 0.873559 0.414026 -0.591878
O9    O     O_R   0.614620 0.316750 0.499990 -0.562514
O10   O     O_R   0.614710 0.683220 0.500000 -0.643635
O11   O     O_R   0.385290 0.316780 0.500000 -0.640243
O12   O     O_R   0.371780 0.500040 0.615800 -0.622207
O13   O     O_R   0.628220 0.499960 0.384200 -0.619367
O14   O     O_R   0.601110 0.500010 0.615800 -0.562658
O15   O     O_R   0.398890 0.499990 0.384200 -0.569506
O16   O     O_3   0.694161 0.598041 0.743036 -0.598622
Zn1   Zn    Zn3+2 0.346870 0.500020 0.500000 0.988370
Zn2   Zn    Zn3+2 0.653130 0.499980 0.500000 0.991203

loop_
_geom_bond_atom_site_label_1
_geom_bond_atom_site_label_2
_ccdc_geom_bond_type
C24   H6    S    
N2    Zn2   S    
C20   H31   S    
N1    Zn1   S    
C25   H7    S    
C10   O2    S    
H29   N4    S    
C12   O9    A    
C21   H23   S    
C11   C14   A    
C6    O15   A    
C22   H2    S    
C13   O5    S    
C1    O1    A    
C9    O16   S    
C15   C17   A    
O13   Zn2   S    
O10   Zn2   S    
C24   H4    S    
C5    O12   A    
C30   H24   S    
C31   C33   A    
C19   H1    S    
C4    N2    A    
C5    O14   A    
C27   H14   S    
C24   H5    S    
C25   H8    S    
C22   H36   S    
C28   H19   S    
C27   H15   S    
O14   Zn2   S    
C11   O6    S    
C8    C19   A    
C28   O6    S    
C14   C20   S    
C27   O5    S    
C3    H34   S    
C26   H13   S    
C5    C7    S    
C28   H18   S    
C17   C19   A    
C6    C8    S    
C17   O4    S    
C26   O4    S    
C32   C34   A    
C23   H32   S    
C2    C4    A    
C36   N3    S    
O15   Zn1   S    
O9    Zn2   S    
C31   H33   S    
C7    C18   A    
H30   N4    S    
C31   C34   A    
C16   C18   A    
C29   H22   S    
C9    C11   A    
C2    N1    A    
C36   N2    A    
C26   H11   S    
C24   O2    S    
C29   H21   S    
C23   C35   A    
C30   H26   S    
C14   C16   A    
C12   C34   S    
C25   H9    S    
C2    N4    S    
C27   H16   S    
C1    C35   S    
C1    O10   A    
C7    C9    A    
C32   O7    S    
O12   Zn1   S    
C12   O11   A    
C25   O3    S    
C10   C13   A    
C18   H12   S    
C28   H17   S    
C29   O7    S    
C29   H20   S    
C6    O13   A    
C16   O3    S    
C23   C32   A    
C13   C15   A    
H27   N3    S    
C3    C36   A    
C22   H3    S    
O11   Zn1   S    
O1    Zn1   S    
C33   C35   A    
H28   N3    S    
C30   O8    S    
C3    N1    A    
C33   O8    S    
C26   H10   S    
C15   C21   S    
C20   C21   D    
C8    C10   A    
C30   H25   S    
C22   O16   S    
C4    H35   S    
