data_mof_unit_57263.cif
_audit_creation_date              2013-03-05T16:33:00-0500
_audit_creation_method            fapswitch 2.2
_symmetry_space_group_name_H-M    P1
_symmetry_Int_Tables_number       1
_space_group_crystal_system       triclinic
_cell_length_a                    23.499315
_cell_length_b                    10.802091
_cell_length_c                    9.59258
_cell_angle_alpha                 89.809931
_cell_angle_beta                  90.932262
_cell_angle_gamma                 91.57151
_cell_volume                      2433.74908501

loop_
_atom_site_label
_atom_site_type_symbol
_atom_site_description
_atom_site_fract_x
_atom_site_fract_y
_atom_site_fract_z
_atom_type_partial_charge
O1    O     O_R   0.500000 0.319640 0.618810 -0.575900
O2    O     O_R   0.500010 0.319680 0.381230 -0.596793
C1    C     C_R   0.502093 0.262552 0.500107 0.792094
O3    O     O_R   0.417880 0.499940 0.618820 -0.583331
O4    O     O_R   0.417880 0.499980 0.381240 -0.604754
C2    C     C_R   0.390975 0.499260 0.499052 0.790447
Cu1   Cu    Cu3+1 0.500000 0.499980 0.640670 0.939309
Cu2   Cu    Cu3+1 0.500000 0.500020 0.359330 0.930849
O5    O     O_R   0.499990 0.680320 0.618770 -0.574623
O6    O     O_R   0.500000 0.680360 0.381190 -0.578769
O7    O     O_R   0.582120 0.500020 0.618760 -0.579399
O8    O     O_R   0.582120 0.500060 0.381180 -0.583097
C3    C     C_R   0.501812 0.737610 0.499798 0.805904
C4    C     C_R   0.608965 0.500016 0.500822 0.796885
C5    C     C_R   0.881663 0.607118 0.488191 0.533751
N1    N     N_R   0.851820 0.497145 0.501588 -0.471407
C6    C     C_R   0.878880 0.386802 0.513219 0.533939
C7    C     C_R   0.938524 0.384089 0.511524 -0.015059
C8    C     C_R   0.969892 0.496344 0.497555 -0.017763
C9    C     C_R   0.941364 0.609019 0.485786 -0.014524
C10   C     C_R   0.967412 0.272280 0.523538 -0.160402
C11   C     C_R   0.026769 0.271904 0.521879 -0.161912
C12   C     C_R   0.058468 0.383307 0.507937 -0.014696
C13   C     C_R   0.029927 0.495929 0.495401 -0.017727
C14   C     C_R   0.061289 0.608155 0.480910 -0.015549
C15   C     C_R   0.032405 0.719959 0.468942 -0.160810
C16   C     C_R   0.973061 0.720399 0.471486 -0.161367
C17   C     C_R   0.118180 0.385315 0.506412 0.532760
N2    N     N_R   0.147963 0.495240 0.492453 -0.472247
C18   C     C_R   0.120933 0.605451 0.479437 0.534171
O9    O     O_2   0.853591 0.714045 0.476110 -0.530700
O10   O     O_2   0.848127 0.280260 0.527137 -0.529719
H1    H     H_    0.944282 0.184753 0.534382 0.190578
H2    H     H_    0.047692 0.184113 0.531567 0.188861
O11   O     O_2   0.146314 0.278465 0.518421 -0.531311
O12   O     O_2   0.151740 0.711988 0.466165 -0.529391
H3    H     H_    0.055532 0.807460 0.457817 0.190398
H4    H     H_    0.952146 0.808226 0.462159 0.189003
C19   C     C_R   0.238529 0.508195 0.368790 -0.102622
H5    H     H_    0.215475 0.517564 0.270832 0.136826
C20   C     C_R   0.297907 0.509014 0.370200 -0.222588
H6    H     H_    0.319943 0.519204 0.272375 0.153102
C21   C     C_R   0.328286 0.497615 0.496910 -0.037359
C22   C     C_R   0.298177 0.484416 0.621823 -0.218911
H7    H     H_    0.320389 0.474918 0.720939 0.153693
C23   C     C_R   0.238841 0.482970 0.619960 -0.106369
H8    H     H_    0.216036 0.472948 0.716714 0.136449
C24   C     C_R   0.208910 0.495198 0.493620 0.364593
C25   C     C_R   0.759563 0.452035 0.386805 -0.099404
H9    H     H_    0.781306 0.416374 0.297377 0.141948
C26   C     C_R   0.700260 0.452980 0.386530 -0.217117
H10   H     H_    0.676920 0.416579 0.296763 0.148223
C27   C     C_R   0.671514 0.498832 0.501974 -0.035617
C28   C     C_R   0.703075 0.544043 0.617402 -0.219944
H11   H     H_    0.682018 0.581706 0.706485 0.148093
C29   C     C_R   0.762430 0.543526 0.617277 -0.096300
H12   H     H_    0.786415 0.579027 0.706541 0.142732
C30   C     C_R   0.790826 0.497411 0.502045 0.354502
C31   C     C_R   0.506060 0.063279 0.624700 0.139396
C32   C     C_R   0.509802 0.129920 0.500627 -0.092105
C33   C     C_R   0.523138 0.066348 0.378124 -0.230058
H13   H     H_    0.531294 0.115752 0.281818 0.162676
C34   C     C_R   0.522230 0.936882 0.377494 -0.207919
H14   H     H_    0.529197 0.889093 0.280407 0.161500
C35   C     C_R   0.509039 0.871021 0.500161 -0.098198
C36   C     C_R   0.505846 0.936050 0.624848 0.128795
C37   C     C_3   0.462585 0.927108 0.737009 -0.463214
C38   C     C_3   0.462952 0.067609 0.736263 -0.484797
H15   H     H_    0.421460 0.884244 0.700411 0.205754
H16   H     H_    0.480316 0.887562 0.835129 0.197277
H17   H     H_    0.422119 0.106900 0.699319 0.200524
H18   H     H_    0.481686 0.109163 0.832381 0.207858
C39   C     C_R   0.530927 0.587481 0.074514 0.219904
N3    N     N_R   0.500360 0.500930 0.147930 -0.202000
C40   C     C_R   0.464447 0.420811 0.070534 0.175097
C41   C     C_R   0.464981 0.422636 0.922267 -0.085590
H19   H     H_    0.437324 0.360113 0.862866 0.156053
N4    N     N_R   0.500360 0.500890 0.852020 -0.201038
C42   C     C_R   0.530953 0.587275 0.927651 0.247032
C43   C     C_3   0.593768 0.609157 0.924501 -0.503641
C44   C     C_3   0.593740 0.610092 0.082620 -0.478716
H20   H     H_    0.616284 0.528817 0.881998 0.215924
H21   H     H_    0.605576 0.700502 0.878008 0.195023
H22   H     H_    0.616790 0.531154 0.128912 0.216275
H23   H     H_    0.605217 0.702215 0.127854 0.196291
C45   C     C_3   0.420823 0.331424 0.133949 -0.362882
C46   C     C_3   0.431399 0.194329 0.101379 -0.391343
C47   C     C_3   0.382862 0.134805 0.014906 -0.832346
H24   H     H_    0.342535 0.136426 0.073627 0.263441
H25   H     H_    0.377001 0.184950 0.914832 0.246019
H26   H     H_    0.392582 0.036886 0.992635 0.255682
H27   H     H_    0.472609 0.183784 0.048588 0.210637
H28   H     H_    0.434220 0.141333 0.200587 0.227060
H29   H     H_    0.418426 0.336699 0.246393 0.241216
H30   H     H_    0.377938 0.358468 0.095775 0.172786

loop_
_geom_bond_atom_site_label_1
_geom_bond_atom_site_label_2
_geom_bond_distance
_ccdc_geom_bond_type
C46   C47   1.528060 S    
C34   C35   1.407497 A    
C7    C10   1.405099 A    
C20   H6    1.082982 S    
C8    C9    1.408873 A    
C21   C22   1.406292 A    
Cu1   Cu2   2.698775 S    
C19   C20   1.394964 A    
C3    C35   1.446468 S    
C27   C28   1.404129 A    
Cu1   O7    1.944557 S    
C15   C16   1.395302 A    
C17   N2    1.368996 A    
C41   N4    1.354884 A    
O1    C1    1.299001 A    
C43   H21   1.111566 S    
C31   C36   1.374207 A    
O4    C2    1.303803 A    
O7    C4    1.304265 A    
C10   H1    1.083128 S    
C16   H4    1.083149 S    
C5    N1    1.369579 A    
C29   H12   1.082848 S    
C7    C8    1.408815 A    
C39   N3    1.364285 A    
C33   C34   1.398118 A    
O5    C3    1.297194 A    
C45   H29   1.082782 S    
C23   H8    1.082882 S    
C17   O11   1.349458 S    
N1    C6    1.369628 A    
C25   C26   1.393856 A    
C12   C13   1.409055 A    
C38   H18   1.106391 S    
C1    C32   1.449021 S    
C36   C37   1.493301 S    
C31   C32   1.391651 A    
C10   C11   1.395333 A    
C20   C21   1.406334 A    
O3    Cu1   1.937708 S    
C39   C44   1.490321 S    
C22   C23   1.393841 A    
C23   C24   1.399010 A    
C5    C9    1.403088 A    
C11   H2    1.083152 S    
C28   C29   1.394972 A    
N3    C40   1.398655 A    
N2    C24   1.432075 S    
C37   C38   1.517482 S    
C13   C14   1.408991 A    
O3    C2    1.302261 A    
C19   H5    1.082836 S    
C45   C46   1.542165 S    
C14   C15   1.404974 A    
C34   H14   1.083240 S    
C25   C30   1.399791 A    
C26   H10   1.082561 S    
C32   C33   1.407061 A    
C37   H15   1.112237 S    
C40   C41   1.422586 A    
N2    C18   1.369049 A    
C31   C38   1.487232 S    
C40   C45   1.521630 S    
C47   H26   1.110373 S    
Cu2   O8    1.937708 S    
Cu2   N3    2.028016 S    
C6    C7    1.403076 A    
C39   C42   1.408814 A    
N1    C30   1.433482 S    
C12   C17   1.403073 A    
C41   H19   1.081509 S    
Cu1   N4    2.027328 S    
C43   H20   1.110802 S    
C47   H25   1.109166 S    
C35   C36   1.393213 A    
C2    C21   1.472576 S    
C44   H22   1.110260 S    
C22   H7    1.083101 S    
C14   C18   1.403011 A    
Cu1   O5    1.958658 S    
C28   H11   1.080612 S    
O1    Cu1   1.959994 S    
O2    Cu2   1.958658 S    
O8    C4    1.300608 A    
C43   C44   1.516856 S    
O6    C3    1.296297 A    
O4    Cu2   1.944562 S    
C15   H3    1.083132 S    
C5    O9    1.349489 S    
C9    C16   1.405069 A    
C18   O12   1.349455 S    
C37   H16   1.111911 S    
O2    C1    1.295666 A    
N4    C42   1.365530 A    
C38   H17   1.112098 S    
C46   H28   1.110936 S    
C29   C30   1.400413 A    
C8    C13   1.411422 A    
C33   H13   1.082518 S    
C45   H30   1.112877 S    
C42   C43   1.489286 S    
C4    C27   1.470124 S    
C47   H24   1.110872 S    
Cu2   O6    1.959993 S    
C25   H9    1.082878 S    
C6    O10   1.349471 S    
C11   C12   1.404963 A    
C26   C27   1.405100 A    
C46   H27   1.108888 S    
C44   H23   1.111590 S    
C19   C24   1.399528 A    
