data_mof_unit_58483.cif
_audit_creation_date              2013-03-05T15:55:18-0500
_audit_creation_method            fapswitch 2.2
_symmetry_space_group_name_H-M    P1
_symmetry_Int_Tables_number       1
_space_group_crystal_system       triclinic
_cell_length_a                    27.149157
_cell_length_b                    10.697682
_cell_length_c                    9.969226
_cell_angle_alpha                 88.888798
_cell_angle_beta                  91.13447
_cell_angle_gamma                 91.734356
_cell_volume                      2892.98729153

loop_
_atom_site_label
_atom_site_type_symbol
_atom_site_description
_atom_site_fract_x
_atom_site_fract_y
_atom_site_fract_z
_atom_type_partial_charge
O1    O     O_R   0.500000 0.316780 0.614690 -0.606720
O2    O     O_R   0.500000 0.316750 0.385360 -0.642009
C1    C     C_R   0.505024 0.261052 0.502050 0.870007
O3    O     O_R   0.428760 0.500030 0.614650 -0.596060
O4    O     O_R   0.428750 0.500010 0.385320 -0.620570
C2    C     C_R   0.405939 0.496489 0.499111 0.913977
Zn1   Zn    Zn3+2 0.500000 0.500020 0.653130 0.963107
Zn2   Zn    Zn3+2 0.500000 0.499980 0.346870 0.962917
O5    O     O_R   0.500000 0.683250 0.614640 -0.626147
O6    O     O_R   0.500000 0.683220 0.385310 -0.595278
O7    O     O_R   0.571250 0.499990 0.614680 -0.629824
O8    O     O_R   0.571240 0.499970 0.385350 -0.613087
C3    C     C_R   0.496460 0.739545 0.499366 0.893361
C4    C     C_R   0.594050 0.499072 0.501278 0.863369
C5    C     C_R   0.177905 0.305188 0.466895 0.538768
O9    O     O_2   0.200966 0.275584 0.353909 -0.544629
N1    N     N_R   0.203455 0.369908 0.564459 -0.341241
C6    C     C_R   0.181420 0.403423 0.679897 0.535931
C7    C     C_R   0.270478 0.528018 0.542710 -0.106136
C8    C     C_R   0.319918 0.559741 0.522663 0.099130
C9    C     C_R   0.337351 0.337754 0.497117 0.181080
C10   C     C_R   0.287816 0.308303 0.524027 -0.085024
C11   C     C_R   0.254464 0.402459 0.544993 0.206840
C12   C     C_R   0.103146 0.325269 0.590654 -0.089179
C13   C     C_R   0.127467 0.274422 0.481838 -0.116537
C14   C     C_R   0.100753 0.191440 0.396159 0.224465
C15   C     C_R   0.130650 0.383597 0.694194 -0.042546
C16   C     C_R   0.353438 0.465283 0.500081 -0.147185
H1    H     H_    0.274173 0.212360 0.527498 0.160264
C17   C     C_R   0.647121 0.485535 0.504921 -0.109460
C18   C     C_R   0.973095 0.287984 0.474496 0.058479
C19   C     C_R   0.976807 0.405176 0.685619 0.054083
C20   C     C_R   0.949862 0.359626 0.572299 0.085666
C21   C     C_R   0.946258 0.258453 0.355998 -0.212620
C22   C     C_R   0.896782 0.284929 0.340617 -0.135767
C23   C     C_R   0.873080 0.350427 0.438926 -0.018922
C24   C     C_R   0.899894 0.391841 0.552739 -0.057033
C25   C     C_R   0.877086 0.468620 0.644809 -0.037524
C26   C     C_R   0.827253 0.495928 0.625728 0.549961
N2    N     N_R   0.801418 0.449374 0.517823 -0.339585
C27   C     C_R   0.823304 0.379018 0.424198 0.491006
C28   C     C_R   0.718876 0.360619 0.542680 -0.170478
C29   C     C_R   0.667821 0.369626 0.540096 0.190754
C30   C     C_R   0.677497 0.588878 0.470583 -0.335372
C31   C     C_R   0.728797 0.578832 0.472269 0.283354
C32   C     C_R   0.749295 0.463671 0.509413 0.241513
O10   O     O_2   0.796785 0.336591 0.317568 -0.563599
C33   C     C_R   0.023892 0.262101 0.489894 -0.065579
C34   C     C_R   0.051264 0.320680 0.594667 0.023979
C35   C     C_R   0.027285 0.377548 0.701984 0.018763
C36   C     C_R   0.048966 0.180756 0.404419 0.175365
H2    H     H_    0.735336 0.273093 0.572566 0.159032
H3    H     H_    0.877673 0.257825 0.248763 0.194931
H4    H     H_    0.963400 0.220745 0.270118 0.195492
O11   O     O_2   0.208472 0.457317 0.779340 -0.540679
C37   C     C_R   0.107059 0.416411 0.811210 -0.142957
H5    H     H_    0.244449 0.600904 0.557911 0.175795
H6    H     H_    0.128353 0.446049 0.898611 0.216730
C38   C     C_R   0.954124 0.491179 0.768348 -0.177454
C39   C     C_R   0.904768 0.519075 0.751227 -0.135386
O12   O     O_2   0.804528 0.566376 0.715290 -0.555351
C40   C     C_R   0.055913 0.407250 0.818846 0.111128
H7    H     H_    0.974766 0.544522 0.841901 0.184593
H8    H     H_    0.661267 0.677271 0.442747 0.148557
H9    H     H_    0.888878 0.583943 0.819142 0.193437
H10   H     H_    0.516104 0.116578 0.289737 0.182122
C41   C     C_R   0.522578 0.107001 0.756576 -0.162466
H11   H     H_    0.543997 0.193152 0.766903 0.166313
C42   C     C_R   0.508035 0.043915 0.874117 -0.163399
H12   H     H_    0.517101 0.083504 0.970949 0.153021
C43   C     C_R   0.478823 0.934884 0.865442 0.208625
C44   C     C_R   0.469779 0.881353 0.740841 -0.135481
H13   H     H_    0.446585 0.797437 0.737159 0.192592
C45   C     C_R   0.490086 0.936484 0.623349 0.058610
C46   C     C_R   0.508768 0.058992 0.629243 0.110915
C47   C     C_R   0.511327 0.127903 0.506786 -0.113132
C48   C     C_R   0.511363 0.066485 0.384349 -0.227031
H14   H     H_    0.509546 0.892396 0.288396 0.199258
C49   C     C_R   0.505260 0.939106 0.382423 -0.186422
C50   C     C_R   0.493887 0.873425 0.500560 -0.105221
H15   H     H_    0.571705 0.578391 0.126392 0.149266
C51   C     C_R   0.416668 0.406328 0.133616 -0.175232
H16   H     H_    0.418840 0.360900 0.229499 0.189292
C52   C     C_R   0.371265 0.404829 0.064891 0.185260
C53   C     C_R   0.370406 0.422856 0.926936 -0.208562
H17   H     H_    0.335993 0.405711 0.872424 0.205723
C54   C     C_R   0.414757 0.415741 0.860921 0.192867
C55   C     C_R   0.458687 0.456790 0.926839 0.106398
C56   C     C_R   0.459109 0.454931 0.070373 0.116147
N3    N     N_R   0.499540 0.498800 0.142780 -0.101898
C57   C     C_R   0.539495 0.542574 0.072499 -0.082397
H18   H     H_    0.571870 0.576973 0.877702 0.153588
C58   C     C_R   0.539585 0.541889 0.929805 -0.107010
N4    N     N_R   0.499520 0.498720 0.857170 -0.114102
N5    N     N_2   0.371424 0.241141 0.471828 -0.300736
H19   H     H_    0.404181 0.267093 0.428200 0.228509
C59   C     C_3   0.353955 0.115305 0.441881 -0.651151
H20   H     H_    0.385776 0.056769 0.419298 0.254719
H21   H     H_    0.328552 0.116173 0.353253 0.260617
H22   H     H_    0.335349 0.072128 0.530216 0.258916
N6    N     N_2   0.759534 0.684925 0.440480 -0.293038
H23   H     H_    0.744411 0.768909 0.463946 0.230890
C60   C     C_3   0.778196 0.686721 0.305566 -0.731913
H24   H     H_    0.802798 0.770465 0.290793 0.239464
H25   H     H_    0.747215 0.690786 0.231158 0.240092
H26   H     H_    0.799891 0.602573 0.288122 0.267452
I1    I     I_    0.028811 0.404369 0.018882 -0.441143
I2    I     I_    0.448534 0.848298 0.038018 -0.359235
I3    I     I_    0.304771 0.353125 0.158502 -0.247206
I4    I     I_    0.411403 0.236827 0.777018 -0.335710
N7    N     N_2   0.125168 0.107148 0.312787 -0.285434
H27   H     H_    0.144095 0.146928 0.233459 0.284342
C61   C     C_3   0.149139 0.004839 0.381945 -0.671355
H28   H     H_    0.181000 0.039958 0.443388 0.244163
H29   H     H_    0.162625 0.938879 0.307308 0.243917
H30   H     H_    0.122589 0.953276 0.447773 0.240354
N8    N     N_2   0.638283 0.261878 0.574936 -0.311480
H31   H     H_    0.603913 0.278962 0.610645 0.219831
C62   C     C_3   0.637620 0.163220 0.477628 -0.773326
H32   H     H_    0.616919 0.080175 0.518061 0.241418
H33   H     H_    0.675619 0.134498 0.456514 0.256226
H34   H     H_    0.619302 0.195220 0.382906 0.242452
N9    N     N_2   0.024023 0.073326 0.348678 -0.311177
H35   H     H_    0.992374 0.040129 0.394499 0.231095
C63   C     C_3   0.027158 0.051488 0.205906 -0.711048
H36   H     H_    0.989584 0.040059 0.160885 0.223498
H37   H     H_    0.047119 0.964079 0.190453 0.263116
H38   H     H_    0.046480 0.130325 0.152753 0.264192
I5    I     I_    0.342282 0.751431 0.529564 -0.364854

loop_
_geom_bond_atom_site_label_1
_geom_bond_atom_site_label_2
_geom_bond_distance
_ccdc_geom_bond_type
C54   C55   1.412648 A    
N6    H23   1.031872 S    
C10   H1    1.080719 S    
C22   H3    1.083563 S    
C36   N9    1.432095 S    
N5    H19   1.026064 S    
C12   C15   1.406642 A    
C8    I5    2.122955 S    
C59   H20   1.111330 S    
N9    H35   1.031451 S    
N7    C61   1.446653 S    
C54   I4    2.102312 S    
C53   H17   1.084077 S    
C7    H5    1.082798 S    
Zn1   O7    1.979432 S    
N1    C11   1.433732 S    
C51   C56   1.405456 A    
C23   C24   1.407444 A    
N8    C62   1.446778 S    
O4    C2    1.302524 A    
O7    C4    1.299948 A    
N9    C63   1.451408 S    
C5    O9    1.347148 S    
C5    N1    1.369995 A    
C21   C22   1.386077 A    
C28   C32   1.396022 A    
C42   C43   1.393594 A    
O5    C3    1.290284 A    
O1    Zn1   2.004631 S    
C52   C53   1.384886 A    
C33   C36   1.426314 A    
C2    C16   1.454236 S    
N7    H27   1.029736 S    
C63   H38   1.110925 S    
C18   C20   1.420721 A    
C61   H30   1.111357 S    
C53   C54   1.388400 A    
C3    C50   1.436316 S    
C38   C39   1.388124 A    
N6    C60   1.446189 S    
C45   C50   1.416118 A    
C9    C10   1.401848 A    
C17   C30   1.400284 A    
C23   C27   1.398812 A    
C4    C17   1.452115 S    
O3    Zn1   1.964324 S    
C59   H21   1.110107 S    
C62   H33   1.110535 S    
C26   O12   1.349763 S    
C55   N4    1.378710 A    
C45   C46   1.392778 A    
C41   H11   1.080267 S    
C48   C49   1.368174 A    
C12   C13   1.407721 A    
C44   C45   1.415217 A    
C26   N2    1.366370 A    
H14   C49   1.080700 S    
C40   I1    2.138581 S    
C8    C16   1.404459 A    
C13   C14   1.417588 A    
C31   C32   1.407186 A    
C51   H16   1.065286 S    
C30   H8    1.084211 S    
O1    C1    1.293036 A    
C22   C23   1.394431 A    
C7    C11   1.399132 A    
C46   C47   1.415621 A    
C24   C25   1.408219 A    
C57   C58   1.422759 A    
Zn2   O8    1.964321 S    
N1    C6    1.366407 A    
C27   O10   1.350186 S    
C18   C21   1.411624 A    
C60   H25   1.111706 S    
C58   N4    1.368265 A    
C47   C48   1.397401 A    
C1    C47   1.439518 S    
C19   C35   1.416265 A    
C31   N6    1.422718 S    
C6    O11   1.349932 S    
C29   N8    1.425444 S    
C25   C39   1.395612 A    
O3    C2    1.297702 A    
N2    C27   1.366390 A    
C9    C16   1.420498 A    
O8    C4    1.300333 A    
C39   H9    1.083503 S    
C21   H4    1.073704 S    
C51   C52   1.398187 A    
C18   C33   1.419591 A    
C63   H36   1.110610 S    
C35   C40   1.423337 A    
C37   C40   1.392545 A    
C17   C29   1.412014 A    
C14   C36   1.411041 A    
C41   C46   1.417930 A    
C28   C29   1.392061 A    
N2    C32   1.428576 S    
C59   H22   1.109844 S    
C30   C31   1.399871 A    
C61   H28   1.110341 S    
C62   H34   1.111481 S    
C12   C34   1.409247 A    
Zn1   O5    1.990026 S    
Zn1   N4    2.034195 S    
C33   C34   1.415056 A    
C15   C37   1.397628 A    
O2    Zn2   1.990024 S    
C6    C15   1.397908 A    
C44   H13   1.081612 S    
O6    C3    1.303683 A    
O4    Zn2   1.979435 S    
C62   H32   1.110148 S    
N5    C59   1.448295 S    
C9    N5    1.436905 S    
C38   H7    1.076097 S    
C52   I3    2.102861 S    
C19   C20   1.419825 A    
C7    C8    1.391834 A    
O2    C1    1.303328 A    
C43   C44   1.392206 A    
N8    H31   1.028021 S    
N3    C57   1.368751 A    
C25   C26   1.401243 A    
H18   C58   1.081427 S    
C37   H6    1.083332 S    
C60   H26   1.108923 S    
H10   C48   1.083706 S    
C42   H12   1.082577 S    
C20   C24   1.418573 A    
C5    C13   1.408721 A    
C49   C50   1.394722 A    
H15   C57   1.081330 S    
Zn2   N3    2.034692 S    
C55   C56   1.430499 A    
Zn2   O6    2.004631 S    
C34   C35   1.419633 A    
C60   H24   1.110381 S    
C63   H37   1.109660 S    
C10   C11   1.396062 A    
C19   C38   1.410581 A    
C41   C42   1.398559 A    
C56   N3    1.377216 A    
C43   I2    2.107657 S    
C14   N7    1.424912 S    
C28   H2    1.083700 S    
C61   H29   1.110133 S    
