data_mof_unit_33268.cif
_audit_creation_date              2012-12-10T20:03:10-0500
_audit_creation_method            fapswitch 2.2
_symmetry_space_group_name_H-M    P1
_symmetry_Int_Tables_number       1
_space_group_crystal_system       triclinic
_cell_length_a                    8.543754
_cell_length_b                    19.234955
_cell_length_c                    18.463828
_cell_angle_alpha                 89.214048
_cell_angle_beta                  98.903369
_cell_angle_gamma                 90.163218
_cell_volume                      2997.47783039

loop_
_atom_site_label
_atom_site_type_symbol
_atom_type_description
_atom_site_fract_x
_atom_site_fract_y
_atom_site_fract_z
_atom_type_partial_charge
C1    C     C_R   0.502213 0.365962 0.500662 0.865042
C2    C     C_R   0.500342 0.633861 0.499485 0.869200
C3    C     C_R   0.523299 0.962326 0.566329 -0.079915
C4    C     C_R   0.463879 0.036822 0.430147 -0.077402
C5    C     C_R   0.536515 0.035108 0.564434 0.368494
C6    C     C_R   0.478252 0.964034 0.431463 0.374138
C7    C     C_R   0.491616 0.071610 0.498123 -0.064829
C8    C     C_R   0.491631 0.927574 0.498488 -0.065498
C9    C     C_R   0.576450 0.551555 0.730781 -0.005529
C10   C     C_R   0.557049 0.556510 0.277747 -0.000052
C11   C     C_R   0.578165 0.553270 0.807065 0.366440
C12   C     C_R   0.557343 0.559187 0.201608 0.363180
C13   C     C_R   0.499019 0.499824 0.841229 0.016480
C14   C     C_R   0.500081 0.501012 0.158714 0.019422
C15   C     C_R   0.423287 0.446956 0.797080 -0.332812
C16   C     C_R   0.442170 0.443626 0.194241 -0.337790
C17   C     C_R   0.424191 0.448232 0.721212 -0.012701
C18   C     C_R   0.442350 0.444276 0.270157 -0.028369
C19   C     C_R   0.364929 0.524091 0.951464 0.024448
C20   C     C_R   0.625938 0.469053 0.048165 0.030041
C21   C     C_R   0.367661 0.527147 0.028276 0.406050
C22   C     C_R   0.627364 0.469546 0.971482 0.404952
C23   C     C_R   0.200797 0.499943 0.480799 0.976419
C24   C     C_R   0.799183 0.499811 0.519196 0.955715
C25   C     C_R   0.497790 0.499084 0.077208 -0.156678
C26   C     C_R   0.496558 0.497226 0.922480 -0.157379
C27   C     C_2   0.035524 0.499931 0.470407 -0.392245
C28   C     C_2   0.964420 0.499525 0.529566 -0.402963
C29   C     C_R   0.356986 0.741980 0.474775 -0.286818
C30   C     C_R   0.387684 0.256595 0.533442 -0.286816
C31   C     C_R   0.348942 0.814334 0.471822 0.146869
C32   C     C_R   0.378997 0.184261 0.533724 0.156030
C33   C     C_R   0.489307 0.852013 0.496293 0.181162
C34   C     C_R   0.491912 0.147210 0.500783 0.178985
C35   C     C_R   0.633986 0.817859 0.516504 -0.232761
C36   C     C_R   0.614109 0.182020 0.472891 -0.236651
C37   C     C_R   0.642691 0.745835 0.516983 0.085789
C38   C     C_R   0.622531 0.254087 0.472887 0.082347
C39   C     C_R   0.501082 0.708329 0.498038 -0.053452
C40   C     C_R   0.505495 0.291146 0.502186 -0.071059
H1    H     H_    0.972970 0.500402 0.414384 0.180702
H2    H     H_    0.026981 0.499051 0.585586 0.181183
H3    H     H_    0.362767 0.405156 0.821297 0.172220
H4    H     H_    0.396530 0.398612 0.163192 0.169405
H5    H     H_    0.364245 0.407646 0.687572 0.144437
H6    H     H_    0.395654 0.400119 0.296737 0.145538
H7    H     H_    0.251062 0.711332 0.458052 0.139356
H8    H     H_    0.300686 0.286576 0.556683 0.143336
H9    H     H_    0.741049 0.847873 0.531620 0.145336
H10   H     H_    0.703761 0.152606 0.450984 0.139840
H11   H     H_    0.636749 0.591883 0.704329 0.147004
H12   H     H_    0.602011 0.600278 0.310872 0.160936
N1    N     N_R   0.500020 0.499980 0.689440 -0.125178
N2    N     N_R   0.499980 0.500020 0.310560 -0.124280
O1    O     O_R   0.500010 0.398180 0.560840 -0.619655
O2    O     O_R   0.499990 0.601820 0.439160 -0.623312
O3    O     O_R   0.499930 0.398180 0.439210 -0.627250
O4    O     O_R   0.500070 0.601820 0.560790 -0.622415
O5    O     O_R   0.271780 0.500000 0.546590 -0.615936
O6    O     O_R   0.728220 0.500000 0.453410 -0.617337
O7    O     O_R   0.271710 0.499990 0.424960 -0.618583
O8    O     O_R   0.728290 0.500010 0.575040 -0.622183
Zn1   Zn    Zn3+2 0.500050 0.500000 0.581210 0.936985
Zn2   Zn    Zn3+2 0.499950 0.500000 0.418790 0.934844
C41   C     C_3   0.219266 0.550998 0.901084 -0.310525
C42   C     C_3   0.231725 0.629288 0.886580 -0.348176
C43   C     C_3   0.080279 0.656990 0.840656 -0.839701
H13   H     H_    0.054123 0.628427 0.788285 0.262301
H14   H     H_    0.978933 0.650932 0.871322 0.301430
H15   H     H_    0.094797 0.713053 0.828134 0.244422
H16   H     H_    0.252602 0.657450 0.939383 0.257379
H17   H     H_    0.332972 0.639827 0.856846 0.235432
H18   H     H_    0.201031 0.523223 0.848209 0.189428
H19   H     H_    0.110962 0.539827 0.925776 0.251936
C44   C     C_3   0.764328 0.436295 0.098804 -0.350061
C45   C     C_3   0.896702 0.489411 0.120482 -0.301694
C46   C     C_3   0.027498 0.458979 0.177640 -0.870389
H20   H     H_    0.978914 0.442746 0.227671 0.257447
H21   H     H_    0.082490 0.413450 0.155118 0.263418
H22   H     H_    0.119840 0.498990 0.193338 0.264239
H23   H     H_    0.947876 0.505753 0.071140 0.279620
H24   H     H_    0.848515 0.536171 0.143734 0.242189
H25   H     H_    0.725071 0.413935 0.148726 0.193445
H26   H     H_    0.812093 0.391445 0.071828 0.235635
O9    O     O_3   0.239983 0.558237 0.052923 -0.783806
H27   H     H_    0.259861 0.563155 0.106706 0.348440
O10   O     O_3   0.759656 0.442431 0.947037 -0.780898
H28   H     H_    0.745383 0.442107 0.892934 0.347209
C47   C     C_3   0.193562 0.848562 0.438364 -0.382663
C48   C     C_3   0.111077 0.886561 0.494342 -0.412879
C49   C     C_3   0.958372 0.920986 0.456974 -0.881746
H29   H     H_    0.985503 0.962339 0.418173 0.262347
H30   H     H_    0.878304 0.882019 0.426615 0.275969
H31   H     H_    0.896421 0.944893 0.498941 0.245674
H32   H     H_    0.082435 0.848947 0.536624 0.225495
H33   H     H_    0.188768 0.927823 0.521516 0.235816
H34   H     H_    0.214012 0.885040 0.393813 0.255646
H35   H     H_    0.110150 0.808631 0.411752 0.197111
C50   C     C_3   0.251879 0.149383 0.571023 -0.390031
C51   C     C_3   0.118667 0.117411 0.516396 -0.410491
C52   C     C_3   0.984779 0.090453 0.555191 -0.871457
H36   H     H_    0.029299 0.049225 0.595856 0.260174
H37   H     H_    0.933351 0.133479 0.583405 0.277140
H38   H     H_    0.889685 0.068162 0.514342 0.246192
H39   H     H_    0.069695 0.157200 0.474866 0.219840
H40   H     H_    0.165267 0.073165 0.488302 0.234693
H41   H     H_    0.304802 0.109054 0.610708 0.247880
H42   H     H_    0.198361 0.188155 0.604057 0.197350
C53   C     C_3   0.804585 0.711691 0.532847 -0.418204
C54   C     C_3   0.882110 0.721330 0.612742 -0.350599
C55   C     C_3   0.050266 0.692058 0.625712 -0.869705
H43   H     H_    0.048080 0.635092 0.616596 0.267980
H44   H     H_    0.123436 0.717575 0.588203 0.260439
H45   H     H_    0.106182 0.702105 0.682934 0.252544
H46   H     H_    0.888136 0.777425 0.626522 0.214536
H47   H     H_    0.810316 0.694274 0.649887 0.233480
H48   H     H_    0.798415 0.655297 0.520887 0.195108
H49   H     H_    0.881166 0.735373 0.495582 0.207334
C56   C     C_3   0.760417 0.288962 0.444129 -0.406744
C57   C     C_3   0.735920 0.288937 0.360099 -0.317568
C58   C     C_3   0.868591 0.328214 0.330545 -0.889136
H50   H     H_    0.870298 0.383457 0.347442 0.268886
H51   H     H_    0.985087 0.303986 0.351333 0.259403
H52   H     H_    0.848603 0.326512 0.269721 0.244786
H53   H     H_    0.733037 0.234540 0.340330 0.206396
H54   H     H_    0.620997 0.313945 0.338104 0.231988
H55   H     H_    0.777832 0.343056 0.464009 0.207208
H56   H     H_    0.871601 0.260756 0.465930 0.192375
C59   C     C_3   0.544063 0.922851 0.639840 -0.382128
C60   C     C_3   0.389237 0.889593 0.655875 -0.352525
C61   C     C_3   0.411175 0.854727 0.731524 -0.861613
H57   H     H_    0.503057 0.813524 0.735180 0.269475
H58   H     H_    0.446853 0.893631 0.774894 0.264319
H59   H     H_    0.297806 0.830458 0.740952 0.248274
H60   H     H_    0.296045 0.930154 0.653413 0.223571
H61   H     H_    0.348457 0.849224 0.615159 0.228866
H62   H     H_    0.637294 0.882650 0.641445 0.190688
H63   H     H_    0.585414 0.957462 0.686337 0.223192
C62   C     C_3   0.421350 0.076089 0.356992 -0.381382
C63   C     C_3   0.257686 0.110622 0.348523 -0.345381
C64   C     C_3   0.213405 0.144224 0.272777 -0.889644
H64   H     H_    0.302240 0.184382 0.263569 0.258817
H65   H     H_    0.207124 0.104366 0.229456 0.267989
H66   H     H_    0.095673 0.169549 0.268887 0.250781
H67   H     H_    0.166630 0.071039 0.356519 0.223237
H68   H     H_    0.256820 0.151986 0.389459 0.225548
H69   H     H_    0.513261 0.115491 0.350546 0.187530
H70   H     H_    0.418705 0.041046 0.309748 0.225312
O11   O     O_3   0.592319 0.072375 0.626456 -0.783216
H71   H     H_    0.691890 0.049830 0.649914 0.327528
O12   O     O_3   0.479726 0.926752 0.368259 -0.778718
H72   H     H_    0.556895 0.949643 0.340756 0.328788
O13   O     O_3   0.657483 0.607532 0.844968 -0.800940
H73   H     H_    0.647737 0.603581 0.897536 0.342080
O14   O     O_3   0.613282 0.619108 0.172366 -0.776248
H74   H     H_    0.604242 0.615119 0.118535 0.340036

loop_
_geom_bond_atom_site_label_1
_geom_bond_atom_site_label_2
_ccdc_geom_bond_type
C38   C40   A    
O10   H28   S    
C52   H36   S    
C17   N1    A    
N1    Zn1   S    
C55   H43   S    
C9    H11   S    
C61   H59   S    
C10   H12   S    
C53   H48   S    
C48   H32   S    
C46   H20   S    
C23   O5    A    
C50   H42   S    
C62   H69   S    
C51   H39   S    
C29   H7    S    
C30   H8    S    
C35   C37   A    
C17   H5    S    
C64   H65   S    
C57   H54   S    
C44   H26   S    
C20   C25   A    
C41   H18   S    
C19   C26   A    
C54   C55   S    
C58   H52   S    
C1    C40   S    
C5    O11   S    
O11   H71   S    
C2    C39   S    
C42   H17   S    
C59   H63   S    
C50   C51   S    
C31   C47   S    
O1    Zn1   S    
C35   H9    S    
O12   H72   S    
O2    Zn2   S    
C23   C27   S    
C16   H4    S    
C37   C53   S    
C56   H56   S    
C42   C43   S    
C52   H37   S    
C4    C7    A    
C18   H6    S    
C53   H49   S    
C46   H21   S    
C62   C63   S    
C21   O9    S    
C62   H70   S    
C43   H13   S    
C63   C64   S    
C4    C6    A    
C3    C8    A    
C64   H66   S    
C63   H68   S    
C49   H29   S    
C5    C7    A    
C18   N2    A    
C57   H53   S    
C6    C8    A    
C61   H58   S    
O9    H27   S    
C41   H19   S    
C20   C44   S    
C47   H34   S    
C43   H14   S    
C32   C34   A    
C63   H67   S    
O7    Zn2   S    
C44   C45   S    
O8    Zn1   S    
C1    O3    A    
C49   H30   S    
C27   H1    S    
C42   H16   S    
C24   O6    A    
C29   C39   A    
C31   C33   A    
C30   C40   A    
C55   H44   S    
C22   O10   S    
C45   C46   S    
C9    C11   A    
C58   H50   S    
C10   C12   A    
C38   C56   S    
C16   C18   A    
C60   H60   S    
C12   C14   A    
C52   H38   S    
C13   C15   A    
C7    C34   S    
C14   C16   A    
C13   C26   S    
C9    N1    A    
C6    O12   S    
C12   O14   S    
C45   H24   S    
C61   H57   S    
C47   C48   S    
C54   H47   S    
O14   H74   S    
C36   H10   S    
C57   C58   S    
O3    Zn2   S    
C59   C60   S    
C46   H22   S    
O4    Zn1   S    
C15   C17   A    
C21   C25   A    
C24   O8    A    
C19   C21   A    
C3    C59   S    
C51   H40   S    
C60   H61   S    
C24   C28   S    
C20   C22   A    
C3    C5    A    
C45   H23   S    
C56   C57   S    
C2    O4    A    
C48   H33   S    
C50   H41   S    
O5    Zn1   S    
C32   C50   S    
C47   H35   S    
O6    Zn2   S    
C43   H15   S    
C36   C38   A    
C60   C61   S    
C1    O1    A    
C15   H3    S    
C37   C39   A    
C2    O2    A    
C64   H64   S    
C4    C62   S    
C30   C32   A    
C11   C13   A    
C44   H25   S    
C48   C49   S    
N2    Zn2   S    
C28   H2    S    
C51   C52   S    
C33   C35   A    
C19   C41   S    
C55   H45   S    
C34   C36   A    
C8    C33   S    
C14   C25   S    
C10   N2    A    
C58   H51   S    
C11   O13   S    
C23   O7    A    
C59   H62   S    
C29   C31   A    
C41   C42   S    
C22   C26   A    
C27   C28   D    
O13   H73   S    
C53   C54   S    
C54   H46   S    
C49   H31   S    
C56   H55   S    
