data_mof_unit_55949.cif
_audit_creation_date              2012-12-10T18:00:16-0500
_audit_creation_method            fapswitch 2.2
_symmetry_space_group_name_H-M    P1
_symmetry_Int_Tables_number       1
_space_group_crystal_system       triclinic
_cell_length_a                    10.876588
_cell_length_b                    9.52009
_cell_length_c                    10.637114
_cell_angle_alpha                 90.159028
_cell_angle_beta                  90.652602
_cell_angle_gamma                 90.355212
_cell_volume                      1101.3345619

loop_
_atom_site_label
_atom_site_type_symbol
_atom_type_description
_atom_site_fract_x
_atom_site_fract_y
_atom_site_fract_z
_atom_type_partial_charge
C1    C     C_R   0.871758 0.502235 0.503512 -0.382105
C2    C     C_R   0.128240 0.497762 0.496483 -0.382118
C3    C     C_R   0.262164 0.499345 0.498535 0.907823
C4    C     C_R   0.737836 0.500654 0.501464 0.907882
C5    C     C_R   0.499140 0.499781 0.259163 0.765188
C6    C     C_R   0.500861 0.500219 0.740837 0.765203
C7    C     C_3   0.405130 0.577084 0.040202 -0.179437
C8    C     C_3   0.594874 0.422915 0.959797 -0.179424
C9    C     C_3   0.512150 0.632917 0.959738 -0.136030
C10   C     C_3   0.487854 0.367082 0.040261 -0.136034
C11   C     C_3   0.393916 0.444912 0.955929 -0.168855
C12   C     C_3   0.606088 0.555088 0.044070 -0.168848
C13   C     C_3   0.500915 0.500656 0.877699 0.036424
C14   C     C_3   0.499088 0.499343 0.122300 0.036421
C15   C     C_R   0.433047 0.073647 0.412637 -0.037253
C16   C     C_R   0.566955 0.926353 0.587361 -0.037291
C17   C     C_R   0.567128 0.075136 0.587226 0.005051
C18   C     C_R   0.432874 0.924864 0.412772 0.005042
C19   C     C_R   0.063473 0.380442 0.542734 0.332663
C20   C     C_R   0.936524 0.619547 0.457242 0.332657
C21   C     C_R   0.935759 0.385714 0.551676 0.348953
C22   C     C_R   0.064239 0.614281 0.448315 0.348977
Cu1   Cu    Cu3+1 0.500000 0.640660 0.500000 0.966808
Cu2   Cu    Cu3+1 0.500000 0.359340 0.500000 0.966824
H1    H     H_    0.379477 0.129040 0.342554 0.107398
H2    H     H_    0.620528 0.870960 0.657442 0.107398
H3    H     H_    0.620976 0.131716 0.657049 0.134151
H4    H     H_    0.379030 0.868285 0.342945 0.134144
H5    H     H_    0.307126 0.399904 0.916827 0.135361
H6    H     H_    0.692877 0.600096 0.083173 0.135385
H7    H     H_    0.327828 0.641251 0.074825 0.113989
H8    H     H_    0.672176 0.358751 0.925168 0.114003
H9    H     H_    0.522206 0.741918 0.924271 0.132012
H10   H     H_    0.477797 0.258082 0.075729 0.132010
N1    N     N_R   0.500000 0.852070 0.500000 -0.154604
N2    N     N_R   0.500000 0.147930 0.500000 -0.154604
O1    O     O_R   0.319640 0.618740 0.499990 -0.543538
O2    O     O_R   0.680360 0.381260 0.500010 -0.543524
O3    O     O_R   0.680360 0.618740 0.500010 -0.554781
O4    O     O_R   0.319640 0.381260 0.499990 -0.554741
O5    O     O_R   0.499970 0.618770 0.316850 -0.583192
O6    O     O_R   0.500030 0.381230 0.683150 -0.583193
O7    O     O_R   0.500030 0.618770 0.683150 -0.603280
O8    O     O_R   0.499970 0.381230 0.316850 -0.603285
O9    O     O_3   0.125095 0.264319 0.588861 -0.547380
C23   C     C_3   0.119100 0.156807 0.497244 -0.198677
H11   H     H_    0.171737 0.065178 0.532279 0.181494
H12   H     H_    0.161043 0.190940 0.407301 0.130691
H13   H     H_    0.022946 0.121459 0.479446 0.168967
O10   O     O_3   0.874896 0.735631 0.411042 -0.547379
C24   C     C_3   0.880861 0.843206 0.502600 -0.198595
H14   H     H_    0.838910 0.809126 0.592554 0.130709
H15   H     H_    0.828213 0.934800 0.467506 0.181472
H16   H     H_    0.977006 0.878588 0.520395 0.168967
O11   O     O_3   0.873815 0.274393 0.606047 -0.551717
C25   C     C_3   0.866802 0.299791 0.736383 -0.292926
H17   H     H_    0.814488 0.212594 0.779952 0.159327
H18   H     H_    0.817233 0.399222 0.756349 0.125503
H19   H     H_    0.959801 0.302377 0.781077 0.181877
O12   O     O_3   0.126177 0.725589 0.393915 -0.551717
C26   C     C_3   0.133309 0.700069 0.263608 -0.292863
H20   H     H_    0.182985 0.600678 0.243764 0.125506
H21   H     H_    0.185573 0.787282 0.220008 0.159334
H22   H     H_    0.040344 0.697320 0.218843 0.181776

loop_
_geom_bond_atom_site_label_1
_geom_bond_atom_site_label_2
_ccdc_geom_bond_type
C19   C21   A    
C2    C22   A    
C26   H22   S    
Cu2   O2    S    
O11   C25   S    
C19   O9    S    
C1    C21   A    
C8    C13   S    
C17   N2    A    
C15   C18   A    
Cu2   O6    S    
C18   N1    A    
C7    C11   S    
Cu1   O5    S    
C4    O3    A    
C8    C12   S    
C24   H16   S    
C12   H6    S    
C1    C4    S    
C26   H21   S    
C2    C3    S    
C18   H4    S    
C10   H10   S    
Cu1   O1    S    
O9    C23   S    
C6    C13   S    
C9    H9    S    
C11   C13   S    
C23   H13   S    
C3    O1    A    
C5    C14   S    
Cu2   N2    S    
C20   O10   S    
Cu1   O3    S    
Cu2   O4    S    
C5    O8    A    
C12   C14   S    
C3    O4    A    
O10   C24   S    
Cu1   N1    S    
C6    O7    A    
C16   N1    A    
C16   H2    S    
C26   H20   S    
Cu2   O8    S    
C9    C12   S    
C23   H12   S    
C15   H1    S    
C7    H7    S    
C10   C11   S    
C20   C22   A    
Cu1   Cu2   S    
C24   H14   S    
C17   H3    S    
C15   N2    A    
Cu1   O7    S    
C25   H17   S    
C11   H5    S    
C8    C10   S    
C10   C14   S    
C7    C9    S    
C25   H19   S    
C9    C13   S    
C23   H11   S    
C16   C17   A    
C21   O11   S    
C5    O5    A    
C22   O12   S    
C2    C19   A    
C4    O2    A    
C6    O6    A    
C7    C14   S    
C24   H15   S    
C25   H18   S    
O12   C26   S    
C1    C20   A    
C8    H8    S    
