data_mof_unit_37849.cif
_audit_creation_date              2012-12-10T18:46:18-0500
_audit_creation_method            fapswitch 2.2
_symmetry_space_group_name_H-M    P1
_symmetry_Int_Tables_number       1
_space_group_crystal_system       triclinic
_cell_length_a                    9.847296
_cell_length_b                    10.762611
_cell_length_c                    13.155407
_cell_angle_alpha                 89.726635
_cell_angle_beta                  69.303261
_cell_angle_gamma                 89.176685
_cell_volume                      1304.13097412

loop_
_atom_site_label
_atom_site_type_symbol
_atom_type_description
_atom_site_fract_x
_atom_site_fract_y
_atom_site_fract_z
_atom_type_partial_charge
C1    C     C_R   0.498930 0.739865 0.500693 0.877321
C2    C     C_R   0.440524 0.523485 0.978598 0.003256
C3    C     C_R   0.451488 0.464262 0.880816 0.057943
C4    C     C_R   0.548426 0.496881 0.024041 0.015326
C5    C     C_R   0.673581 0.425175 0.965458 0.122865
C6    C     C_R   0.668179 0.349831 0.879520 0.078170
C7    C     C_R   0.552409 0.365300 0.841315 0.022998
C8    C     C_R   0.530676 0.533300 0.129124 -0.260932
C9    C     C_R   0.774598 0.464117 0.107495 -0.112100
C10   C     C_R   0.364428 0.507980 0.822800 -0.064189
C11   C     C_R   0.610794 0.931527 0.521863 -0.228472
C12   C     C_R   0.418727 0.498257 0.704590 0.911287
C13   C     C_R   0.614875 0.058937 0.521742 0.107776
C14   C     C_R   0.502127 0.126556 0.502911 -0.023438
C15   C     C_R   0.387597 0.065381 0.485349 -0.228322
C16   C     C_R   0.385264 0.938015 0.485363 -0.197213
C17   C     C_R   0.497499 0.871730 0.502904 -0.033341
C18   C     C_R   0.955621 0.409714 0.445365 0.206148
C19   C     C_R   0.099825 0.410582 0.445504 -0.086984
C20   C     C_R   0.044430 0.589120 0.555084 -0.038426
C21   C     C_R   0.900712 0.589187 0.554964 -0.076918
C22   C     C_R   0.500712 0.259598 0.501008 0.881373
C23   C     C_R   0.581633 0.503567 0.294796 0.888914
C24   C     C_R   0.794771 0.424098 0.000633 -0.076049
C25   C     C_R   0.634298 0.504249 0.175188 -0.068951
C26   C     C_R   0.248264 0.590078 0.871450 -0.323348
C27   C     C_R   0.228031 0.641784 0.972583 0.020455
C28   C     C_R   0.326817 0.612013 0.024063 -0.143477
H1    H     H_    0.300318 0.115567 0.470395 0.164611
H2    H     H_    0.297012 0.891824 0.470479 0.163359
H3    H     H_    0.177385 0.339600 0.402266 0.126525
H4    H     H_    0.076839 0.660365 0.599279 0.126267
H5    H     H_    0.824388 0.660492 0.599086 0.129108
H6    H     H_    0.428850 0.572860 0.181069 0.169336
H7    H     H_    0.181457 0.622733 0.826321 0.174585
H8    H     H_    0.316265 0.663619 0.096487 0.174729
H9    H     H_    0.697265 0.879857 0.536767 0.154764
N1    N     N_R   0.142790 0.500030 0.500030 -0.084022
N2    N     N_R   0.857180 0.499940 0.500010 -0.079289
O1    O     O_R   0.385370 0.683250 0.500010 -0.636339
O2    O     O_R   0.614700 0.683220 0.500010 -0.619268
O3    O     O_R   0.328400 0.499990 0.653620 -0.587810
O4    O     O_R   0.557730 0.499960 0.653620 -0.617855
O5    O     O_R   0.385300 0.316780 0.499990 -0.629987
O6    O     O_R   0.614630 0.316750 0.499990 -0.589027
O7    O     O_R   0.442270 0.500040 0.346380 -0.626525
O8    O     O_R   0.671600 0.500010 0.346380 -0.570949
Zn1   Zn    Zn3+2 0.346870 0.500020 0.500000 0.966746
Zn2   Zn    Zn3+2 0.653130 0.499980 0.500000 0.987069
C29   C     C_2   0.900162 0.468376 0.144741 0.361587
H10   H     H_    0.980459 0.393894 0.124815 0.027596
O9    O     O_2   0.918027 0.557903 0.194987 -0.518710
N3    N     N_3   0.733501 0.117404 0.540824 -0.435370
H11   H     H_    0.735338 0.086663 0.615883 0.154776
H12   H     H_    0.829838 0.086178 0.481384 0.197343
N4    N     N_3   0.911560 0.313078 0.389817 -0.417335
H13   H     H_    0.997774 0.251216 0.353279 0.137112
H14   H     H_    0.885613 0.353930 0.327131 0.215096
N5    N     N_3   0.771974 0.250482 0.838442 -0.438785
H15   H     H_    0.822745 0.261386 0.754536 0.214068
H16   H     H_    0.717849 0.165813 0.853688 0.166598
C30   C     C_2   0.943621 0.393758 0.923696 0.415021
H17   H     H_    0.022058 0.346162 0.951148 0.050545
O10   O     O_2   0.981557 0.425875 0.828654 -0.566877
C31   C     C_2   0.111033 0.735557 0.018395 0.473020
H18   H     H_    0.036591 0.757464 0.976374 0.049483
O11   O     O_2   0.096056 0.789393 0.103268 -0.550234
N6    N     N_3   0.533306 0.278615 0.765092 -0.465752
H19   H     H_    0.627528 0.277767 0.696322 0.227601
H20   H     H_    0.518406 0.190034 0.799831 0.175519

loop_
_geom_bond_atom_site_label_1
_geom_bond_atom_site_label_2
_ccdc_geom_bond_type
C29   O9    D    
C18   N2    A    
C9    C24   A    
C30   H17   S    
C27   C31   S    
C19   N1    A    
O6    Zn2   S    
C20   N1    A    
C1    C17   S    
C8    H6    S    
C21   N2    A    
C18   N4    S    
C4    C8    A    
C19   H3    S    
N6    H20   S    
C10   C26   A    
C23   C25   S    
C2    C3    A    
C9    C25   A    
N5    H15   S    
O8    Zn2   S    
C3    C10   A    
O3    Zn1   S    
N3    H11   S    
N4    H13   S    
C24   C30   S    
C8    C25   A    
C11   C13   A    
C14   C22   S    
C26   C27   A    
C6    C7    A    
C5    C24   A    
C10   C12   S    
C30   O10   D    
C2    C4    A    
O2    Zn2   S    
N2    Zn2   S    
N1    Zn1   S    
C15   H1    S    
C12   O4    A    
C3    C7    A    
N3    H12   S    
C5    C6    A    
O7    Zn1   S    
N5    H16   S    
C23   O8    A    
C13   N3    S    
C12   O3    A    
C15   C16   A    
C26   H7    S    
C4    C5    A    
C22   O6    A    
C21   H5    S    
C20   C21   A    
C28   H8    S    
C11   H9    S    
C31   H18   S    
C20   H4    S    
C1    O2    A    
C27   C28   A    
C23   O7    A    
C18   C19   A    
O1    Zn1   S    
C14   C15   A    
O4    Zn2   S    
C2    C28   A    
C1    O1    A    
C29   H10   S    
C7    N6    S    
C13   C14   A    
C16   H2    S    
C6    N5    S    
N6    H19   S    
C22   O5    A    
C9    C29   S    
O5    Zn1   S    
N4    H14   S    
C16   C17   A    
C31   O11   D    
C11   C17   A    
