data_mof_unit_55028.cif
_audit_creation_date              2012-12-10T18:21:25-0500
_audit_creation_method            fapswitch 2.2
_symmetry_space_group_name_H-M    P1
_symmetry_Int_Tables_number       1
_space_group_crystal_system       triclinic
_cell_length_a                    14.99657
_cell_length_b                    14.189811
_cell_length_c                    10.787991
_cell_angle_alpha                 88.0305
_cell_angle_beta                  87.609424
_cell_angle_gamma                 91.593574
_cell_volume                      2291.33214892

loop_
_atom_site_label
_atom_site_type_symbol
_atom_type_description
_atom_site_fract_x
_atom_site_fract_y
_atom_site_fract_z
_atom_type_partial_charge
Br1   Br    Br    0.673645 0.751422 0.603955 -0.404461
Br2   Br    Br    0.740005 0.368746 0.713107 -0.463667
Br3   Br    Br    0.673276 0.263570 0.367961 -0.394453
Br4   Br    Br    0.327649 0.746515 0.619110 -0.305660
Br5   Br    Br    0.317475 0.240234 0.595877 -0.354792
Br6   Br    Br    0.233543 0.878356 0.411812 -0.248966
Br7   Br    Br    0.239468 0.108121 0.388054 -0.283650
Br8   Br    Br    0.604969 0.682373 0.096481 -0.359016
Br9   Br    Br    0.696715 0.484811 0.111894 -0.383504
Br10  Br    Br    0.760927 0.660071 0.319720 -0.344461
C1    C     C_R   0.327404 0.498839 0.495811 0.929327
C2    C     C_R   0.041017 0.388502 0.673439 -0.145705
C3    C     C_R   0.090538 0.443969 0.584779 0.112966
C4    C     C_R   0.503343 0.501322 0.257664 0.926622
C5    C     C_R   0.047906 0.503028 0.498965 0.067476
C6    C     C_R   0.098810 0.558214 0.407565 -0.016935
C7    C     C_R   0.055254 0.615586 0.320779 0.332947
C8    C     C_R   0.962902 0.619950 0.330177 -0.149300
C9    C     C_R   0.182529 0.441481 0.581340 -0.093588
C10   C     C_R   0.232164 0.496559 0.493332 -0.045394
C11   C     C_R   0.191561 0.553239 0.406086 -0.209389
C12   C     C_3   0.585958 0.543165 0.914275 -0.566861
C13   C     C_R   0.578075 0.802635 0.511401 0.343798
C14   C     C_R   0.577155 0.203206 0.467727 0.332418
C15   C     C_R   0.420890 0.797325 0.506270 0.365489
C16   C     C_R   0.421284 0.195822 0.510766 0.398881
C17   C     C_R   0.419077 0.896816 0.483089 -0.166990
C18   C     C_R   0.419015 0.097859 0.483508 -0.161814
C19   C     C_R   0.673161 0.501453 0.501245 0.998812
C20   C     C_R   0.499681 0.949649 0.483025 0.011076
C21   C     C_R   0.499432 0.050159 0.482189 0.014381
C22   C     C_R   0.580185 0.902363 0.493615 -0.006552
C23   C     C_R   0.818958 0.568806 0.424709 0.263286
C24   C     C_R   0.579784 0.103290 0.478606 -0.005180
C25   C     C_R   0.339610 0.945608 0.460622 0.285785
C26   C     C_R   0.339989 0.045574 0.458152 0.284587
C27   C     C_R   0.660512 0.055117 0.479726 -0.099095
C28   C     C_R   0.660633 0.956478 0.490228 -0.090748
C29   C     C_R   0.496410 0.498228 0.742420 0.933962
C30   C     C_3   0.420832 0.555452 0.078960 -0.474020
C31   C     C_3   0.491668 0.398687 0.079902 -0.425106
C32   C     C_3   0.421289 0.560938 0.936637 0.323020
C33   C     C_3   0.497536 0.392658 0.939631 0.235743
C34   C     C_R   0.769197 0.505447 0.505799 -0.181735
C35   C     C_3   0.590587 0.549012 0.057439 0.498741
C36   C     C_3   0.503269 0.502352 0.121016 -0.139265
C37   C     C_3   0.495497 0.495772 0.879118 -0.229861
C38   C     C_R   0.810959 0.446298 0.591713 0.187194
C39   C     C_R   0.904246 0.446907 0.591770 0.070439
C40   C     C_R   0.954546 0.505374 0.503677 -0.014126
C41   C     C_R   0.911924 0.565891 0.420087 -0.029285
C42   C     C_R   0.948704 0.389429 0.676609 -0.100305
H1    H     H_    0.419768 0.628034 0.114766 0.229901
H2    H     H_    0.425765 0.370255 0.117972 0.244650
H3    H     H_    0.442076 0.634875 0.908496 0.167418
H4    H     H_    0.564986 0.365638 0.915865 0.175159
H5    H     H_    0.594474 0.614787 0.869257 0.248977
H6    H     H_    0.643055 0.503667 0.875497 0.239398
H7    H     H_    0.913340 0.344212 0.745883 0.212844
H8    H     H_    0.161625 0.534456 0.141076 0.356178
H9    H     H_    0.207657 0.658264 0.866429 0.428986
H10   H     H_    0.340697 0.373144 0.772561 0.380659
H11   H     H_    0.543405 0.352730 0.119017 0.233983
H12   H     H_    0.073768 0.343474 0.739703 0.197855
H13   H     H_    0.215492 0.399239 0.649887 0.197626
H14   H     H_    0.234012 0.592688 0.338725 0.193757
H15   H     H_    0.931208 0.662834 0.261457 0.238690
H16   H     H_    0.724042 0.093361 0.477633 0.198030
H17   H     H_    0.724518 0.923079 0.493289 0.203176
H18   H     H_    0.359399 0.518666 0.119701 0.214420
N1    N     N_R   0.500070 0.750030 0.500050 -0.163464
N2    N     N_R   0.500070 0.249970 0.500050 -0.148700
O1    O     O_R   0.367860 0.580280 0.500020 -0.567327
O2    O     O_2   0.193973 0.722925 0.215125 -0.227280
O3    O     O_3   0.134030 0.583613 0.089074 -0.460176
O4    O     O_2   0.308186 0.540261 0.749195 -0.362647
O5    O     O_2   0.255493 0.475759 0.953633 -0.241134
O6    O     O_3   0.261979 0.657322 0.915604 -0.433517
O7    O     O_2   0.471250 0.247247 0.788051 -0.253406
O8    O     O_2   0.409048 0.226205 0.998171 -0.210074
O9    O     O_3   0.326278 0.333629 0.848020 -0.429078
O10   O     O_R   0.367860 0.419720 0.500020 -0.616641
O11   O     O_R   0.500000 0.580270 0.314790 -0.594044
O12   O     O_R   0.500000 0.419730 0.314790 -0.617982
O13   O     O_R   0.632160 0.580270 0.499960 -0.568392
O14   O     O_R   0.632160 0.419730 0.499960 -0.558828
O15   O     O_R   0.500030 0.580270 0.685200 -0.586382
O16   O     O_R   0.500030 0.419730 0.685200 -0.579580
O17   O     O_2   0.049051 0.737036 0.122892 -0.192002
S1    S     S_3+6 0.109774 0.669884 0.186244 0.099289
S2    S     S_3+6 0.308982 0.553856 0.885732 0.049728
S3    S     S_3+6 0.425312 0.297137 0.892282 0.111323
Zn1   Zn    Zn3+2 0.500020 0.607200 0.499990 1.087409
Zn2   Zn    Zn3+2 0.500020 0.392800 0.499990 1.078137

loop_
_geom_bond_atom_site_label_1
_geom_bond_atom_site_label_2
_ccdc_geom_bond_type
Br9   C35   S    
C6    C11   A    
O10   Zn2   S    
C11   H14   S    
C24   C27   A    
C16   N2    A    
Br7   C26   S    
C25   C26   A    
C29   O15   A    
C12   H5    S    
Br4   C15   S    
C4    C36   S    
C35   C36   S    
C30   C36   S    
C30   H18   S    
C29   O16   A    
C20   C21   A    
C2    H12   S    
C5    C6    A    
O11   Zn1   S    
C27   H16   S    
Br6   C25   S    
C32   S2    S    
C5    C40   A    
C39   C40   A    
Br8   C35   S    
O14   Zn2   S    
O3    S1    S    
O9    S3    S    
O13   Zn1   S    
C9    C10   A    
C6    C7    A    
C31   C36   S    
C15   N1    A    
C4    O12   A    
C19   O13   A    
N2    Zn2   S    
C30   C32   S    
C12   C37   S    
C28   H17   S    
C17   C20   A    
C31   C33   S    
Br3   C14   S    
C4    O11   A    
C2    C42   A    
C8    C41   A    
C40   C41   A    
C1    O10   A    
O16   Zn2   S    
C1    C10   S    
C3    C9    A    
C13   N1    A    
C1    O1    A    
Br2   C38   S    
C8    H15   S    
C14   C24   A    
O8    S3    D    
C27   C28   A    
C42   H7    S    
C32   H3    S    
H9    O6    S    
C39   C42   A    
C7    C8    A    
C19   O14   A    
C21   C24   A    
O12   Zn2   S    
C10   C11   A    
O7    S3    D    
C38   C39   A    
H10   O9    S    
Br1   C13   S    
C22   C28   A    
C3    C5    A    
C19   C34   S    
C15   C17   A    
C31   H11   S    
C14   N2    A    
C29   C37   S    
O5    S2    D    
C23   C34   A    
C18   C21   A    
C7    S1    S    
C12   H6    S    
N1    Zn1   S    
O6    S2    S    
C23   C41   A    
H8    O3    S    
C16   C18   A    
C33   S3    S    
C17   C25   A    
C13   C22   A    
O2    S1    D    
C20   C22   A    
O1    Zn1   S    
O15   Zn1   S    
C9    H13   S    
Br10  C23   S    
C32   C37   S    
C31   H2    S    
O4    S2    D    
Br5   C16   S    
C33   H4    S    
C12   C35   S    
C2    C3    A    
C18   C26   A    
C30   H1    S    
O17   S1    D    
C33   C37   S    
C34   C38   A    
