data_mof_unit_32104.cif
_audit_creation_date              2012-12-10T17:18:57-0500
_audit_creation_method            fapswitch 2.2
_symmetry_space_group_name_H-M    P1
_symmetry_Int_Tables_number       1
_space_group_crystal_system       triclinic
_cell_length_a                    10.232706
_cell_length_b                    10.833509
_cell_length_c                    13.765319
_cell_angle_alpha                 92.306339
_cell_angle_beta                  101.246498
_cell_angle_gamma                 93.711306
_cell_volume                      1491.34779923

loop_
_atom_site_label
_atom_site_type_symbol
_atom_type_description
_atom_site_fract_x
_atom_site_fract_y
_atom_site_fract_z
_atom_type_partial_charge
C1    C     C_R   0.045587 0.730863 0.485950 0.941150
C2    C     C_R   0.947702 0.267707 0.502086 0.931350
C3    C     C_R   0.459319 0.550980 0.121000 -0.250546
C4    C     C_R   0.535146 0.443192 0.881149 -0.233229
C5    C     C_R   0.321109 0.555971 0.093781 -0.225559
C6    C     C_R   0.658910 0.395973 0.913239 -0.227181
C7    C     C_2   0.059384 0.861147 0.469226 -0.472210
C8    C     C_2   0.917616 0.135372 0.491521 -0.416558
C9    C     C_2   0.954119 0.930123 0.437372 -0.037854
C10   C     C_2   0.983451 0.061911 0.438898 -0.103123
C11   C     C_2   0.433002 0.478320 0.525724 -0.090033
C12   C     C_2   0.574691 0.474941 0.503563 -0.071253
C13   C     C_R   0.095244 0.518136 0.685267 0.858898
C14   C     C_R   0.905795 0.485970 0.314584 0.874509
C15   C     C_R   0.148106 0.539364 0.791529 -0.107178
C16   C     C_R   0.855529 0.472745 0.207836 -0.064638
C17   C     C_R   0.121111 0.541990 0.962968 -0.206387
C18   C     C_R   0.846174 0.367105 0.047730 -0.216999
C19   C     C_R   0.065177 0.527368 0.861682 -0.236745
C20   C     C_R   0.906043 0.387195 0.147905 -0.217417
C21   C     C_R   0.285406 0.567643 0.824456 0.095651
C22   C     C_R   0.750612 0.542034 0.165534 0.071235
C23   C     C_R   0.340671 0.540515 0.921457 0.088137
C24   C     C_R   0.670777 0.497607 0.075300 0.067519
C25   C     C_R   0.260285 0.547097 0.993597 0.147026
C26   C     C_R   0.726392 0.420586 0.011139 0.148609
C27   C     C_R   0.472565 0.507386 0.948661 0.077507
C28   C     C_R   0.536103 0.523829 0.048750 0.054828
H1    H     H_    0.262148 0.566501 0.150500 0.146267
H2    H     H_    0.700825 0.339342 0.862042 0.147288
H3    H     H_    0.991240 0.336748 0.178261 0.191928
H4    H     H_    0.958333 0.508361 0.838724 0.167118
H5    H     H_    0.056704 0.541505 0.016733 0.160905
H6    H     H_    0.888618 0.304720 0.000860 0.157590
H7    H     H_    0.503634 0.556976 0.199192 0.158554
H8    H     H_    0.483078 0.418334 0.805972 0.146898
H9    H     H_    0.840515 0.095971 0.527895 0.161989
H10   H     H_    0.160333 0.904730 0.488138 0.158534
H11   H     H_    0.589983 0.400473 0.452811 0.159373
H12   H     H_    0.424571 0.503738 0.600598 0.137189
N1    N     N_2   0.322180 0.446120 0.460900 -0.034815
N2    N     N_2   0.677820 0.553880 0.539100 -0.044045
O1    O     O_R   0.935190 0.693030 0.507870 -0.559786
O2    O     O_R   0.064810 0.306970 0.492130 -0.592732
O3    O     O_R   0.142080 0.658430 0.482770 -0.627599
O4    O     O_R   0.857920 0.341570 0.517230 -0.607695
O5    O     O_R   0.969700 0.527180 0.651960 -0.609159
O6    O     O_R   0.030300 0.472820 0.348040 -0.634198
O7    O     O_R   0.176600 0.492580 0.626860 -0.627049
O8    O     O_R   0.823400 0.507420 0.373140 -0.610229
Zn1   Zn    Zn3+2 0.861850 0.523100 0.516760 0.973284
Zn2   Zn    Zn3+2 0.138150 0.476900 0.483240 0.948031
C29   C     C_3   0.747095 0.676042 0.201048 -0.440092
C30   C     C_3   0.876442 0.750513 0.192103 -0.803937
H13   H     H_    0.961126 0.725906 0.249815 0.234538
H14   H     H_    0.900190 0.732068 0.117690 0.255949
H15   H     H_    0.865526 0.851164 0.201014 0.294629
H16   H     H_    0.663861 0.721319 0.155303 0.224554
H17   H     H_    0.731247 0.681064 0.278067 0.250439
C31   C     C_3   0.364670 0.652375 0.767352 -0.417030
C32   C     C_3   0.418971 0.773040 0.827297 -0.861387
H18   H     H_    0.336293 0.820266 0.850992 0.269258
H19   H     H_    0.494686 0.754983 0.893716 0.265991
H20   H     H_    0.467500 0.835664 0.780721 0.246695
H21   H     H_    0.448275 0.605472 0.747305 0.208419
H22   H     H_    0.302252 0.680086 0.697576 0.225001
C33   C     C_2   0.081012 0.105703 0.378882 0.998894
O9    O     O_2   0.043970 0.112842 0.289614 -0.612162
O10   O     O_R   0.215993 0.131112 0.422049 -0.792928
H23   H     H_    0.235180 0.122166 0.496383 0.305385
C34   C     C_2   0.810086 0.888972 0.397684 0.932129
O11   O     O_2   0.749314 0.811082 0.436565 -0.657167
O12   O     O_R   0.739727 0.952207 0.319768 -0.797589
H24   H     H_    0.642272 0.920535 0.299973 0.339063
C35   C     C_3   0.663436 0.655564 0.607873 -0.142608
C36   C     C_3   0.703500 0.620453 0.715071 -0.924006
H25   H     H_    0.660645 0.526082 0.724545 0.253533
H26   H     H_    0.813329 0.624313 0.737409 0.278956
H27   H     H_    0.668496 0.688384 0.764927 0.248677
H28   H     H_    0.730642 0.736182 0.597874 0.239224
H29   H     H_    0.560652 0.687430 0.593539 0.154684
C37   C     C_3   0.330261 0.459555 0.356777 -0.216173
C38   C     C_3   0.313441 0.334863 0.299757 -0.761219
H30   H     H_    0.383152 0.270336 0.338854 0.280310
H31   H     H_    0.208900 0.296590 0.291010 0.301467
H32   H     H_    0.335191 0.346367 0.224631 0.222092
H33   H     H_    0.251574 0.518446 0.322295 0.202272
H34   H     H_    0.424059 0.509875 0.346178 0.146987

loop_
_geom_bond_atom_site_label_1
_geom_bond_atom_site_label_2
_ccdc_geom_bond_type
C4    H8    S    
O12   H24   S    
C18   C26   A    
C36   H27   S    
O1    Zn1   S    
C29   H17   S    
C14   O8    A    
C29   C30   S    
C2    O4    A    
C15   C19   A    
N2    C35   S    
C22   C24   A    
C3    C28   A    
C24   C26   A    
C37   H33   S    
C32   H19   S    
C12   N2    D    
C1    O1    A    
C2    O2    A    
C23   C27   A    
C9    C10   S    
N1    Zn2   S    
N2    Zn1   S    
O2    Zn2   S    
C31   H22   S    
C32   H18   S    
C17   H5    S    
C19   H4    S    
C22   C29   S    
C5    H1    S    
C30   H14   S    
C33   O9    D    
C9    C34   S    
C36   H25   S    
C21   C31   S    
C4    C6    A    
C34   O12   S    
C35   H29   S    
C14   O6    A    
O3    Zn2   S    
C10   C33   S    
O4    Zn1   S    
C31   C32   S    
C33   O10   S    
C32   H20   S    
C35   C36   S    
C38   H30   S    
C3    H7    S    
C16   C20   A    
O7    Zn2   S    
O8    Zn1   S    
C11   H12   S    
C18   H6    S    
C13   O7    A    
C5    C25   A    
C6    H2    S    
C31   H21   S    
C13   C15   S    
C14   C16   S    
C8    H9    S    
C4    C27   A    
C13   O5    A    
C35   H28   S    
C7    C9    D    
C30   H13   S    
C16   C22   A    
C38   H31   S    
C1    C7    S    
C2    C8    S    
C24   C28   A    
C36   H26   S    
C3    C5    A    
O5    Zn1   S    
C29   H16   S    
C17   C25   A    
C12   H11   S    
C21   C23   A    
C34   O11   D    
C1    O3    A    
C6    C26   A    
C15   C21   A    
C37   H34   S    
N1    C37   S    
C17   C19   A    
C7    H10   S    
C11   N1    D    
C18   C20   A    
C23   C25   A    
O10   H23   S    
O6    Zn2   S    
C38   H32   S    
C8    C10   D    
C37   C38   S    
C27   C28   A    
C20   H3    S    
C11   C12   S    
C30   H15   S    
