data_mof_unit_63526.cif
_audit_creation_date              2013-03-05T17:02:04-0500
_audit_creation_method            fapswitch 2.2
_symmetry_space_group_name_H-M    P1
_symmetry_Int_Tables_number       1
_space_group_crystal_system       triclinic
_cell_length_a                    10.540235
_cell_length_b                    16.250921
_cell_length_c                    16.854841
_cell_angle_alpha                 84.144824
_cell_angle_beta                  93.786141
_cell_angle_gamma                 90.313147
_cell_volume                      2865.70845211

loop_
_atom_site_label
_atom_site_type_symbol
_atom_site_description
_atom_site_fract_x
_atom_site_fract_y
_atom_site_fract_z
_atom_type_partial_charge
O1    O     O_R   0.494440 0.422540 0.612660 -0.556758
O2    O     O_R   0.505560 0.577460 0.387340 -0.567541
O3    O     O_R   0.504420 0.561850 0.618900 -0.577995
O4    O     O_R   0.495580 0.438150 0.381100 -0.573324
C1    C     C_R   0.491938 0.486630 0.652897 0.954040
C2    C     C_R   0.507795 0.513092 0.347045 0.949687
O5    O     O_R   0.681060 0.430360 0.496900 -0.563190
O6    O     O_R   0.318940 0.569640 0.503100 -0.555613
O7    O     O_R   0.691040 0.569670 0.503140 -0.589706
O8    O     O_R   0.308960 0.430330 0.496860 -0.592747
C3    C     C_R   0.742304 0.498744 0.499368 0.984322
C4    C     C_R   0.257698 0.501467 0.499814 0.984968
Zn1   Zn    Zn3+2 0.493340 0.406980 0.495830 1.131433
Zn2   Zn    Zn3+2 0.506660 0.593020 0.504170 1.127982
C5    C     C_3   0.962381 0.423420 0.488078 0.358004
C6    C     C_3   0.037902 0.577748 0.509593 0.354895
C7    C     C_3   0.049349 0.447703 0.558582 0.228453
C8    C     C_3   0.950608 0.553363 0.439193 0.235675
C9    C     C_3   0.123034 0.504045 0.499760 -0.265748
C10   C     C_3   0.877011 0.496880 0.498103 -0.265845
C11   C     C_3   0.037577 0.479782 0.428638 -0.275236
C12   C     C_3   0.962656 0.521460 0.569168 -0.280285
H1    H     H_    0.071109 0.463832 0.371027 0.242932
H2    H     H_    0.929407 0.537399 0.626848 0.243854
C13   C     C_R   0.471789 0.474676 0.739128 -0.308706
C14   C     C_R   0.532535 0.523708 0.261349 -0.310654
C15   C     C_R   0.428922 0.542469 0.776740 0.282645
C16   C     C_R   0.586437 0.457357 0.226419 0.284649
C17   C     C_R   0.439321 0.538879 0.859411 -0.213461
C18   C     C_R   0.589299 0.461268 0.143918 -0.213803
C19   C     C_R   0.484185 0.467233 0.905769 0.153292
C20   C     C_R   0.545666 0.531786 0.095489 0.151899
C21   C     C_R   0.506422 0.395641 0.869838 0.218623
C22   C     C_R   0.508770 0.601555 0.129630 0.226033
C23   C     C_R   0.501046 0.398501 0.786219 0.196512
C24   C     C_R   0.499836 0.597691 0.212368 0.190538
N1    N     N_2   0.502036 0.464921 0.989443 -0.097047
N2    N     N_2   0.533875 0.533150 0.011830 -0.099012
H3    H     H_    0.626887 0.409429 0.117178 0.230279
H4    H     H_    0.409656 0.591688 0.888023 0.232478
N3    N     N_R   0.515540 0.716920 0.509720 -0.205826
N4    N     N_R   0.484460 0.283080 0.490280 -0.206599
C25   C     C_R   0.438819 0.771906 0.459112 0.353252
C26   C     C_R   0.570389 0.230187 0.536028 0.367978
C27   C     C_R   0.441317 0.856886 0.468117 -0.291772
C28   C     C_R   0.558450 0.144061 0.535981 -0.283996
C29   C     C_R   0.522838 0.889670 0.525092 0.171499
C30   C     C_R   0.464022 0.109094 0.488373 0.168735
C31   C     C_R   0.602027 0.834254 0.574703 0.162759
C32   C     C_R   0.380831 0.163090 0.439938 0.161175
C33   C     C_R   0.596850 0.748071 0.566620 0.326966
C34   C     C_R   0.392543 0.249989 0.441393 0.324806
N5    N     N_2   0.530587 0.977318 0.531420 -0.079088
N6    N     N_2   0.454071 0.021179 0.484991 -0.081482
H5    H     H_    0.624960 0.104073 0.573170 0.246487
H6    H     H_    0.379187 0.898173 0.429111 0.246902
Br1   Br    Br    0.122802 0.372946 0.646425 -0.264270
Br2   Br    Br    0.875554 0.627641 0.351461 -0.281342
Br3   Br    Br    0.718976 0.876476 0.653090 -0.196528
Br4   Br    Br    0.252070 0.118103 0.370583 -0.199151
N7    N     N_R   0.680554 0.693884 0.617210 0.246410
O9    O     O_R   0.656203 0.676080 0.691654 -0.310044
O10   O     O_R   0.796119 0.684823 0.596960 -0.330014
N8    N     N_R   0.309785 0.303329 0.389333 0.246189
O11   O     O_R   0.339447 0.323294 0.316188 -0.312480
O12   O     O_R   0.192336 0.310752 0.406487 -0.323061
Br5   Br    Br    0.915225 0.311655 0.468687 -0.164647
Br6   Br    Br    0.089516 0.690060 0.525039 -0.196659
N9    N     N_R   0.643942 0.387351 0.273831 0.251524
O13   O     O_R   0.729221 0.399198 0.330814 -0.353382
O14   O     O_R   0.629546 0.313511 0.251122 -0.285525
N10   N     N_R   0.368788 0.613518 0.732181 0.252495
O15   O     O_R   0.280007 0.603332 0.676676 -0.345783
O16   O     O_R   0.385974 0.686728 0.755937 -0.284361
Br7   Br    Br    0.543464 0.294137 0.936863 -0.215233
Br8   Br    Br    0.464587 0.701238 0.061544 -0.212855
N11   N     N_R   0.522488 0.323885 0.750490 0.265693
O17   O     O_R   0.428719 0.290174 0.711392 -0.293147
O18   O     O_R   0.625911 0.281253 0.770452 -0.244253
N12   N     N_R   0.454089 0.668469 0.245072 0.262360
O19   O     O_R   0.535904 0.718808 0.275338 -0.282943
O20   O     O_R   0.338648 0.693936 0.224470 -0.236286
N13   N     N_R   0.678490 0.258972 0.582583 0.257159
O21   O     O_R   0.674948 0.326846 0.616083 -0.303802
O22   O     O_R   0.775211 0.210035 0.603013 -0.284456
N14   N     N_R   0.356738 0.747692 0.393425 0.266138
O23   O     O_R   0.313411 0.673469 0.391408 -0.305554
O24   O     O_R   0.313036 0.803507 0.337451 -0.260510

loop_
_geom_bond_atom_site_label_1
_geom_bond_atom_site_label_2
_geom_bond_distance
_ccdc_geom_bond_type
C15   C17   1.385758 A    
C8    C11   1.542299 S    
C16   N9    1.434694 S    
C33   N7    1.427175 S    
C26   N13   1.443529 S    
C29   C31   1.403319 A    
N5    N6    1.256980 D    
O5    C3    1.285096 A    
O1    C1    1.300837 A    
C9    C11   1.534193 S    
C21   C23   1.402804 A    
N14   O24   1.302912 A    
C4    C9    1.420171 S    
N9    O14   1.301349 A    
C27   C29   1.390947 A    
O4    Zn1   1.950026 S    
N7    O10   1.299623 A    
C20   C22   1.391169 A    
C21   Br7   1.928267 S    
C27   H6    1.081294 S    
C31   C33   1.421342 A    
C28   H5    1.081886 S    
C32   C34   1.419465 A    
C19   C21   1.393114 A    
C6    Br6   1.939693 S    
C20   N2    1.405244 S    
C22   C24   1.398913 A    
N7    O9    1.300620 A    
C29   N5    1.440641 S    
C30   C32   1.404632 A    
N3    C25   1.393295 A    
O2    C2    1.305119 A    
N4    C26   1.390954 A    
Zn1   N4    2.026539 S    
C26   C28   1.404666 A    
N11   O18   1.301450 A    
C5    C10   1.528516 S    
C28   C30   1.392406 A    
C3    C10   1.421950 S    
N10   O16   1.301481 A    
C34   N8    1.426259 S    
N14   O23   1.290319 A    
N12   O19   1.300934 A    
O6    Zn2   2.011978 S    
N11   O17   1.301136 A    
C23   N11   1.433188 S    
C19   N1    1.407134 S    
N8    O12   1.298709 A    
C30   N6    1.438613 S    
O7    Zn2   1.983680 S    
N1    N2    1.244583 D    
C25   C27   1.404542 A    
N13   O21   1.291186 A    
C5    C11   1.542889 S    
O6    C4    1.283406 A    
C5    Br5   1.934562 S    
O7    C3    1.284837 A    
O3    Zn2   1.950027 S    
O8    C4    1.285677 A    
C13   C23   1.424381 A    
Zn2   N3    2.026540 S    
C1    C13   1.475786 S    
N12   O20   1.301075 A    
N13   O22   1.302673 A    
C10   C12   1.536238 S    
C11   H1    1.110258 S    
C24   N12   1.424720 S    
C12   H2    1.110161 S    
O4    C2    1.301801 A    
O1    Zn1   2.010019 S    
C14   C24   1.417855 A    
C5    C7    1.534927 S    
N4    C34   1.373328 A    
C6    C12   1.543979 S    
C25   N14   1.444905 S    
N10   O15   1.300989 A    
O3    C1    1.305833 A    
O8    Zn1   1.983680 S    
C13   C15   1.416162 A    
C14   C16   1.418601 A    
C7    C12   1.542931 S    
C31   Br3   1.922623 S    
C32   Br4   1.922719 S    
N8    O11   1.300438 A    
C16   C18   1.387828 A    
C17   C19   1.400484 A    
C18   C20   1.398723 A    
C2    C14   1.477314 S    
C6    C9    1.529407 S    
C17   H4    1.083560 S    
C7    C9    1.527484 S    
C8    Br2   1.939389 S    
C18   H3    1.083722 S    
C8    C10   1.529106 S    
N9    O13   1.299718 A    
O2    Zn2   2.010019 S    
O5    Zn1   2.011981 S    
C6    C8    1.536026 S    
C7    Br1   1.938893 S    
N3    C33   1.377057 A    
C15   N10   1.437748 S    
C22   Br8   1.927799 S    
