data_mof_unit_33612.cif
_audit_creation_date              2012-12-10T16:42:34-0500
_audit_creation_method            fapswitch 2.2
_symmetry_space_group_name_H-M    P1
_symmetry_Int_Tables_number       1
_space_group_crystal_system       triclinic
_cell_length_a                    7.522351
_cell_length_b                    8.692913
_cell_length_c                    11.001488
_cell_angle_alpha                 88.489197
_cell_angle_beta                  72.605919
_cell_angle_gamma                 103.241538
_cell_volume                      664.758472979

loop_
_atom_site_label
_atom_site_type_symbol
_atom_type_description
_atom_site_fract_x
_atom_site_fract_y
_atom_site_fract_z
_atom_type_partial_charge
C1    C     C_R   0.451660 0.199657 0.504587 0.851907
C2    C     C_2   0.575352 0.968850 0.491146 -0.367230
C3    C     C_3   0.907381 0.235747 0.671586 -0.135978
C4    C     C_3   0.092617 0.764250 0.328408 -0.135983
C5    C     C_R   0.548340 0.800343 0.495413 0.851907
C6    C     C_R   0.423121 0.492229 0.742380 0.841346
C7    C     C_R   0.576879 0.507771 0.257620 0.841346
C8    C     C_2   0.380235 0.488192 0.879941 -0.356326
C9    C     C_2   0.619765 0.511808 0.120059 -0.356325
C10   C     C_2   0.521432 0.501787 0.931326 -0.155108
C11   C     C_2   0.478568 0.498213 0.068674 -0.155108
C12   C     C_2   0.424648 0.031150 0.508854 -0.367229
Cu1   Cu    Cu3+1 0.688910 0.517800 0.485820 1.015981
Cu2   Cu    Cu3+1 0.311090 0.482200 0.514180 1.015984
H1    H     H_    0.330222 0.484203 0.127963 0.209928
H2    H     H_    0.064837 0.829244 0.415218 0.135052
H3    H     H_    0.980013 0.759583 0.281893 0.165125
H4    H     H_    0.230251 0.833480 0.259437 0.124358
H5    H     H_    0.669778 0.515798 0.872037 0.209928
H6    H     H_    0.767836 0.525753 0.060335 0.151373
H7    H     H_    0.232164 0.474247 0.939665 0.151373
H8    H     H_    0.279470 0.958014 0.527573 0.165309
H9    H     H_    0.720530 0.041986 0.472428 0.165308
H10   H     H_    0.019973 0.240408 0.718110 0.165117
H11   H     H_    0.935177 0.170761 0.584771 0.135053
H12   H     H_    0.769740 0.166512 0.740546 0.124359
N1    N     N_2   0.027170 0.455360 0.535550 0.154922
N2    N     N_2   0.972830 0.544640 0.464450 0.154922
O1    O     O_R   0.622710 0.286400 0.490790 -0.556885
O2    O     O_3   0.112109 0.611320 0.355218 -0.485272
O3    O     O_R   0.377290 0.713600 0.509210 -0.556883
O4    O     O_R   0.303660 0.256330 0.514730 -0.627616
O5    O     O_R   0.696340 0.743670 0.485270 -0.627616
O6    O     O_R   0.600900 0.509520 0.671740 -0.537388
O7    O     O_R   0.399100 0.490480 0.328260 -0.537387
O8    O     O_R   0.281840 0.479450 0.695690 -0.593495
O9    O     O_R   0.718160 0.520550 0.304310 -0.593500
O10   O     O_3   0.887893 0.388680 0.644781 -0.485273

loop_
_geom_bond_atom_site_label_1
_geom_bond_atom_site_label_2
_ccdc_geom_bond_type
C4    H2    S    
Cu1   N2    S    
Cu1   O5    S    
Cu2   N1    S    
Cu2   O3    S    
C9    H6    S    
Cu1   O9    S    
C10   H5    S    
N1    N2    D    
C2    C12   D    
C1    O1    A    
C8    H7    S    
C7    O9    A    
C4    H4    S    
Cu1   O6    S    
Cu1   Cu2   S    
C9    C11   D    
C3    H10   S    
C1    C12   S    
C11   H1    S    
C4    H3    S    
Cu1   O1    S    
C6    O8    A    
C1    O4    A    
Cu2   O8    S    
C2    C5    S    
C10   C11   S    
N1    O10   S    
C12   H8    S    
C3    H11   S    
C8    C10   D    
C2    H9    S    
C7    C9    S    
C6    C8    S    
C7    O7    A    
Cu2   O7    S    
C3    H12   S    
C4    O2    S    
C6    O6    A    
C3    O10   S    
Cu2   O4    S    
N2    O2    S    
C5    O3    A    
C5    O5    A    
