data_mof_unit_46835.cif
_audit_creation_date              2012-12-10T20:25:38-0500
_audit_creation_method            fapswitch 2.2
_symmetry_space_group_name_H-M    P1
_symmetry_Int_Tables_number       1
_space_group_crystal_system       triclinic
_cell_length_a                    8.591328
_cell_length_b                    10.692671
_cell_length_c                    9.87077
_cell_angle_alpha                 89.907771
_cell_angle_beta                  98.30158
_cell_angle_gamma                 90.295766
_cell_volume                      897.257205326

loop_
_atom_site_label
_atom_site_type_symbol
_atom_type_description
_atom_site_fract_x
_atom_site_fract_y
_atom_site_fract_z
_atom_type_partial_charge
C1    C     C_R   0.497207 0.260036 0.499524 0.881052
C2    C     C_R   0.505836 0.935860 0.375851 -0.232533
C3    C     C_R   0.478353 0.871401 0.493947 -0.109418
C4    C     C_R   0.424424 0.935549 0.600680 0.076410
C5    C     C_3   0.469415 0.927592 0.752865 -0.108006
C6    C     C_3   0.471912 0.070367 0.752905 -0.497772
C7    C     C_R   0.422237 0.408440 0.061901 0.215134
C8    C     C_R   0.589712 0.582541 0.083100 -0.132284
C9    C     C_R   0.589695 0.582574 0.939125 -0.137898
C10   C     C_R   0.421211 0.409011 0.919225 0.218116
C11   C     C_3   0.248438 0.384297 0.894374 -0.517953
C12   C     C_R   0.201263 0.500450 0.464242 0.968979
C13   C     C_3   0.250870 0.380648 0.048180 -0.516366
C14   C     C_R   0.497070 0.739921 0.499330 0.869783
C15   C     C_R   0.798582 0.501520 0.535482 0.972653
C16   C     C_2   0.036225 0.499640 0.444545 -0.389826
C17   C     C_2   0.963248 0.506216 0.554005 -0.391336
C18   C     C_R   0.425648 0.063336 0.601114 0.091096
C19   C     C_R   0.478888 0.128346 0.494232 -0.087646
C20   C     C_R   0.505158 0.064561 0.375654 -0.227215
H1    H     H_    0.975197 0.491867 0.340320 0.178665
H2    H     H_    0.659326 0.651111 0.893500 0.139623
H3    H     H_    0.182085 0.465473 0.846729 0.210622
H4    H     H_    0.218449 0.292880 0.843772 0.197380
H5    H     H_    0.182563 0.457525 0.086837 0.219614
H6    H     H_    0.227230 0.285991 0.087511 0.200487
H7    H     H_    0.023840 0.515901 0.657477 0.167802
H8    H     H_    0.536674 0.113027 0.286925 0.167813
H9    H     H_    0.539050 0.888001 0.287781 0.169244
H10   H     H_    0.587279 0.885046 0.783298 0.160481
H11   H     H_    0.378954 0.114181 0.804063 0.195328
H12   H     H_    0.591750 0.110288 0.782507 0.192636
H13   H     H_    0.659317 0.651081 0.146017 0.140719
N1    N     N_R   0.498950 0.499140 0.142680 -0.106200
N2    N     N_R   0.498950 0.499180 0.857030 -0.109418
O1    O     O_R   0.500020 0.316790 0.614690 -0.616224
O2    O     O_R   0.500000 0.316760 0.385350 -0.626330
O3    O     O_R   0.271760 0.500010 0.587850 -0.617145
O4    O     O_R   0.271740 0.499970 0.358500 -0.627505
O5    O     O_R   0.500000 0.683240 0.614650 -0.637563
O6    O     O_R   0.499980 0.683210 0.385310 -0.626570
O7    O     O_R   0.728260 0.500030 0.641500 -0.625507
O8    O     O_R   0.728240 0.499990 0.412150 -0.614335
Zn1   Zn    Zn3+2 0.500010 0.500020 0.653130 0.929663
Zn2   Zn    Zn3+2 0.499990 0.499980 0.346870 0.932898
C21   C     C_3   0.337744 0.868412 0.822607 -0.354201
C22   C     C_3   0.374341 0.877053 0.978998 -0.363153
C23   C     C_3   0.253670 0.803453 0.046844 -0.860446
H14   H     H_    0.133724 0.840899 0.014266 0.248518
H15   H     H_    0.255885 0.702958 0.018763 0.262997
H16   H     H_    0.281431 0.811439 0.159802 0.263690
H17   H     H_    0.493342 0.839071 0.014502 0.214052
H18   H     H_    0.372795 0.976480 0.011443 0.222250
H19   H     H_    0.223249 0.914662 0.787217 0.197472
H20   H     H_    0.325821 0.768347 0.792365 0.227676

loop_
_geom_bond_atom_site_label_1
_geom_bond_atom_site_label_2
_ccdc_geom_bond_type
C21   H20   S    
C8    C9    A    
C7    C10   A    
C6    H12   S    
O3    Zn1   S    
C16   H1    S    
O2    Zn2   S    
C11   C13   S    
C5    C21   S    
C19   C20   A    
C1    O2    A    
O4    Zn2   S    
C4    C18   A    
C21   H19   S    
C12   O4    A    
C23   H15   S    
C2    C3    A    
C15   O8    A    
N1    Zn2   S    
C8    N1    A    
N2    Zn1   S    
O8    Zn2   S    
C13   H5    S    
C22   H17   S    
C3    C14   S    
O7    Zn1   S    
C14   O6    A    
C22   H18   S    
C11   H3    S    
C23   H14   S    
C6    H11   S    
C8    H13   S    
C2    H9    S    
C12   O3    A    
C5    C6    S    
C6    C18   S    
C7    N1    A    
C13   H6    S    
O1    Zn1   S    
C1    C19   S    
C10   C11   S    
C14   O5    A    
C3    C4    A    
C10   N2    A    
C16   C17   D    
C12   C16   S    
C11   H4    S    
O5    Zn1   S    
C1    O1    A    
C15   C17   S    
C9    H2    S    
C5    H10   S    
C9    N2    A    
O6    Zn2   S    
C21   C22   S    
C18   C19   A    
C7    C13   S    
C20   H8    S    
C2    C20   A    
C23   H16   S    
C22   C23   S    
C15   O7    A    
C4    C5    S    
C17   H7    S    
