data_mof_unit_51349.cif
_audit_creation_date              2013-03-05T15:49:33-0500
_audit_creation_method            fapswitch 2.2
_symmetry_space_group_name_H-M    P1
_symmetry_Int_Tables_number       1
_space_group_crystal_system       triclinic
_cell_length_a                    25.123784
_cell_length_b                    7.231834
_cell_length_c                    21.919118
_cell_angle_alpha                 90.000722
_cell_angle_beta                  110.244618
_cell_angle_gamma                 90.000757
_cell_volume                      3736.48325273

loop_
_atom_site_label
_atom_site_type_symbol
_atom_site_description
_atom_site_fract_x
_atom_site_fract_y
_atom_site_fract_z
_atom_type_partial_charge
O1    O     O_R   0.554350 0.505270 0.581390 -0.599200
O2    O     O_R   0.445650 0.005270 0.418610 -0.599160
O3    O     O_R   0.553380 0.177580 0.454800 -0.564998
O4    O     O_R   0.446620 0.677580 0.545200 -0.564909
C1    C     C_R   0.566494 0.344619 0.439073 1.018526
C2    C     C_R   0.433503 0.844620 0.560925 1.018266
O5    O     O_R   0.560970 0.175640 0.583140 -0.563769
O6    O     O_R   0.439030 0.675640 0.416860 -0.563761
O7    O     O_R   0.453290 0.004120 0.547860 -0.538847
O8    O     O_R   0.546710 0.504120 0.452140 -0.538944
C3    C     C_R   0.576077 0.343834 0.607577 0.927586
C4    C     C_R   0.423922 0.843832 0.392424 0.927504
O9    O     O_3   0.464660 0.338800 0.488280 -0.264991
O10   O     O_3   0.535340 0.838800 0.511720 -0.265118
V1    V     V_3+5 0.506560 0.064420 0.502170 1.290633
V2    V     V_3+5 0.493440 0.564420 0.497830 1.290672
C5    C     C_R   0.148850 0.997544 0.288357 -0.049498
C6    C     C_R   0.851134 0.497871 0.711659 -0.049495
H1    H     H_    0.063575 0.024132 0.221822 0.114911
H2    H     H_    0.936410 0.524431 0.778193 0.114994
H3    H     H_    0.136469 0.034404 0.329465 0.177082
H4    H     H_    0.863506 0.534892 0.670561 0.177092
C7    C     C_R   0.120761 0.943636 0.172536 -0.087353
C8    C     C_R   0.879239 0.443652 0.827463 -0.087390
C9    C     C_R   0.396022 0.802640 0.274140 -0.149606
C10   C     C_R   0.603988 0.302422 0.725851 -0.149683
C11   C     C_R   0.356341 0.795089 0.211581 -0.103218
C12   C     C_R   0.643674 0.294768 0.788405 -0.103237
C13   C     C_R   0.299249 0.831163 0.200362 -0.138702
C14   C     C_R   0.700762 0.330929 0.799628 -0.138694
C15   C     C_R   0.280102 0.877106 0.252041 0.095348
C16   C     C_R   0.719899 0.377075 0.747959 0.095335
C17   C     C_R   0.321432 0.887568 0.316303 -0.006465
C18   C     C_R   0.678562 0.387665 0.683705 -0.006463
C19   C     C_R   0.221415 0.912379 0.242066 0.023292
C20   C     C_R   0.778582 0.412422 0.757937 0.023297
C21   C     C_R   0.205815 0.959433 0.296649 -0.089218
C22   C     C_R   0.794172 0.459684 0.703365 -0.089236
C23   C     C_R   0.247136 0.969317 0.359001 0.770432
C24   C     C_R   0.752844 0.469708 0.641020 0.770466
C25   C     C_R   0.303839 0.933851 0.368553 -0.306570
C26   C     C_R   0.696144 0.434169 0.631466 -0.306421
C27   C     C_R   0.177489 0.903734 0.179932 -0.171852
C28   C     C_R   0.822515 0.403660 0.820063 -0.171871
C29   C     C_R   0.106990 0.991144 0.226962 -0.185787
C30   C     C_R   0.892999 0.491359 0.773049 -0.185755
C31   C     C_R   0.379578 0.849052 0.326938 -0.118634
C32   C     C_R   0.620421 0.349041 0.673064 -0.118625
H5    H     H_    0.185900 0.869803 0.136271 0.089442
H6    H     H_    0.814111 0.369587 0.863717 0.089456
H7    H     H_    0.440002 0.771324 0.281509 0.157456
H8    H     H_    0.560012 0.271012 0.718477 0.157271
H9    H     H_    0.271210 0.821549 0.150599 0.106509
H10   H     H_    0.728806 0.321213 0.849386 0.106496
H11   H     H_    0.369914 0.759447 0.171263 0.123545
H12   H     H_    0.630109 0.258965 0.828715 0.123509
H13   H     H_    0.334048 0.943477 0.417611 0.170535
H14   H     H_    0.665930 0.443913 0.582415 0.170599
C33   C     C_R   0.115290 0.767202 0.875040 -0.158161
C34   C     C_R   0.885161 0.267503 0.125505 -0.157969
H15   H     H_    0.095584 0.640919 0.883227 0.134122
H16   H     H_    0.905210 0.141484 0.117734 0.134111
C35   C     C_R   0.151125 0.757423 0.838402 -0.141650
C36   C     C_R   0.849337 0.257734 0.162157 -0.141718
H17   H     H_    0.158018 0.624092 0.819894 0.118951
H18   H     H_    0.842782 0.124652 0.181082 0.119185
C37   C     C_R   0.177769 0.916986 0.826032 0.129295
C38   C     C_R   0.822264 0.416979 0.173996 0.129199
C39   C     C_R   0.167584 0.086808 0.851428 -0.138181
C40   C     C_R   0.832016 0.586481 0.148071 -0.138216
H19   H     H_    0.187215 0.212737 0.842812 0.118548
H20   H     H_    0.812046 0.712161 0.156277 0.118636
C41   C     C_R   0.131433 0.096880 0.887812 -0.162310
C42   C     C_R   0.868171 0.596567 0.111692 -0.162642
H21   H     H_    0.124498 0.230283 0.906231 0.132596
H22   H     H_    0.874767 0.729716 0.092848 0.132750
C43   C     C_R   0.104728 0.937129 0.900175 -0.120841
C44   C     C_R   0.895293 0.437124 0.099845 -0.120779
N1    N     N_R   0.247319 0.053663 0.781537 -0.077897
N2    N     N_R   0.752065 0.552706 0.217688 -0.078024
N3    N     N_R   0.281126 0.043435 0.746244 -0.072562
N4    N     N_R   0.718254 0.542468 0.252976 -0.072908
C45   C     C_R   0.284648 0.885291 0.714261 0.199204
C46   C     C_R   0.715370 0.385273 0.285751 0.199298
N5    N     N_R   0.252913 0.737719 0.719340 -0.071135
N6    N     N_R   0.747755 0.238660 0.281468 -0.070995
N7    N     N_R   0.219285 0.747719 0.754825 -0.074765
N8    N     N_R   0.781392 0.248661 0.245993 -0.074603
C47   C     C_R   0.215644 0.905951 0.786681 0.092459
C48   C     C_R   0.784389 0.405946 0.213346 0.092467
C49   C     C_R   0.317715 0.725819 0.631592 -0.216785
C50   C     C_R   0.682385 0.226062 0.368546 -0.216658
H23   H     H_    0.286137 0.619518 0.626716 0.179894
H24   H     H_    0.714028 0.119927 0.373519 0.179901
C51   C     C_R   0.351840 0.716032 0.592460 0.339757
C52   C     C_R   0.648236 0.216251 0.407650 0.339588
C53   C     C_R   0.393448 0.854603 0.597959 -0.507326
C54   C     C_R   0.606545 0.354596 0.402038 -0.506995
C55   C     C_R   0.397681 0.002972 0.641388 0.801591
C56   C     C_R   0.602220 0.502718 0.358494 0.801147
C57   C     C_R   0.362249 0.012827 0.678445 -0.260864
C58   C     C_R   0.637643 0.512542 0.321424 -0.261037
H25   H     H_    0.366948 0.128743 0.711178 0.164020
H26   H     H_    0.632866 0.628273 0.288602 0.164044
C59   C     C_R   0.322148 0.874179 0.674458 -0.027315
C60   C     C_R   0.677858 0.374162 0.325549 -0.027178
O11   O     O_R   0.953220 0.285790 0.047790 -0.590846
O12   O     O_R   0.046780 0.785790 0.952210 -0.590862
O13   O     O_R   0.939020 0.617570 0.916840 -0.580963
O14   O     O_R   0.060980 0.117570 0.083160 -0.580974
C61   C     C_R   0.923979 0.448829 0.892415 0.894768
C62   C     C_R   0.076022 0.948830 0.107585 0.894748
O15   O     O_R   0.946600 0.615450 0.045180 -0.593342
O16   O     O_R   0.053400 0.115450 0.954820 -0.593382
O17   O     O_R   0.054370 0.786770 0.081410 -0.578032
O18   O     O_R   0.945630 0.286770 0.918590 -0.578039
C63   C     C_R   0.934284 0.446957 0.061686 0.902786
C64   C     C_R   0.065721 0.946956 0.938318 0.902828
O19   O     O_3   0.035300 0.454160 0.011680 -0.282009
O20   O     O_3   0.964700 0.954160 0.988320 -0.281962
V3    V     V_3+5 0.993450 0.728620 0.997830 1.156576
V4    V     V_3+5 0.006550 0.228620 0.002170 1.156556
N9    N     N_R   0.341648 0.569199 0.545636 0.264164
O21   O     O_R   0.334666 0.606644 0.485288 -0.387784
O22   O     O_R   0.329466 0.404045 0.560406 -0.351478
N10   N     N_R   0.658472 0.069594 0.454543 0.264070
O23   O     O_R   0.665375 0.107215 0.514858 -0.387997
O24   O     O_R   0.670732 0.904435 0.439864 -0.351505
F1    F     F_    0.437187 0.137740 0.649547 -0.695775
F2    F     F_    0.562628 0.637249 0.350232 -0.696055
F3    F     F_    0.232654 0.013904 0.411425 -0.664791
F4    F     F_    0.767316 0.514505 0.588608 -0.664735

loop_
_geom_bond_atom_site_label_1
_geom_bond_atom_site_label_2
_geom_bond_distance
_ccdc_geom_bond_type
C22   C24   1.403140 A    
C35   H17   1.083010 S    
N10   O23   1.301239 A    
C7    C29   1.395173 A    
C11   C13   1.393500 A    
C49   C59   1.404962 A    
O1    C3    1.331785 A    
C37   C47   1.491259 S    
O12   V3    1.973130 S    
O2    C4    1.331770 A    
C33   C43   1.409000 A    
C2    O7    1.325963 A    
C12   H12   1.082715 S    
N9    O21   1.301251 A    
C23   C25   1.390216 A    
O5    C3    1.330316 A    
C7    C62   1.477911 S    
C14   H10   1.076605 S    
C34   C44   1.408887 A    
O18   V4    1.983725 S    
O17   V3    1.983705 S    
C16   C20   1.436549 A    
C19   C21   1.423144 A    
C5    C29   1.392733 A    
O13   C61   1.333621 A    
C56   F2    1.357990 S    
N9    O22   1.301373 A    
C51   N9    1.436866 S    
C50   C52   1.408789 A    
C7    C27   1.407466 A    
C34   H16   1.082908 S    
C39   H19   1.082947 S    
N3    C45   1.360225 A    
C18   C26   1.403350 A    
C40   C42   1.402701 A    
C38   C48   1.491214 S    
C15   C17   1.433800 A    
C39   C41   1.402677 A    
C61   O18   1.335167 A    
C19   C27   1.427040 A    
C9    C31   1.397676 A    
C10   C32   1.397675 A    
C24   C26   1.390212 A    
C24   F4    1.358692 S    
C57   H25   1.082952 S    
C13   C15   1.414930 A    
C41   H21   1.082953 S    
C26   H14   1.082735 S    
C3    C32   1.481986 S    
C8    C61   1.477912 S    
C4    C31   1.481976 S    
C6    C30   1.392726 A    
C56   C58   1.399191 A    
C10   C12   1.389626 A    
C53   C55   1.413743 A    
N5    N7    1.333714 A    
C57   C59   1.402522 A    
C35   C37   1.406677 A    
C33   H15   1.082974 S    
C55   F1    1.357992 S    
C2    C53   1.497396 S    
O12   C64   1.333380 A    
C44   C63   1.493748 S    
N2    N4    1.334186 A    
C43   C64   1.493823 S    
N1    N3    1.334176 A    
C27   H5    1.077365 S    
O5    V1    1.996597 S    
C49   C51   1.408791 A    
C5    H3    1.083355 S    
H1    C29   1.083658 S    
C45   C59   1.491336 S    
C52   C54   1.422717 A    
C37   C39   1.407903 A    
C16   C18   1.433802 A    
O4    V2    1.994168 S    
C9    H7    1.083879 S    
C10   H8    1.083880 S    
C49   H23   1.083111 S    
C46   C60   1.491518 S    
O6    C4    1.330325 A    
C50   H24   1.083091 S    
C52   N10   1.436865 S    
O1    V2    1.984870 S    
C5    C21   1.406158 A    
C58   H26   1.082934 S    
O2    V1    1.984852 S    
O16   C64   1.337507 A    
C42   H22   1.082882 S    
O15   C63   1.337495 A    
C50   C60   1.405028 A    
C45   N5    1.359575 A    
N8    C48   1.359743 A    
N4    C46   1.360033 A    
N7    C47   1.359982 A    
C17   C31   1.424902 A    
C15   C19   1.436554 A    
C20   C28   1.427043 A    
O4    C2    1.328647 A    
C18   C32   1.424898 A    
C36   C38   1.406574 A    
O3    V1    1.994166 S    
O20   V3    1.766749 S    
O19   V4    1.766727 S    
C28   H6    1.077359 S    
N10   O24   1.301370 A    
C55   C57   1.399179 A    
C6    H4    1.083345 S    
C33   C35   1.400308 A    
C46   N6    1.359371 A    
O3    C1    1.328625 A    
C51   C53   1.422770 A    
C9    C11   1.389630 A    
C11   H11   1.082719 S    
C54   C56   1.413680 A    
C34   C36   1.400307 A    
C17   C25   1.403363 A    
C12   C14   1.393496 A    
C6    C22   1.406150 A    
C8    C30   1.395167 A    
C1    O8    1.325948 A    
C21   C23   1.403145 A    
O8    V2    1.977852 S    
O14   V4    1.996609 S    
C14   C16   1.414923 A    
O13   V3    1.996576 S    
C13   H9    1.076607 S    
C8    C28   1.407463 A    
C20   C22   1.423137 A    
C58   C60   1.402587 A    
N6    N8    1.333711 A    
N2    C48   1.359613 A    
O14   C62   1.333634 A    
C23   F3    1.358700 S    
N1    C47   1.359849 A    
C25   H13   1.082740 S    
O16   V4    1.994462 S    
O15   V3    1.994460 S    
C1    C54   1.497326 S    
O6    V2    1.996629 S    
C42   C44   1.408469 A    
O9    V2    1.767517 S    
C38   C40   1.407806 A    
C41   C43   1.408578 A    
O10   V1    1.767540 S    
C40   H20   1.082877 S    
O11   V4    1.973132 S    
O11   C63   1.333360 A    
C62   O17   1.335149 A    
H2    C30   1.083655 S    
O7    V1    1.977848 S    
C36   H18   1.082939 S    
