data_mof_unit_48229.cif
_audit_creation_date              2012-12-10T20:27:56-0500
_audit_creation_method            fapswitch 2.2
_symmetry_space_group_name_H-M    P1
_symmetry_Int_Tables_number       1
_space_group_crystal_system       triclinic
_cell_length_a                    12.898743
_cell_length_b                    10.686808
_cell_length_c                    9.881077
_cell_angle_alpha                 89.314836
_cell_angle_beta                  96.526957
_cell_angle_gamma                 90.571558
_cell_volume                      1353.09485997

loop_
_atom_site_label
_atom_site_type_symbol
_atom_type_description
_atom_site_fract_x
_atom_site_fract_y
_atom_site_fract_z
_atom_type_partial_charge
C1    C     C_R   0.503668 0.259855 0.500984 0.881337
C2    C     C_R   0.534881 0.936964 0.380787 -0.223473
C3    C     C_R   0.522963 0.871212 0.501677 -0.106019
C4    C     C_R   0.298312 0.500027 0.473888 0.888600
C5    C     C_R   0.532109 0.934196 0.624988 0.138713
C6    C     C_3   0.468079 0.923160 0.741397 -0.464961
C7    C     C_3   0.467234 0.064748 0.742202 -0.505974
C8    C     C_R   0.412666 0.465411 0.058852 0.140582
C9    C     C_R   0.580798 0.552039 0.081574 0.433994
C10   C     C_R   0.581779 0.547758 0.938447 -0.150674
C11   C     C_R   0.412131 0.466901 0.916573 0.194920
C12   C     C_R   0.028690 0.504348 0.565183 0.187785
C13   C     C_3   0.355093 0.345003 0.904143 -0.497716
C14   C     C_3   0.356653 0.343080 0.058199 -0.480605
C15   C     C_R   0.504175 0.739960 0.499896 0.881272
C16   C     C_R   0.701698 0.499863 0.526143 0.884550
C17   C     C_R   0.813646 0.499886 0.541456 -0.057914
C18   C     C_R   0.186371 0.499445 0.458725 -0.052752
C19   C     C_R   0.021908 0.487299 0.317781 -0.210751
C20   C     C_R   0.129730 0.490046 0.329528 -0.205052
C21   C     C_R   0.135840 0.507140 0.575912 -0.285886
C22   C     C_R   0.971359 0.494205 0.435162 0.178164
C23   C     C_R   0.864217 0.491540 0.424394 -0.260949
C24   C     C_R   0.870260 0.509370 0.670686 -0.197712
C25   C     C_R   0.978113 0.511509 0.682529 -0.221046
C26   C     C_R   0.531653 0.061991 0.625879 0.141818
C27   C     C_R   0.521991 0.128526 0.503189 -0.108241
C28   C     C_R   0.534445 0.066395 0.381547 -0.217154
H1    H     H_    0.820559 0.483295 0.324363 0.200058
H2    H     H_    0.831454 0.515818 0.761957 0.164482
H3    H     H_    0.978290 0.479741 0.217713 0.146842
H4    H     H_    0.021731 0.519135 0.782594 0.138317
H5    H     H_    0.168476 0.484307 0.238186 0.157221
H6    H     H_    0.179542 0.515259 0.675953 0.157169
H7    H     H_    0.535819 0.116381 0.285733 0.170220
H8    H     H_    0.536315 0.889590 0.284703 0.171415
H9    H     H_    0.389734 0.880805 0.711991 0.207103
H10   H     H_    0.633037 0.654303 0.231359 0.368713
H11   H     H_    0.512681 0.881439 0.833624 0.207752
H12   H     H_    0.388279 0.104075 0.712680 0.204360
H13   H     H_    0.511502 0.104202 0.835316 0.204603
H14   H     H_    0.647823 0.585705 0.892714 0.169523
H15   H     H_    0.275431 0.354560 0.849166 0.196785
H16   H     H_    0.402844 0.270802 0.866331 0.212117
H17   H     H_    0.277810 0.351612 0.092037 0.196851
H18   H     H_    0.405526 0.267257 0.109241 0.211194
N1    N     N_R   0.499290 0.499140 0.142710 -0.161468
N2    N     N_R   0.499290 0.499180 0.857070 -0.141769
O1    O     O_R   0.500010 0.316790 0.614690 -0.612934
O2    O     O_R   0.500000 0.316760 0.385350 -0.623767
O3    O     O_R   0.346360 0.499990 0.595720 -0.621783
O4    O     O_R   0.346350 0.499960 0.366370 -0.620258
O5    O     O_R   0.500000 0.683240 0.614650 -0.615590
O6    O     O_R   0.499990 0.683210 0.385310 -0.648731
O7    O     O_R   0.653650 0.500040 0.633630 -0.633083
O8    O     O_R   0.653640 0.500010 0.404280 -0.612486
O9    O     O_3   0.662119 0.612921 0.155510 -0.785300
Zn1   Zn    Zn3+2 0.500010 0.500020 0.653130 0.941543
Zn2   Zn    Zn3+2 0.499990 0.499980 0.346870 0.946041

loop_
_geom_bond_atom_site_label_1
_geom_bond_atom_site_label_2
_ccdc_geom_bond_type
C2    C28   A    
O5    Zn1   S    
C16   O8    A    
N2    Zn1   S    
C6    C7    S    
O4    Zn2   S    
C12   C22   A    
C10   H14   S    
H10   O9    S    
C9    C10   A    
C9    O9    S    
C19   C20   A    
O8    Zn2   S    
C12   C25   A    
C7    H12   S    
C4    C18   S    
C25   H4    S    
C2    C3    A    
C26   C27   A    
C8    N1    A    
C19   H3    S    
C14   H18   S    
O3    Zn1   S    
C13   C14   S    
C11   C13   S    
C11   N2    A    
C17   C23   A    
C7    C26   S    
C4    O4    A    
C8    C11   A    
C20   H5    S    
C15   O5    A    
C9    N1    A    
C14   H17   S    
C18   C20   A    
O6    Zn2   S    
C7    H13   S    
C10   N2    A    
C5    C6    S    
C24   H2    S    
C16   O7    A    
C17   C24   A    
O2    Zn2   S    
C4    O3    A    
N1    Zn2   S    
C5    C26   A    
C18   C21   A    
C15   O6    A    
C23   H1    S    
C13   H15   S    
C19   C22   A    
C3    C15   S    
C24   C25   A    
C1    O2    A    
O7    Zn1   S    
C2    H8    S    
C27   C28   A    
C1    C27   S    
C22   C23   A    
C8    C14   S    
C21   H6    S    
C6    H11   S    
C1    O1    A    
C12   C21   A    
C13   H16   S    
O1    Zn1   S    
C28   H7    S    
C6    H9    S    
C16   C17   S    
C3    C5    A    
