data_mof_unit_28197.cif
_audit_creation_date              2012-12-10T17:57:50-0500
_audit_creation_method            fapswitch 2.2
_symmetry_space_group_name_H-M    P1
_symmetry_Int_Tables_number       1
_space_group_crystal_system       triclinic
_cell_length_a                    10.82932
_cell_length_b                    9.507772
_cell_length_c                    15.085102
_cell_angle_alpha                 89.836093
_cell_angle_beta                  90.414826
_cell_angle_gamma                 89.941602
_cell_volume                      1553.15501077

loop_
_atom_site_label
_atom_site_type_symbol
_atom_type_description
_atom_site_fract_x
_atom_site_fract_y
_atom_site_fract_z
_atom_type_partial_charge
C1    C     C_R   0.262035 0.500041 0.500014 0.770830
C2    C     C_R   0.737965 0.499958 0.499959 0.773203
C3    C     C_R   0.399359 0.270499 0.048160 0.481521
C4    C     C_R   0.591619 0.734153 0.951882 0.474104
C5    C     C_R   0.064087 0.372727 0.507648 -0.200212
C6    C     C_R   0.935916 0.627260 0.492257 -0.196839
C7    C     C_R   0.936344 0.372665 0.507506 -0.185002
C8    C     C_R   0.063659 0.627322 0.492399 -0.185236
C9    C     C_R   0.871786 0.499936 0.499861 -0.015668
C10   C     C_R   0.128216 0.500055 0.500064 -0.016061
C11   C     C_R   0.424501 0.074797 0.443683 -0.017967
C12   C     C_R   0.575458 0.925204 0.556345 -0.024487
C13   C     C_R   0.575440 0.074121 0.556355 0.004638
C14   C     C_R   0.424518 0.925879 0.443675 0.010173
C15   C     C_R   0.501914 0.500270 0.328696 0.835149
C16   C     C_R   0.497990 0.499753 0.671307 0.837521
C17   C     C_R   0.541605 0.615078 0.813699 -0.288767
C18   C     C_R   0.455355 0.386248 0.186324 -0.289558
C19   C     C_R   0.493308 0.499595 0.767991 -0.191353
C20   C     C_R   0.505461 0.500757 0.231992 -0.195823
C21   C     C_R   0.440499 0.386101 0.814599 0.459893
C22   C     C_R   0.557706 0.614522 0.185309 0.471744
C23   C     C_R   0.443966 0.385638 0.907652 -0.029660
C24   C     C_R   0.551437 0.616605 0.092329 -0.038949
C25   C     C_R   0.494890 0.501770 0.953422 -0.044669
C26   C     C_R   0.498989 0.501288 0.046595 -0.050495
C27   C     C_R   0.542717 0.617798 0.906090 0.028633
C28   C     C_R   0.451621 0.384978 0.093927 0.035467
C29   C     C_R   0.397579 0.270865 0.955566 -0.306918
C30   C     C_R   0.597319 0.731730 0.044422 -0.252620
Cu1   Cu    Cu3+1 0.500000 0.640660 0.500000 0.959160
Cu2   Cu    Cu3+1 0.500000 0.359340 0.500000 0.958624
H1    H     H_    0.580459 0.702182 0.776737 0.211565
H2    H     H_    0.416588 0.299163 0.223353 0.211173
H3    H     H_    0.359994 0.180147 0.921578 0.190076
H4    H     H_    0.638406 0.820596 0.078323 0.201120
H5    H     H_    0.112352 0.273295 0.513943 0.148691
H6    H     H_    0.887650 0.726691 0.485962 0.149244
H7    H     H_    0.888419 0.273198 0.513696 0.148129
H8    H     H_    0.111585 0.726789 0.486209 0.147204
H9    H     H_    0.364036 0.131276 0.398602 0.120046
H10   H     H_    0.635890 0.868728 0.601448 0.123470
H11   H     H_    0.635854 0.130063 0.601459 0.123796
H12   H     H_    0.364067 0.869936 0.398598 0.123993
N1    N     N_R   0.500000 0.852070 0.500000 -0.161754
N2    N     N_R   0.500000 0.147930 0.500000 -0.161258
O1    O     O_R   0.319640 0.618740 0.499990 -0.593961
O2    O     O_R   0.680360 0.381260 0.500010 -0.593362
O3    O     O_R   0.680360 0.618740 0.500010 -0.589227
O4    O     O_R   0.319640 0.381260 0.499990 -0.590861
O5    O     O_R   0.499970 0.618800 0.370260 -0.533799
O6    O     O_R   0.500030 0.381200 0.629740 -0.534814
O7    O     O_R   0.500030 0.618800 0.629740 -0.595970
O8    O     O_R   0.499970 0.381200 0.370260 -0.593572
O9    O     O_3   0.389804 0.273204 0.769366 -0.580300
C31   C     C_3   0.264706 0.303532 0.750687 -0.303382
H13   H     H_    0.224035 0.213146 0.714501 0.189383
H14   H     H_    0.254898 0.397864 0.707326 0.152541
H15   H     H_    0.211042 0.318042 0.812663 0.148956
O10   O     O_3   0.610450 0.726283 0.230480 -0.566552
C32   C     C_3   0.735406 0.693798 0.248189 -0.299867
H16   H     H_    0.744651 0.599188 0.291348 0.148029
H17   H     H_    0.777766 0.783375 0.284189 0.189787
H18   H     H_    0.787959 0.678601 0.185790 0.149364
O11   O     O_3   0.357885 0.153475 0.093781 -0.584896
C33   C     C_3   0.227736 0.156602 0.095174 -0.348676
H19   H     H_    0.187966 0.144092 0.027448 0.165493
H20   H     H_    0.192911 0.255007 0.126221 0.159147
H21   H     H_    0.194883 0.067004 0.135901 0.195251
O12   O     O_3   0.642245 0.846139 0.906073 -0.594822
C34   C     C_3   0.558121 0.959320 0.907795 -0.304553
H22   H     H_    0.546057 0.999740 0.976322 0.190797
H23   H     H_    0.467188 0.929292 0.878549 0.169302
H24   H     H_    0.595664 0.046501 0.867089 0.204695

loop_
_geom_bond_atom_site_label_1
_geom_bond_atom_site_label_2
_ccdc_geom_bond_type
C33   H20   S    
O9    C31   S    
C5    H5    S    
C6    C9    A    
C4    O12   S    
C21   O9    S    
C23   C29   A    
C3    C28   A    
C19   C21   A    
C24   C26   A    
C22   O10   S    
C13   N2    A    
C11   C14   A    
C33   H21   S    
C31   H13   S    
C32   H17   S    
C3    C29   A    
C16   O7    A    
Cu2   O6    S    
C12   H10   S    
C6    H6    S    
O12   C34   S    
C15   O5    A    
C1    O4    A    
C33   H19   S    
Cu1   O1    S    
Cu2   O2    S    
C3    O11   S    
C17   H1    S    
Cu1   O3    S    
Cu2   O8    S    
C14   N1    A    
C15   C20   S    
C17   C27   A    
C15   O8    A    
C18   C28   A    
C5    C7    A    
C1    O1    A    
C6    C8    A    
C2    O2    A    
C25   C26   A    
O10   C32   S    
C32   H18   S    
C2    O3    A    
Cu1   Cu2   S    
Cu1   O7    S    
C18   H2    S    
Cu2   O4    S    
C20   C22   A    
C21   C23   A    
C22   C24   A    
C13   H11   S    
C4    C27   A    
C14   H12   S    
C7    C9    A    
Cu2   N2    S    
C1    C10   S    
C16   O6    A    
Cu1   O5    S    
C12   N1    A    
C34   H24   S    
C25   C27   A    
C29   H3    S    
C26   C28   A    
C31   H15   S    
C30   H4    S    
C34   H22   S    
C16   C19   S    
C17   C19   A    
C31   H14   S    
C11   H9    S    
C18   C20   A    
C23   C25   A    
C32   H16   S    
C24   C30   A    
C5    C10   A    
C12   C13   A    
C8    C10   A    
O11   C33   S    
Cu1   N1    S    
C34   H23   S    
C7    H7    S    
C11   N2    A    
C8    H8    S    
C2    C9    S    
C4    C30   A    
