data_mof_unit_19086.cif
_audit_creation_date              2012-12-10T18:04:36-0500
_audit_creation_method            fapswitch 2.2
_symmetry_space_group_name_H-M    P1
_symmetry_Int_Tables_number       1
_space_group_crystal_system       triclinic
_cell_length_a                    10.770629
_cell_length_b                    9.681005
_cell_length_c                    15.940665
_cell_angle_alpha                 89.910209
_cell_angle_beta                  92.333327
_cell_angle_gamma                 90.330262
_cell_volume                      1660.73414376

loop_
_atom_site_label
_atom_site_type_symbol
_atom_type_description
_atom_site_fract_x
_atom_site_fract_y
_atom_site_fract_z
_atom_type_partial_charge
C1    C     C_R   0.871201 0.500608 0.500412 -0.064496
C2    C     C_R   0.128773 0.499395 0.499592 -0.064294
C3    C     C_R   0.262886 0.499712 0.499234 0.890218
C4    C     C_R   0.737105 0.500289 0.500769 0.886381
C5    C     C_R   0.499944 0.500121 0.341642 0.823953
C6    C     C_R   0.500456 0.499915 0.658363 0.823321
C7    C     C_R   0.502478 0.628724 0.955548 0.362241
C8    C     C_R   0.527172 0.378467 0.045071 0.343254
C9    C     C_R   0.504976 0.629890 0.043633 0.368015
C10   C     C_R   0.531951 0.378616 0.957214 0.349198
C11   C     C_R   0.514078 0.502737 0.912756 -0.230942
C12   C     C_R   0.514981 0.504032 0.088041 -0.223443
C13   C     C_1   0.507400 0.500695 0.822828 0.124174
C14   C     C_1   0.508337 0.502233 0.177611 0.111496
C15   C     C_1   0.503619 0.500725 0.252597 -0.184945
C16   C     C_1   0.503380 0.499884 0.747597 -0.174771
C17   C     C_R   0.435759 0.072816 0.438695 0.231013
C18   C     C_R   0.564268 0.927183 0.561299 0.235018
C19   C     C_R   0.564534 0.073494 0.561217 0.240159
C20   C     C_R   0.435539 0.926508 0.438761 0.232603
C21   C     C_R   0.059929 0.440448 0.431923 0.056969
C22   C     C_R   0.940033 0.559532 0.568090 0.057540
C23   C     C_R   0.929776 0.440658 0.432487 0.071318
C24   C     C_R   0.070186 0.559386 0.567505 0.071343
Cu1   Cu    Cu3+1 0.500000 0.640660 0.500000 0.940189
Cu2   Cu    Cu3+1 0.500000 0.359340 0.500000 0.944036
N1    N     N_R   0.500000 0.852070 0.500000 -0.233441
N2    N     N_R   0.500000 0.147930 0.500000 -0.233083
O1    O     O_R   0.319640 0.618740 0.499990 -0.581395
O2    O     O_R   0.680360 0.381260 0.500010 -0.582440
O3    O     O_R   0.680360 0.618740 0.500010 -0.585832
O4    O     O_R   0.319640 0.381260 0.499990 -0.583593
O5    O     O_R   0.499970 0.618750 0.380310 -0.598668
O6    O     O_R   0.500030 0.381250 0.619690 -0.591838
O7    O     O_R   0.500030 0.618750 0.619690 -0.579906
O8    O     O_R   0.499970 0.381250 0.380310 -0.578735
N3    N     N_3   0.369748 0.138229 0.369978 -0.570847
H1    H     H_    0.318106 0.220611 0.390659 0.278431
H2    H     H_    0.432569 0.168328 0.325173 0.241700
N4    N     N_3   0.630297 0.861769 0.630009 -0.578262
H3    H     H_    0.681970 0.779420 0.609318 0.278007
H4    H     H_    0.567469 0.831595 0.674784 0.240450
N5    N     N_3   0.631418 0.139469 0.629681 -0.574211
H5    H     H_    0.686029 0.220589 0.609182 0.259001
H6    H     H_    0.569325 0.170341 0.674490 0.247035
N6    N     N_3   0.368867 0.860528 0.370223 -0.562717
H7    H     H_    0.314317 0.779310 0.390668 0.261903
H8    H     H_    0.431153 0.829765 0.325504 0.242167
O9    O     O_3   0.486685 0.753751 0.084625 -0.532227
C25   C     C_3   0.600250 0.799680 0.122805 -0.285964
H9    H     H_    0.682951 0.774725 0.085896 0.124611
H10   H     H_    0.612469 0.756593 0.187116 0.165293
H11   H     H_    0.597106 0.913691 0.128776 0.199895
O10   O     O_3   0.543497 0.255361 0.914544 -0.543905
C26   C     C_3   0.671025 0.228644 0.906784 -0.271165
H12   H     H_    0.718700 0.213307 0.969340 0.180059
H13   H     H_    0.717474 0.312565 0.871670 0.139846
H14   H     H_    0.680745 0.131865 0.870575 0.172499
O11   O     O_3   0.476362 0.749216 0.911576 -0.522266
C27   C     C_3   0.588951 0.811234 0.888857 -0.251588
H15   H     H_    0.647526 0.739563 0.853130 0.129241
H16   H     H_    0.642024 0.851178 0.944953 0.162816
H17   H     H_    0.566878 0.900596 0.847358 0.195678
O12   O     O_3   0.540416 0.255901 0.089234 -0.562818
C28   C     C_3   0.422276 0.193627 0.094385 -0.223552
H18   H     H_    0.383900 0.162975 0.031234 0.200566
H19   H     H_    0.356051 0.262439 0.125871 0.137720
H20   H     H_    0.431834 0.098482 0.132890 0.188886
N7    N     N_3   0.123122 0.384773 0.362121 -0.624794
H21   H     H_    0.095845 0.439520 0.307974 0.218349
H22   H     H_    0.096796 0.281396 0.354246 0.228697
N8    N     N_3   0.876828 0.615123 0.637922 -0.628605
H23   H     H_    0.903131 0.718513 0.645844 0.228407
H24   H     H_    0.904091 0.560313 0.692059 0.214277
N9    N     N_3   0.855883 0.383025 0.363981 -0.586396
H25   H     H_    0.876897 0.434902 0.308753 0.214589
H26   H     H_    0.878436 0.278798 0.357766 0.229962
N10   N     N_3   0.144065 0.617139 0.635981 -0.582043
H27   H     H_    0.121487 0.721379 0.642128 0.231660
H28   H     H_    0.123030 0.565356 0.691242 0.219002

loop_
_geom_bond_atom_site_label_1
_geom_bond_atom_site_label_2
_ccdc_geom_bond_type
Cu1   O3    S    
C26   H12   S    
Cu2   O4    S    
N5    H5    S    
C7    C11   A    
C27   H17   S    
N10   H28   S    
C8    O12   S    
C5    O8    A    
C17   C20   A    
C6    O7    A    
C27   H16   S    
C18   C19   A    
C22   N8    S    
C3    O1    A    
C18   N4    S    
O10   C26   S    
Cu2   O6    S    
C28   H19   S    
C5    O5    A    
C25   H10   S    
N4    H4    S    
O11   C27   S    
C3    O4    A    
C7    O11   S    
C19   N5    S    
Cu1   O1    S    
N6    H8    S    
C25   H11   S    
N7    H22   S    
C9    O9    S    
N8    H24   S    
N10   H27   S    
Cu1   Cu2   S    
C6    O6    A    
C21   N7    S    
C27   H15   S    
N9    H25   S    
N3    H1    S    
N5    H6    S    
C8    C12   A    
C28   H20   S    
C2    C21   A    
C25   H9    S    
C17   N3    S    
C19   N2    A    
N9    H26   S    
Cu1   O7    S    
Cu2   O8    S    
N4    H3    S    
C12   C14   S    
C1    C23   A    
C26   H13   S    
C2    C24   A    
O9    C25   S    
C22   C24   A    
C13   C16   T    
C24   N10   S    
C7    C9    A    
N6    H7    S    
C17   N2    A    
C18   N1    A    
C23   N9    S    
N8    H23   S    
Cu2   O2    S    
C20   N1    A    
Cu1   N1    S    
Cu2   N2    S    
C1    C4    S    
O12   C28   S    
C21   C23   A    
C2    C3    S    
N3    H2    S    
C11   C13   S    
N7    H21   S    
C10   O10   S    
C9    C12   A    
C4    O2    A    
C5    C15   S    
C4    O3    A    
C10   C11   A    
C6    C16   S    
C1    C22   A    
C8    C10   A    
C28   H18   S    
C26   H14   S    
C14   C15   T    
C20   N6    S    
Cu1   O5    S    
