data_mof_unit_24630.cif
_audit_creation_date              2013-03-05T15:51:15-0500
_audit_creation_method            fapswitch 2.2
_symmetry_space_group_name_H-M    P1
_symmetry_Int_Tables_number       1
_space_group_crystal_system       triclinic
_cell_length_a                    19.430152
_cell_length_b                    11.281955
_cell_length_c                    18.718338
_cell_angle_alpha                 90.891164
_cell_angle_beta                  89.749376
_cell_angle_gamma                 89.912103
_cell_volume                      4102.70792011

loop_
_atom_site_label
_atom_site_type_symbol
_atom_site_description
_atom_site_fract_x
_atom_site_fract_y
_atom_site_fract_z
_atom_type_partial_charge
O1    O     O_R   0.787520 0.042810 0.170440 -0.397020
O2    O     O_R   0.212480 0.042810 0.829560 -0.423641
O3    O     O_R   0.287520 0.542810 0.170440 -0.394428
O4    O     O_R   0.712480 0.542810 0.829560 -0.421439
O5    O     O_R   0.765640 0.292100 0.175020 -0.458752
O6    O     O_R   0.234360 0.292100 0.824980 -0.463599
O7    O     O_R   0.265640 0.792100 0.175020 -0.472480
O8    O     O_R   0.734360 0.792100 0.824980 -0.465526
C1    C     C_R   0.714031 0.335351 0.138196 0.550528
C2    C     C_R   0.268214 0.381619 0.851782 0.547973
C3    C     C_R   0.227415 0.869629 0.143585 0.596648
C4    C     C_R   0.768197 0.881383 0.851779 0.539787
O9    O     O_R   0.670190 0.408840 0.168540 -0.467680
O10   O     O_R   0.329810 0.408840 0.831460 -0.511700
O11   O     O_R   0.170190 0.908840 0.168540 -0.492656
O12   O     O_R   0.829810 0.908840 0.831460 -0.515170
O13   O     O_R   0.556620 0.251410 0.175160 -0.549065
O14   O     O_R   0.443380 0.251410 0.824840 -0.513464
O15   O     O_R   0.056620 0.751410 0.175160 -0.536540
O16   O     O_R   0.943380 0.751410 0.824840 -0.509505
C5    C     C_R   0.533822 0.154234 0.146527 0.562260
C6    C     C_R   0.467176 0.157382 0.853223 0.565670
C7    C     C_R   0.032976 0.653958 0.147158 0.558511
C8    C     C_R   0.966423 0.657171 0.853745 0.569006
O17   O     O_R   0.545960 0.049620 0.170320 -0.501794
O18   O     O_R   0.454040 0.049620 0.829680 -0.500097
O19   O     O_R   0.045960 0.549620 0.170320 -0.502602
O20   O     O_R   0.954040 0.549620 0.829680 -0.496579
O21   O     O_R   0.681390 0.958010 0.176690 -0.497552
O22   O     O_R   0.318610 0.958010 0.823310 -0.492681
O23   O     O_R   0.181390 0.458010 0.176690 -0.494562
O24   O     O_R   0.818610 0.458010 0.823310 -0.495366
C9    C     C_R   0.726144 0.021085 0.140330 0.565576
C10   C     C_R   0.259344 0.970121 0.851462 0.582546
C11   C     C_R   0.226151 0.521621 0.140375 0.579103
C12   C     C_R   0.758771 0.469171 0.851025 0.582358
O25   O     O_R   0.787510 0.044390 0.330970 -0.523234
O26   O     O_R   0.212490 0.044390 0.669030 -0.527589
O27   O     O_R   0.287510 0.544390 0.330970 -0.533098
O28   O     O_R   0.712490 0.544390 0.669030 -0.514029
O29   O     O_R   0.765630 0.293570 0.323840 -0.507023
O30   O     O_R   0.234370 0.293570 0.676160 -0.484923
O31   O     O_R   0.265630 0.793570 0.323840 -0.483289
O32   O     O_R   0.734370 0.793570 0.676160 -0.512497
C13   C     C_R   0.729285 0.376146 0.351744 0.575369
C14   C     C_R   0.287773 0.329963 0.640354 0.542907
C15   C     C_R   0.211601 0.829561 0.359003 0.554015
C16   C     C_R   0.770693 0.875323 0.648080 0.544867
O33   O     O_R   0.670190 0.410420 0.329080 -0.494854
O34   O     O_R   0.329810 0.410420 0.670920 -0.480693
O35   O     O_R   0.170190 0.910420 0.329080 -0.472659
O36   O     O_R   0.829810 0.910420 0.670920 -0.508425
O37   O     O_R   0.556610 0.252880 0.323980 -0.500326
O38   O     O_R   0.443390 0.252880 0.676020 -0.517833
O39   O     O_R   0.056610 0.752880 0.323980 -0.523121
O40   O     O_R   0.943390 0.752880 0.676020 -0.482079
C17   C     C_R   0.539381 0.158374 0.356434 0.557232
C18   C     C_R   0.468720 0.157088 0.648202 0.544783
C19   C     C_R   0.031153 0.657954 0.352127 0.542180
C20   C     C_R   0.936806 0.653623 0.639808 0.538690
O41   O     O_R   0.545950 0.051210 0.330860 -0.476502
O42   O     O_R   0.454050 0.051210 0.669140 -0.487339
O43   O     O_R   0.045950 0.551210 0.330860 -0.484233
O44   O     O_R   0.954050 0.551210 0.669140 -0.472516
O45   O     O_R   0.681390 0.959480 0.325510 -0.434610
O46   O     O_R   0.318610 0.959480 0.674490 -0.452366
O47   O     O_R   0.181390 0.459480 0.325510 -0.447769
O48   O     O_R   0.818610 0.459480 0.674490 -0.451157
C21   C     C_R   0.738810 0.976392 0.355669 0.575483
C22   C     C_R   0.257770 0.966618 0.647714 0.538991
C23   C     C_R   0.242214 0.467137 0.352179 0.545185
C24   C     C_R   0.761007 0.474882 0.644504 0.564335
Cr1   Cr    Cr6+3 0.772010 0.169670 0.250090 1.111866
Cr2   Cr    Cr6+3 0.227990 0.169670 0.749910 1.142765
Cr3   Cr    Cr6+3 0.272010 0.669670 0.250090 1.118663
Cr4   Cr    Cr6+3 0.727990 0.669670 0.749910 1.134607
Cr5   Cr    Cr6+3 0.615000 0.323260 0.249260 1.056967
Cr6   Cr    Cr6+3 0.385000 0.323260 0.750740 1.073491
Cr7   Cr    Cr6+3 0.115000 0.823260 0.249260 1.054499
Cr8   Cr    Cr6+3 0.885000 0.823260 0.750740 1.076094
Cr9   Cr    Cr6+3 0.616710 0.010760 0.250840 1.115385
Cr10  Cr    Cr6+3 0.383290 0.010760 0.749160 1.133879
Cr11  Cr    Cr6+3 0.116710 0.510760 0.250840 1.111077
Cr12  Cr    Cr6+3 0.883290 0.510760 0.749160 1.137880
O49   O     O_3   0.667900 0.167900 0.250060 -0.362496
O50   O     O_3   0.332100 0.167900 0.749940 -0.339963
O51   O     O_3   0.167900 0.667900 0.250060 -0.361704
O52   O     O_3   0.832100 0.667900 0.749940 -0.343436
H1    H     H_    0.535266 0.978498 0.051457 0.147501
H2    H     H_    0.530128 0.991402 0.925480 0.204453
H3    H     H_    0.028142 0.475177 0.053578 0.147812
H4    H     H_    0.023188 0.487613 0.927955 0.203374
C25   C     C_R   0.497511 0.174089 0.924526 0.063019
C26   C     C_R   0.509540 0.161981 0.073120 0.047091
C27   C     C_R   0.994370 0.672555 0.926149 0.065125
C28   C     C_R   0.006044 0.660357 0.074792 0.042084
C29   C     C_R   0.490680 0.281097 0.966918 0.020405
C30   C     C_R   0.493727 0.272050 0.042221 0.008924
C31   C     C_R   0.988263 0.779764 0.968634 0.027551
C32   C     C_R   0.990853 0.770192 0.043882 0.006691
C33   C     C_R   0.522348 0.063258 0.029388 -0.167264
C34   C     C_R   0.520302 0.071023 0.956569 -0.134253
C35   C     C_R   0.016283 0.560402 0.031423 -0.157618
C36   C     C_R   0.014390 0.567999 0.958668 -0.128975
C37   C     C_R   0.482595 0.396641 0.938340 -0.056955
C38   C     C_R   0.483535 0.374123 0.085268 -0.043854
C39   C     C_R   0.981647 0.895946 0.940525 -0.053482
C40   C     C_R   0.981018 0.871459 0.087370 -0.043630
C41   C     C_R   0.981132 0.996885 0.985773 0.021345
C42   C     C_R   0.984551 0.983742 0.060030 0.043134
C43   C     C_R   0.481411 0.498007 0.982887 0.018232
C44   C     C_R   0.485983 0.486228 0.057015 0.037619
H5    H     H_    0.481916 0.412853 0.881889 0.197703
H6    H     H_    0.471534 0.368892 0.141581 0.173611
H7    H     H_    0.981334 0.912535 0.884082 0.195464
H8    H     H_    0.968332 0.864879 0.143531 0.166025
C45   C     C_R   0.736920 0.949646 0.912417 0.003832
C46   C     C_R   0.237981 0.887022 0.067190 -0.005906
C47   C     C_R   0.237199 0.450694 0.912416 0.000233
C48   C     C_R   0.726590 0.353385 0.061734 -0.026401
C49   C     C_R   0.685762 0.900937 0.954527 0.037367
C50   C     C_R   0.302609 0.881299 0.036255 0.057446
C51   C     C_R   0.185554 0.403353 0.954345 0.042580
C52   C     C_R   0.793126 0.361933 0.034382 0.067655
C53   C     C_R   0.672461 0.938453 0.024647 -0.081170
C54   C     C_R   0.309563 0.899513 0.963857 -0.042255
C55   C     C_R   0.172249 0.441593 0.024381 -0.072869
C56   C     C_R   0.803535 0.392121 0.964105 -0.047344
C57   C     C_R   0.768157 0.070409 0.014377 0.159338
C58   C     C_R   0.188072 0.890677 0.948225 0.198270
C59   C     C_R   0.268411 0.572779 0.014380 0.170947
C60   C     C_R   0.683617 0.375564 0.941134 0.200708
C61   C     C_R   0.765880 0.054647 0.939281 -0.018498
C62   C     C_R   0.180454 0.900843 0.022265 -0.064789
C63   C     C_R   0.266608 0.555507 0.939250 -0.014571
C64   C     C_R   0.671547 0.377008 0.015145 -0.087771
C65   C     C_3   0.669952 0.775594 0.966917 0.110048
C66   C     C_3   0.364867 0.954409 0.052619 0.092930
C67   C     C_3   0.169340 0.278328 0.967115 0.104799
C68   C     C_3   0.853131 0.436827 0.057804 0.111932
C69   C     C_3   0.650964 0.814859 0.042810 -0.211603
C70   C     C_3   0.371924 0.973540 0.972647 -0.234310
C71   C     C_3   0.150389 0.318632 0.042772 -0.213686
C72   C     C_3   0.863954 0.467695 0.979699 -0.245298
C73   C     C_R   0.719440 0.014363 0.059445 -0.007178
C74   C     C_R   0.252296 0.912712 0.919486 0.014384
C75   C     C_R   0.219683 0.516227 0.059388 0.001039
C76   C     C_R   0.748749 0.406957 0.917233 0.019086
H9    H     H_    0.215292 0.219335 0.964047 0.142868
H10   H     H_    0.896121 0.384577 0.080615 0.168820
H11   H     H_    0.716082 0.717023 0.963561 0.141331
H12   H     H_    0.407352 0.901699 0.076074 0.162844
H13   H     H_    0.595131 0.807984 0.054873 0.159362
H14   H     H_    0.363991 0.066291 0.955215 0.154968
H15   H     H_    0.094530 0.312970 0.054836 0.162391
H16   H     H_    0.855476 0.562362 0.966475 0.151531
H17   H     H_    0.684825 0.775594 0.083892 0.212820
H18   H     H_    0.416530 0.926605 0.948612 0.166533
H19   H     H_    0.184194 0.279254 0.083930 0.207029
H20   H     H_    0.910324 0.425798 0.955989 0.159478
C77   C     C_R   0.504750 0.165543 0.580274 0.022880
C78   C     C_R   0.524583 0.171623 0.431959 0.007127
C79   C     C_R   0.951393 0.664472 0.563789 -0.002890
C80   C     C_R   0.992057 0.666095 0.419053 0.022610
C81   C     C_R   0.506994 0.063549 0.538674 0.017570
C82   C     C_R   0.514630 0.068080 0.466636 0.028468
C83   C     C_R   0.971594 0.563520 0.528723 0.032839
C84   C     C_R   0.989041 0.563136 0.458098 0.024730
C85   C     C_R   0.535249 0.275597 0.473566 -0.150805
C86   C     C_R   0.522902 0.273465 0.548043 -0.144230
C87   C     C_R   0.968032 0.771597 0.451908 -0.141199
C88   C     C_R   0.946513 0.770259 0.524382 -0.144885
C89   C     C_3   0.453209 0.971573 0.530506 -0.193695
C90   C     C_3   0.460531 0.981532 0.451059 -0.227804
C91   C     C_3   0.030692 0.488216 0.548283 -0.214959
C92   C     C_3   0.046290 0.479446 0.470071 -0.209011
H21   H     H_    0.550958 0.357102 0.448977 0.166288
H22   H     H_    0.523700 0.355133 0.578971 0.159884
H23   H     H_    0.969671 0.854186 0.423552 0.154252
H24   H     H_    0.930572 0.851737 0.550405 0.164239
H25   H     H_    0.013232 0.406519 0.573463 0.261107
H26   H     H_    0.097870 0.514830 0.455746 0.132297
H27   H     H_    0.401754 0.000757 0.550196 0.141424
H28   H     H_    0.482915 0.904547 0.422807 0.259752
H29   H     H_    0.475077 0.890528 0.553021 0.270776
H30   H     H_    0.414996 0.022221 0.425048 0.146993
H31   H     H_    0.070685 0.537808 0.578902 0.157090
H32   H     H_    0.029935 0.396454 0.444123 0.268232
C93   C     C_R   0.753822 0.904508 0.575704 -0.039736
C94   C     C_R   0.223309 0.832283 0.437568 -0.061191
C95   C     C_R   0.275795 0.332892 0.561604 -0.059388
C96   C     C_R   0.745855 0.404979 0.424223 -0.040564
C97   C     C_R   0.806976 0.950633 0.536608 -0.064133
C98   C     C_R   0.170819 0.879743 0.478553 -0.073664
C99   C     C_R   0.328304 0.380184 0.521359 -0.070240
C100  C     C_R   0.692456 0.450758 0.463834 -0.057486
C101  C     C_R   0.802242 0.963860 0.464343 -0.051210
C102  C     C_R   0.178052 0.903112 0.551578 -0.026263
C103  C     C_R   0.321092 0.404087 0.448645 -0.035018
C104  C     C_R   0.697062 0.462734 0.536311 -0.044485
C105  C     C_R   0.683814 0.887376 0.468326 0.155246
C106  C     C_R   0.296615 0.832294 0.545967 0.147943
C107  C     C_R   0.202607 0.335169 0.453044 0.155360
C108  C     C_R   0.815881 0.385161 0.530836 0.144060
C109  C     C_R   0.689649 0.885414 0.544170 -0.070637
C110  C     C_R   0.288684 0.815703 0.470684 -0.070865
C111  C     C_R   0.210362 0.318526 0.528213 -0.066765
C112  C     C_R   0.810103 0.385035 0.455166 -0.073518
C113  C     C_3   0.833124 0.072707 0.549341 -0.090452
C114  C     C_3   0.145053 0.001312 0.464862 -0.092146
C115  C     C_3   0.353432 0.502010 0.537389 -0.086348
C116  C     C_3   0.667315 0.573624 0.453415 -0.096567
C117  C     C_3   0.832276 0.085840 0.469324 -0.114570
C118  C     C_3   0.141713 0.018713 0.543798 -0.112426
C119  C     C_3   0.355675 0.520286 0.458856 -0.109222
C120  C     C_3   0.667424 0.585754 0.533527 -0.118937
C121  C     C_R   0.742439 0.932712 0.428336 0.011583
C122  C     C_R   0.242475 0.890800 0.584565 0.017647
C123  C     C_R   0.257004 0.392219 0.415081 0.017211
C124  C     C_R   0.757098 0.430238 0.571597 0.008015
H33   H     H_    0.884497 0.074258 0.575064 0.207107
H34   H     H_    0.095548 0.003997 0.435335 0.192328
H35   H     H_    0.403342 0.505004 0.566207 0.192441
H36   H     H_    0.616281 0.576657 0.426977 0.208378
H37   H     H_    0.796961 0.155169 0.449628 0.123993
H38   H     H_    0.172490 0.094125 0.561213 0.143886
H39   H     H_    0.322525 0.592954 0.443191 0.138945
H40   H     H_    0.702637 0.654770 0.554889 0.124684
N1    N     N_R   0.622085 0.836845 0.434985 0.057789
O53   O     O_R   0.622735 0.793894 0.370130 -0.297448
O54   O     O_R   0.571964 0.799810 0.474832 -0.386806
N2    N     N_R   0.356794 0.785090 0.582790 0.051204
O55   O     O_R   0.352870 0.757936 0.650087 -0.268203
O56   O     O_R   0.405854 0.733166 0.546689 -0.384989
N3    N     N_R   0.143270 0.286001 0.415198 0.054437
O57   O     O_R   0.148734 0.255994 0.347919 -0.268380
O58   O     O_R   0.094255 0.234209 0.450403 -0.383381
N4    N     N_R   0.878261 0.335148 0.562709 0.050135
O59   O     O_R   0.879885 0.297050 0.627844 -0.296364
O60   O     O_R   0.927475 0.295639 0.521687 -0.383102
C125  C     C_1   0.630948 0.873045 0.591552 0.286324
N5    N     N_1   0.585057 0.863475 0.630659 -0.209638
C126  C     C_1   0.348567 0.794915 0.426075 0.266878
N6    N     N_1   0.394076 0.774162 0.387769 -0.233047
C127  C     C_1   0.150296 0.301142 0.572586 0.262542
N7    N     N_1   0.104337 0.283361 0.610430 -0.230418
C128  C     C_1   0.868886 0.372084 0.407559 0.295785
N8    N     N_1   0.914903 0.361709 0.368462 -0.208071
C129  C     C_1   0.779150 0.141824 0.588041 0.261094
N9    N     N_1   0.735811 0.190622 0.619328 -0.262922
C130  C     C_1   0.203992 0.067947 0.433291 0.302644
N10   N     N_1   0.252472 0.110867 0.408441 -0.254532
C131  C     C_1   0.294706 0.568345 0.571229 0.303424
N11   N     N_1   0.246695 0.611816 0.597691 -0.254760
C132  C     C_1   0.722431 0.641806 0.417308 0.257089
N12   N     N_1   0.766874 0.689359 0.388071 -0.260164
C133  C     C_1   0.901285 0.087857 0.436472 0.290542
N13   N     N_1   0.955413 0.089906 0.410484 -0.221976
C134  C     C_1   0.071861 0.016492 0.574312 0.295629
N14   N     N_1   0.017206 0.015665 0.598988 -0.255279
C135  C     C_1   0.424961 0.522227 0.426984 0.291326
N15   N     N_1   0.479006 0.525745 0.400990 -0.262769
C136  C     C_1   0.597861 0.589641 0.565093 0.289575
N16   N     N_1   0.543269 0.593059 0.589999 -0.214600
C137  C     C_1   0.970096 0.112633 0.956574 0.317988
N17   N     N_1   0.960873 0.206279 0.934315 -0.216712
C138  C     C_1   0.982981 0.082726 0.110683 0.320403
N18   N     N_1   0.982528 0.161032 0.151430 -0.227972
C139  C     C_1   0.469786 0.613032 0.952970 0.315201
N19   N     N_1   0.460319 0.706118 0.930047 -0.215775
C140  C     C_1   0.485714 0.586919 0.106389 0.315041
N20   N     N_1   0.486256 0.666726 0.146032 -0.233926
N21   N     N_R   0.834766 0.069500 0.041712 0.042433
O61   O     O_R   0.854524 0.965534 0.062300 -0.362419
O62   O     O_R   0.859036 0.164162 0.072302 -0.378593
N22   N     N_R   0.137164 0.833115 0.905396 0.063368
O63   O     O_R   0.136543 0.717944 0.904905 -0.374203
O64   O     O_R   0.110352 0.887646 0.851517 -0.287865
N23   N     N_R   0.334939 0.575491 0.042275 0.041084
O65   O     O_R   0.356207 0.472939 0.063666 -0.354257
O66   O     O_R   0.358157 0.671810 0.071956 -0.369013
N24   N     N_R   0.635202 0.325291 0.892199 0.061105
O67   O     O_R   0.637877 0.211472 0.880633 -0.366454
O68   O     O_R   0.607261 0.391254 0.843918 -0.290992
C141  C     C_1   0.806618 0.127974 0.892893 0.265758
N25   N     N_1   0.838063 0.185605 0.853978 -0.214831
C142  C     C_1   0.141035 0.000621 0.044013 0.274260
N26   N     N_1   0.114227 0.085272 0.064496 -0.306341
C143  C     C_1   0.306204 0.629641 0.892348 0.267926
N27   N     N_1   0.336569 0.687986 0.852926 -0.203013
C144  C     C_1   0.639581 0.484256 0.038085 0.282041
N28   N     N_1   0.619260 0.573936 0.059252 -0.285772
N29   N     N_R   0.612850 0.734378 0.922438 0.086021
O69   O     O_R   0.607699 0.621451 0.909673 -0.309308
O70   O     O_R   0.582963 0.806117 0.878373 -0.315966
N30   N     N_R   0.348598 0.062739 0.093610 0.074662
O71   O     O_R   0.373991 0.077477 0.157281 -0.302976
O72   O     O_R   0.305161 0.140447 0.069654 -0.363104
N31   N     N_R   0.112194 0.236978 0.922767 0.086220
O73   O     O_R   0.107157 0.124008 0.910001 -0.309472
O74   O     O_R   0.082049 0.308694 0.878875 -0.314268
N32   N     N_R   0.833199 0.538857 0.102650 0.090163
O75   O     O_R   0.862972 0.555958 0.164029 -0.296069
O76   O     O_R   0.786284 0.613181 0.082037 -0.353585

loop_
_geom_bond_atom_site_label_1
_geom_bond_atom_site_label_2
_geom_bond_distance
_ccdc_geom_bond_type
O4    C12   1.293020 A    
O25   C21   1.306554 A    
C58   C74   1.381164 A    
C96   C112  1.397855 A    
Cr11  O51   2.034348 S    
C144  N28   1.149552 T    
C45   C61   1.399577 A    
Cr7   O51   2.030843 S    
C92   H26   1.112607 S    
N24   O67   1.299828 A    
C22   C122  1.479735 S    
C86   H22   1.080671 S    
O39   C19   1.298487 A    
C27   C31   1.441623 A    
C140  N20   1.157913 T    
O21   C9    1.318167 A    
C20   C79   1.456740 S    
C1    O9    1.309433 A    
O44   Cr12  2.085004 S    
C19   C80   1.463801 S    
C3    O11   1.279729 A    
C94   C110  1.429172 A    
C4    O12   1.294069 A    
C72   H20   1.104895 S    
C57   C73   1.420884 A    
C29   C37   1.425451 A    
O2    C10   1.296596 A    
C127  N7    1.157108 T    
O17   Cr9   2.095338 S    
C58   C62   1.396077 A    
C70   H18   1.105316 S    
C42   C138  1.453874 S    
C92   H32   1.096215 S    
O31   Cr3   1.952683 S    
N4    O60   1.297801 A    
C82   C90   1.462983 S    
O16   Cr8   1.978272 S    
C80   C84   1.383155 A    
C90   H28   1.098058 S    
C113  C117  1.507554 S    
O28   Cr4   2.078257 S    
O12   Cr8   2.074217 S    
O22   Cr10  1.967931 S    
O15   C7    1.296267 A    
N1    O53   1.300100 A    
O46   Cr10  1.964717 S    
C91   C92   1.495472 S    
O48   C24   1.267224 A    
C115  H35   1.112065 S    
N2    O56   1.299544 A    
C55   C71   1.496250 S    
C79   C88   1.416022 A    
C63   C143  1.442609 S    
C16   C93   1.438286 S    
C57   C61   1.415029 A    
C69   H17   1.111126 S    
N30   O71   1.300291 A    
C104  C124  1.394417 A    
C102  C118  1.491543 S    
C68   N32   1.464734 S    
H1    C33   1.077277 S    
Cr12  O52   2.031291 S    
C120  C136  1.473059 S    
H3    C35   1.078016 S    
C64   C144  1.418944 S    
C17   O41   1.299290 A    
C47   C51   1.384201 A    
C19   O43   1.294011 A    
C30   C38   1.408417 A    
C20   O44   1.329994 A    
C91   H31   1.113819 S    
Cr8   O52   2.033162 S    
C10   C74   1.443587 S    
O46   C22   1.288907 A    
C78   C85   1.413950 A    
N23   O66   1.295358 A    
H4    C36   1.079200 S    
C4    C45   1.488643 S    
C100  C116  1.485010 S    
C16   O36   1.288176 A    
O27   C23   1.304569 A    
O31   C15   1.297885 A    
C77   C81   1.379859 A    
O32   C16   1.280197 A    
O47   Cr11  1.976350 S    
C114  H34   1.112082 S    
C43   C44   1.399162 A    
C14   C95   1.494207 S    
C29   C30   1.416302 A    
O5    C1    1.316723 A    
C89   H29   1.098424 S    
C129  N9    1.157333 T    
C120  H40   1.108443 S    
C103  C119  1.484150 S    
O24   C12   1.276340 A    
C37   H5    1.075315 S    
C131  N11   1.158931 T    
C60   C64   1.403897 A    
C51   C67   1.468716 S    
O8    Cr4   1.959438 S    
C133  N13   1.157236 T    
C46   C50   1.381503 A    
C49   C65   1.469280 S    
O32   Cr4   1.983452 S    
H2    C34   1.079009 S    
C2    C47   1.491210 S    
C67   C71   1.524086 S    
O11   Cr7   2.097495 S    
C53   C69   1.499876 S    
C59   C75   1.422973 A    
O27   Cr3   2.109423 S    
O3    Cr3   2.071337 S    
C46   C62   1.411606 A    
O8    C4    1.299120 A    
C91   H25   1.095372 S    
C105  N1    1.466524 S    
Cr5   O49   2.030843 S    
C87   H23   1.079941 S    
C109  C125  1.449989 S    
C111  C127  1.444904 S    
C44   C140  1.453246 S    
C85   H21   1.078589 S    
C12   C76   1.446318 S    
C107  N3    1.461385 S    
C99   C103  1.399239 A    
C24   C124  1.449645 S    
N32   O76   1.301430 A    
C32   C40   1.404811 A    
O22   C10   1.270590 A    
C108  C112  1.421324 A    
C103  C123  1.402852 A    
C108  N4    1.469045 S    
C2    O10   1.293115 A    
C72   H16   1.112271 S    
C49   C53   1.395741 A    
N29   O69   1.296695 A    
C98   C114  1.485728 S    
C51   C55   1.396649 A    
O3    C11   1.340994 A    
N23   O65   1.297735 A    
C143  N27   1.156893 T    
C95   C111  1.427491 A    
C70   H14   1.111641 S    
Cr1   O49   2.023005 S    
Cr3   O51   2.023005 S    
C118  C134  1.470616 S    
C58   N22   1.426736 S    
C25   C29   1.439983 A    
C83   C91   1.478080 S    
C116  H36   1.110898 S    
C84   C92   1.478030 S    
C5    O17   1.289723 A    
O29   C13   1.272412 A    
O28   C24   1.302742 A    
O14   C6    1.280451 A    
C8    O20   1.310711 A    
C138  N18   1.158119 T    
N24   O68   1.299721 A    
O40   Cr8   1.955150 S    
C106  C122  1.428505 A    
C116  C132  1.485845 S    
O41   Cr9   2.073853 S    
C69   H13   1.110205 S    
C98   C102  1.395802 A    
C28   C32   1.407152 A    
N21   O62   1.294477 A    
C40   C42   1.375294 A    
C119  H39   1.086506 S    
O5    Cr1   1.989748 S    
O35   Cr7   2.078645 S    
C117  H37   1.108185 S    
O29   Cr1   1.952683 S    
C93   C97   1.371084 A    
N22   O63   1.299314 A    
C1    C48   1.468166 S    
C105  C109  1.425183 A    
C3    C46   1.460065 S    
Cr9   O49   2.034348 S    
C134  N14   1.156315 T    
C18   O42   1.294733 A    
C60   N24   1.427816 S    
O26   C22   1.298755 A    
C33   C34   1.367973 A    
O20   Cr12  2.086392 S    
C113  H33   1.110184 S    
C57   N21   1.393862 S    
C136  N16   1.157139 T    
C102  C122  1.405818 A    
C108  C124  1.457337 A    
C21   C121  1.455883 S    
C96   C100  1.368474 A    
O26   Cr2   2.078257 S    
C26   C30   1.411989 A    
C126  N6    1.157334 T    
C23   C123  1.488780 S    
O30   C14   1.303167 A    
C37   C43   1.404904 A    
C78   C82   1.358874 A    
C110  C126  1.445888 S    
C93   C109  1.397442 A    
N3    O57   1.302800 A    
C59   N23   1.396429 S    
C52   C56   1.378107 A    
C88   H24   1.077991 S    
N30   O72   1.302020 A    
O42   Cr10  2.085004 S    
O18   Cr10  2.086392 S    
C139  N19   1.155405 T    
C39   C41   1.408613 A    
C101  C121  1.388778 A    
O34   Cr6   2.098975 S    
O6    Cr2   1.959438 S    
O24   Cr12  1.967931 S    
O30   Cr2   1.983452 S    
O48   Cr12  1.964717 S    
C50   C66   1.495289 S    
C130  N10   1.158760 T    
C66   C70   1.521377 S    
C8    C27   1.470096 S    
C83   C84   1.363256 A    
O37   C17   1.279601 A    
C56   C76   1.393967 A    
C15   O35   1.345700 A    
C66   H12   1.112481 S    
Cr10  O50   2.031291 S    
C67   H9    1.113545 S    
C47   C63   1.401145 A    
O40   C20   1.306668 A    
O43   Cr11  2.073853 S    
C48   C64   1.410629 A    
O37   Cr5   1.974141 S    
N31   O73   1.297001 A    
C67   N31   1.461919 S    
C141  N25   1.157004 T    
O39   Cr7   1.974141 S    
C13   C96   1.428442 S    
O45   Cr9   1.976350 S    
C142  N26   1.147066 T    
C13   O33   1.286831 A    
O13   Cr5   1.961952 S    
C62   C142  1.414175 S    
O15   Cr7   1.961952 S    
C61   C141  1.443343 S    
O23   C11   1.321138 A    
C43   C139  1.439263 S    
C101  C117  1.497339 S    
C106  N2    1.463735 S    
C65   C69   1.525047 S    
N4    O59   1.299556 A    
C117  C133  1.473055 S    
C52   C68   1.503822 S    
C68   C72   1.521940 S    
C25   C34   1.389379 A    
O6    C2    1.301364 A    
C71   H19   1.111977 S    
C31   C39   1.425828 A    
C71   H15   1.109761 S    
O1    Cr1   2.071337 S    
C40   H8    1.082406 S    
O19   Cr11  2.095338 S    
N1    O54   1.297647 A    
C41   C42   1.401987 A    
C135  N15   1.156414 T    
C15   C94   1.488930 S    
O45   C21   1.265951 A    
N2    O55   1.302952 A    
C54   C70   1.481000 S    
O47   C23   1.287435 A    
O13   C5    1.292557 A    
C89   H27   1.111661 S    
C6    O18   1.312514 A    
C28   C35   1.392735 A    
C35   C36   1.366527 A    
C53   C73   1.407545 A    
O36   Cr8   2.098975 S    
C18   C77   1.453305 S    
C113  C129  1.485225 S    
O38   Cr6   1.955150 S    
C115  C119  1.488029 S    
C87   C88   1.418123 A    
C81   C82   1.357681 A    
C85   C86   1.414124 A    
C119  C135  1.470450 S    
C100  C104  1.364608 A    
C54   C74   1.400546 A    
O1    C9    1.342525 A    
C38   C44   1.379255 A    
C89   C90   1.499252 S    
O7    C3    1.296445 A    
C38   H6    1.081099 S    
C125  N5    1.157429 T    
C59   C63   1.417325 A    
C5    C26   1.458613 S    
C81   C89   1.480570 S    
O23   Cr11  1.953657 S    
C7    C28   1.457065 S    
C45   C49   1.385501 A    
C104  C120  1.503562 S    
C17   C78   1.446826 S    
C116  C120  1.503682 S    
C26   C33   1.393394 A    
O33   Cr5   2.078645 S    
C7    O19   1.285758 A    
C137  N17   1.155727 T    
Cr4   O52   2.022942 S    
O2    Cr2   2.103767 S    
O14   Cr6   1.978272 S    
Cr6   O50   2.033162 S    
N3    O58   1.300351 A    
C115  C131  1.496531 S    
C95   C99   1.378594 A    
O9    Cr5   2.097495 S    
C60   C76   1.388711 A    
O16   C8    1.281464 A    
C66   N30   1.466256 S    
O7    Cr3   1.989748 S    
C114  C118  1.488612 S    
C107  C111  1.430987 A    
C50   C54   1.379898 A    
C79   C83   1.362056 A    
C99   C115  1.485930 S    
C56   C72   1.479401 S    
C97   C113  1.484824 S    
C31   C32   1.415423 A    
N21   O61   1.298324 A    
C11   C75   1.521963 S    
Cr2   O50   2.022942 S    
N31   O74   1.302370 A    
C39   H7    1.075873 S    
C9    C73   1.520923 S    
C77   C86   1.411800 A    
C41   C137  1.439568 S    
N22   O64   1.299965 A    
O21   Cr9   1.953657 S    
C6    C25   1.470945 S    
C132  N12   1.157343 T    
C68   H10   1.112187 S    
C114  C130  1.495460 S    
C27   C36   1.391499 A    
O38   C18   1.288388 A    
O25   Cr1   2.109423 S    
N32   O75   1.300428 A    
C128  N8    1.157589 T    
C14   O34   1.344855 A    
C107  C123  1.430416 A    
C65   N29   1.462194 S    
C112  C128  1.451396 S    
C105  C121  1.457969 A    
N29   O70   1.302366 A    
C90   H30   1.113570 S    
C97   C101  1.366675 A    
O10   Cr6   2.074217 S    
C118  H38   1.087365 S    
O4    Cr4   2.103767 S    
C94   C98   1.376267 A    
C106  C110  1.427710 A    
C65   H11   1.113710 S    
C80   C87   1.409213 A    
C48   C52   1.392432 A    
C55   C75   1.406531 A    
