data_mof_unit_41050.cif
_audit_creation_date              2012-10-26T21:21:56-0400
_audit_creation_method            fapswitch 2.2
_symmetry_space_group_name_H-M    P1
_symmetry_Int_Tables_number       1
_space_group_crystal_system       triclinic
_cell_length_a                    18.127203
_cell_length_b                    18.74676
_cell_length_c                    11.792586
_cell_angle_alpha                 90.447993
_cell_angle_beta                  76.048859
_cell_angle_gamma                 90.173118
_cell_volume                      3889.09708407

loop_
_atom_site_label
_atom_site_type_symbol
_atom_type_description
_atom_site_fract_x
_atom_site_fract_y
_atom_site_fract_z
_atom_type_partial_charge
C1    C     C_R   0.399807 0.100076 0.521546 0.626772
C2    C     C_R   0.464059 0.991874 0.036883 -0.034598
C3    C     C_R   0.037405 0.495820 0.962071 -0.033536
C4    C     C_R   0.964059 0.491874 0.036883 -0.034597
C5    C     C_R   0.411175 0.987369 0.863340 0.009076
C6    C     C_R   0.589932 0.995138 0.136327 0.005524
C7    C     C_R   0.911175 0.487370 0.863340 0.009074
C8    C     C_R   0.089932 0.495138 0.136327 0.005525
C9    C     C_R   0.401015 0.981466 0.984992 0.023155
C10   C     C_R   0.601137 0.992489 0.014077 0.028240
C11   C     C_R   0.901015 0.481467 0.984992 0.023155
C12   C     C_R   0.600849 0.900406 0.478516 0.625533
C13   C     C_R   0.101137 0.492489 0.014077 0.028240
C14   C     C_R   0.543772 0.004216 0.838907 0.218217
C15   C     C_R   0.456357 0.000010 0.160467 0.220728
C16   C     C_R   0.043772 0.504216 0.838906 0.218217
C17   C     C_R   0.956357 0.500010 0.160467 0.220728
C18   C     C_R   0.660784 0.152244 0.468208 0.012185
C19   C     C_R   0.337758 0.849295 0.531872 0.031779
C20   C     C_R   0.342084 0.155684 0.534685 0.010932
C21   C     C_R   0.660303 0.846348 0.466722 0.021874
C22   C     C_R   0.160784 0.652244 0.468208 0.012185
C23   C     C_R   0.600879 0.099222 0.479109 0.628861
C24   C     C_R   0.837758 0.349295 0.531872 0.031777
C25   C     C_R   0.842084 0.655684 0.534685 0.010933
C26   C     C_R   0.160303 0.346348 0.466722 0.021874
C27   C     C_R   0.205399 0.820608 0.607630 -0.078538
C28   C     C_R   0.792505 0.182382 0.389581 -0.083034
C29   C     C_R   0.787444 0.808335 0.371673 -0.081359
C30   C     C_R   0.216993 0.196800 0.634122 -0.081804
C31   C     C_R   0.705399 0.320609 0.607629 -0.078536
C32   C     C_R   0.292505 0.682382 0.389581 -0.083034
C33   C     C_R   0.287444 0.308335 0.371674 -0.081359
C34   C     C_R   0.398584 0.901326 0.521046 0.631631
C35   C     C_R   0.716993 0.696800 0.634122 -0.081804
C36   C     C_R   0.267450 0.864417 0.608992 0.239146
C37   C     C_R   0.730591 0.138606 0.388845 0.229035
C38   C     C_R   0.724457 0.850458 0.372223 0.244600
C39   C     C_R   0.278563 0.152347 0.630359 0.240809
C40   C     C_R   0.767450 0.364416 0.608992 0.239146
C41   C     C_R   0.230591 0.638606 0.388846 0.229034
C42   C     C_R   0.224457 0.350459 0.372223 0.244600
C43   C     C_R   0.778563 0.652347 0.630359 0.240809
C44   C     C_R   0.346883 0.789821 0.455715 0.023786
C45   C     C_R   0.899807 0.600076 0.521546 0.626772
C46   C     C_R   0.651562 0.211624 0.544879 0.008935
C47   C     C_R   0.656980 0.795255 0.555548 0.026911
C48   C     C_R   0.347241 0.208726 0.448409 0.008484
C49   C     C_R   0.846883 0.289821 0.455715 0.023786
C50   C     C_R   0.151562 0.711624 0.544880 0.008936
C51   C     C_R   0.156980 0.295255 0.555548 0.026911
C52   C     C_R   0.847241 0.708725 0.448409 0.008484
C53   C     C_R   0.284711 0.743571 0.460575 -0.047545
C54   C     C_R   0.713538 0.258500 0.538636 -0.048982
C55   C     C_R   0.719267 0.749069 0.548957 -0.049394
C56   C     C_R   0.100849 0.400406 0.478516 0.625533
C57   C     C_R   0.285146 0.255421 0.455718 -0.054685
C58   C     C_R   0.784711 0.243571 0.460575 -0.047545
C59   C     C_R   0.213538 0.758500 0.538637 -0.048981
C60   C     C_R   0.219268 0.249069 0.548957 -0.049394
C61   C     C_R   0.785146 0.755420 0.455717 -0.054685
C62   C     C_2   0.381170 0.021834 0.233037 0.643201
C63   C     C_2   0.617268 0.027853 0.764716 0.646015
C64   C     C_2   0.881170 0.521834 0.233038 0.643202
C65   C     C_2   0.117268 0.527852 0.764716 0.646015
C66   C     C_2   0.578351 0.222618 0.633881 0.593606
C67   C     C_R   0.100879 0.599222 0.479109 0.628861
C68   C     C_2   0.420742 0.777983 0.369213 0.585398
C69   C     C_2   0.417626 0.215122 0.352117 0.596675
C70   C     C_2   0.588559 0.790641 0.654989 0.593460
C71   C     C_2   0.078351 0.722618 0.633881 0.593606
C72   C     C_2   0.920742 0.277984 0.369212 0.585399
C73   C     C_2   0.917626 0.715122 0.352117 0.596675
C74   C     C_2   0.088559 0.290640 0.654988 0.593460
C75   C     C_3   0.755881 0.092339 0.204222 -0.054643
C76   C     C_3   0.228191 0.915772 0.791036 -0.062845
C77   C     C_3   0.281214 0.132337 0.818950 -0.085528
C78   C     C_R   0.898584 0.401326 0.521046 0.631630
C79   C     C_3   0.728528 0.867974 0.180339 -0.100343
C80   C     C_3   0.255881 0.592339 0.204222 -0.054642
C81   C     C_3   0.728197 0.415768 0.791038 -0.062846
C82   C     C_3   0.781213 0.632337 0.818950 -0.085527
C83   C     C_3   0.228530 0.367975 0.180338 -0.100343
C84   C     C_2   0.326771 0.953452 0.051079 0.559827
C85   C     C_2   0.679166 0.976322 0.946735 0.545597
C86   C     C_2   0.826771 0.453453 0.051079 0.559824
C87   C     C_2   0.179166 0.476322 0.946735 0.545597
C88   C     C_R   0.537405 0.995820 0.962071 -0.033536
Cu1   Cu    Cu3+1 0.507800 0.000000 0.383250 1.092509
Cu2   Cu    Cu3+1 0.492200 0.000000 0.616750 1.092892
Cu3   Cu    Cu3+1 0.007800 0.500000 0.383250 1.092510
Cu4   Cu    Cu3+1 0.992200 0.500000 0.616750 1.092891
H1    H     H_    0.637857 0.992157 0.175450 0.158995
H2    H     H_    0.847134 0.166570 0.335681 0.169778
H3    H     H_    0.838160 0.818608 0.304121 0.178845
H4    H     H_    0.166990 0.188509 0.704160 0.172595
H5    H     H_    0.297040 0.094791 0.260822 0.345389
H6    H     H_    0.695568 0.106297 0.727736 0.346488
H7    H     H_    0.797040 0.594791 0.260822 0.345389
H8    H     H_    0.195568 0.606296 0.727736 0.346489
H9    H     H_    0.464046 0.229181 0.668523 0.332916
H10   H     H_    0.534333 0.766161 0.340328 0.336031
H11   H     H_    0.531962 0.223326 0.306287 0.341628
H12   H     H_    0.363725 0.979261 0.824272 0.159285
H13   H     H_    0.475086 0.776770 0.707462 0.344646
H14   H     H_    0.964046 0.729181 0.668524 0.332916
H15   H     H_    0.034333 0.266161 0.340327 0.336031
H16   H     H_    0.031962 0.723326 0.306287 0.341628
H17   H     H_    0.975085 0.276770 0.707461 0.344645
H18   H     H_    0.808484 0.124545 0.174440 0.134343
H19   H     H_    0.706558 0.120078 0.183547 0.136769
H20   H     H_    0.765127 0.041707 0.153865 0.191941
H21   H     H_    0.263174 0.876248 0.824946 0.126380
H22   H     H_    0.167745 0.898881 0.810556 0.136931
H23   H     H_    0.137857 0.492157 0.175450 0.158995
H24   H     H_    0.229470 0.966629 0.838877 0.195622
H25   H     H_    0.233407 0.169258 0.855943 0.134648
H26   H     H_    0.336587 0.160847 0.806001 0.131334
H27   H     H_    0.280383 0.090146 0.884453 0.173956
H28   H     H_    0.671423 0.844859 0.183863 0.138890
H29   H     H_    0.773007 0.826181 0.154733 0.132568
H30   H     H_    0.740866 0.908273 0.110306 0.160242
H31   H     H_    0.308484 0.624545 0.174440 0.134344
H32   H     H_    0.206558 0.620079 0.183547 0.136768
H33   H     H_    0.265126 0.541708 0.153864 0.191940
H34   H     H_    0.863725 0.479262 0.824272 0.159282
H35   H     H_    0.763189 0.376251 0.824943 0.126378
H36   H     H_    0.667753 0.398869 0.810564 0.136929
H37   H     H_    0.729470 0.466627 0.838878 0.195624
H38   H     H_    0.733407 0.669258 0.855943 0.134648
H39   H     H_    0.836587 0.660846 0.806001 0.131334
H40   H     H_    0.780383 0.590146 0.884453 0.173958
H41   H     H_    0.171426 0.344858 0.183862 0.138889
H42   H     H_    0.273011 0.326184 0.154732 0.132568
H43   H     H_    0.240867 0.408275 0.110307 0.160241
H44   H     H_    0.270707 0.879407 0.162834 0.356585
H45   H     H_    0.650149 0.337295 0.657785 0.163535
H46   H     H_    0.748736 0.907938 0.838673 0.353322
H47   H     H_    0.770706 0.379408 0.162834 0.356585
H48   H     H_    0.248736 0.407938 0.838673 0.353322
H49   H     H_    0.347134 0.666571 0.335681 0.169778
H50   H     H_    0.338160 0.318609 0.304123 0.178845
H51   H     H_    0.666990 0.688509 0.704160 0.172595
H52   H     H_    0.150149 0.837295 0.657787 0.163532
N1    N     N_R   0.519530 0.000000 0.207810 -0.284001
N2    N     N_R   0.480470 1.000000 0.792190 -0.285875
N3    N     N_R   0.019530 0.500000 0.207810 -0.284001
N4    N     N_R   0.980470 0.500000 0.792190 -0.285875
O1    O     O_R   0.430030 0.075530 0.417420 -0.490003
O2    O     O_R   0.583140 0.924490 0.385390 -0.485905
O3    O     O_R   0.583140 0.075510 0.385390 -0.485745
O4    O     O_R   0.416860 0.924490 0.614610 -0.495876
O5    O     O_R   0.916860 0.575510 0.614610 -0.473273
O6    O     O_R   0.083140 0.424490 0.385390 -0.485905
O7    O     O_R   0.083140 0.575510 0.385390 -0.485745
O8    O     O_R   0.916860 0.424490 0.614610 -0.495877
O9    O     O_2   0.344432 0.982493 0.307727 -0.465376
O10   O     O_R   0.349241 0.085747 0.207893 -0.663979
O11   O     O_2   0.656478 0.987201 0.693909 -0.461933
O12   O     O_R   0.569970 0.924470 0.582580 -0.462199
O13   O     O_R   0.644036 0.096109 0.781697 -0.654960
O14   O     O_2   0.844432 0.482493 0.307727 -0.465376
O15   O     O_R   0.849241 0.585747 0.207894 -0.663979
O16   O     O_2   0.156478 0.487200 0.693909 -0.461933
O17   O     O_R   0.144037 0.596109 0.781696 -0.654960
O18   O     O_2   0.578323 0.230755 0.736905 -0.487071
O19   O     O_R   0.509629 0.222090 0.600172 -0.654931
O20   O     O_2   0.422883 0.774937 0.264817 -0.484464
O21   O     O_R   0.487768 0.772696 0.407234 -0.661461
O22   O     O_2   0.413729 0.214057 0.250048 -0.488275
O23   O     O_R   0.569970 0.075530 0.582580 -0.491266
O24   O     O_R   0.488475 0.220600 0.378628 -0.647659
O25   O     O_2   0.594459 0.800926 0.754987 -0.476971
O26   O     O_R   0.517363 0.776985 0.633376 -0.652467
O27   O     O_2   0.078323 0.730755 0.736906 -0.487071
O28   O     O_R   0.009629 0.722090 0.600173 -0.654931
O29   O     O_2   0.922883 0.274937 0.264817 -0.484465
O30   O     O_R   0.987768 0.272696 0.407233 -0.661461
O31   O     O_2   0.913729 0.714057 0.250049 -0.488275
O32   O     O_R   0.988475 0.720600 0.378628 -0.647659
O33   O     O_2   0.094459 0.300925 0.754986 -0.476972
O34   O     O_R   0.430030 0.924470 0.417420 -0.461806
O35   O     O_R   0.017363 0.276985 0.633375 -0.652468
O36   O     O_3   0.741165 0.075890 0.324092 -0.532745
O37   O     O_3   0.257591 0.928456 0.670758 -0.534261
O38   O     O_3   0.272914 0.100024 0.714207 -0.535209
O39   O     O_3   0.729615 0.901957 0.287244 -0.535650
O40   O     O_3   0.241165 0.575891 0.324092 -0.532744
O41   O     O_3   0.757590 0.428455 0.670759 -0.534259
O42   O     O_3   0.772914 0.600024 0.714207 -0.535208
O43   O     O_3   0.229615 0.401958 0.287245 -0.535649
O44   O     O_2   0.267737 0.980918 0.040573 -0.548830
O45   O     O_R   0.930030 0.575530 0.417420 -0.490003
O46   O     O_R   0.324513 0.894023 0.122764 -0.638566
O47   O     O_2   0.731438 0.016513 0.952186 -0.535306
O48   O     O_R   0.693123 0.913720 0.879872 -0.646153
O49   O     O_2   0.767736 0.480920 0.040574 -0.548830
O50   O     O_R   0.824513 0.394023 0.122763 -0.638567
O51   O     O_2   0.231438 0.516513 0.952185 -0.535306
O52   O     O_R   0.193123 0.413720 0.879872 -0.646154
O53   O     O_R   0.069970 0.424470 0.582580 -0.462199
O54   O     O_R   0.069970 0.575530 0.582580 -0.491266
O55   O     O_R   0.930030 0.424470 0.417420 -0.461806
O56   O     O_R   0.416860 0.075510 0.614610 -0.473272

loop_
_geom_bond_atom_site_label_1
_geom_bond_atom_site_label_2
_ccdc_geom_bond_type
C10   C85   S    
C8    C13   A    
Cu4   N4    S    
C51   C74   S    
C87   O51   D    
C48   C69   S    
C25   C43   A    
Cu3   N3    S    
C53   C59   A    
H47   O50   S    
C48   C57   A    
C74   O33   D    
C31   C40   A    
C7    C11   A    
C79   H29   S    
C10   C88   A    
C75   H20   S    
C79   O39   S    
C66   O19   S    
C50   C59   A    
C72   O29   D    
C83   O43   S    
C17   N3    A    
C18   C37   A    
C46   C66   S    
C77   H25   S    
C52   C61   A    
C17   C64   S    
C54   C58   A    
Cu3   O45   S    
C22   C41   A    
C80   H33   S    
C11   C86   S    
C38   O39   S    
C65   O17   S    
C71   O28   S    
H16   O32   S    
C64   O14   D    
C67   O7    A    
C36   O37   S    
C55   C61   A    
H9    O19   S    
C47   C55   A    
C83   H42   S    
C30   H4    S    
C8    H23   S    
C76   H24   S    
C39   O38   S    
C44   C53   A    
C21   C38   A    
C43   O42   S    
C84   O46   S    
C75   H18   S    
C49   C72   S    
C30   C60   A    
Cu2   O23   S    
C76   H22   S    
C32   C41   A    
C62   O10   S    
C1    O1    A    
Cu4   O5    S    
C63   O11   D    
C82   H38   S    
C35   C43   A    
C83   H43   S    
C3    C13   A    
C22   C50   A    
C57   C60   A    
H17   O35   S    
H10   O21   S    
Cu1   O1    S    
C5    H12   S    
C31   C54   A    
C82   O42   S    
C77   O38   S    
C73   O32   S    
C13   C87   S    
C87   O52   S    
C64   O15   S    
C75   O36   S    
C18   C46   A    
C27   H52   S    
Cu2   O56   S    
C45   O45   A    
C79   H30   S    
C29   C61   A    
C66   O18   D    
C35   C55   A    
C18   C23   S    
Cu4   O53   S    
C12   O2    A    
C78   O55   A    
Cu3   O6    S    
Cu2   O4    S    
C77   H26   S    
C84   O44   D    
Cu3   Cu4   S    
C15   N1    A    
C20   C39   A    
C34   O4    A    
C85   O47   D    
C28   H2    S    
C74   O35   S    
C9    C84   S    
C37   O36   S    
C12   C21   S    
C49   C58   A    
C41   O40   S    
H8    O17   S    
C69   O24   S    
C29   C38   A    
Cu1   N1    S    
C50   C71   S    
C47   C70   S    
H44   O46   S    
C68   O21   S    
C81   H37   S    
C6    H1    S    
C79   H28   S    
C46   C54   A    
C76   H21   S    
C80   O40   S    
C62   O9    D    
C23   O23   A    
Cu4   O8    S    
C12   O12   A    
C4    C11   A    
C2    C88   A    
C2    C15   A    
C70   O26   S    
C81   O41   S    
C32   H49   S    
C20   C48   A    
C86   O50   S    
H7    O15   S    
C4    C17   A    
C68   O20   D    
C56   O6    A    
Cu1   O2    S    
C52   C73   S    
C72   O30   S    
H46   O48   S    
H13   O26   S    
H15   O30   S    
H11   O24   S    
C33   H50   S    
C44   C68   S    
C8    N3    A    
C31   H45   S    
Cu3   O7    S    
C33   C42   A    
C82   H40   S    
C3    C4    A    
Cu1   Cu2   S    
C25   C45   S    
C32   C53   A    
H6    O13   S    
Cu4   O54   S    
C19   C44   A    
C26   C42   A    
C29   H3    S    
C7    N4    A    
C80   H32   S    
C24   C78   S    
C24   C49   A    
C63   O13   S    
C23   O3    A    
C1    C20   S    
C33   C57   A    
C5    N2    A    
C5    C9    A    
C77   H27   S    
C19   C34   S    
C26   C56   S    
C42   O43   S    
C85   O48   S    
C56   O53   A    
C28   C58   A    
C27   C36   A    
C14   N2    A    
C75   H19   S    
C16   N4    A    
C19   C36   A    
Cu1   O34   S    
C51   C60   A    
H48   O52   S    
C25   C52   A    
C14   C88   A    
C81   H36   S    
C67   O54   A    
C27   C59   A    
C26   C51   A    
H5    O10   S    
C2    C9    A    
C78   O8    A    
C28   C37   A    
C14   C63   S    
C40   O41   S    
C65   O16   D    
C24   C40   A    
C15   C62   S    
C71   O27   D    
C30   C39   A    
C34   O34   A    
C69   O22   D    
C7    H34   S    
Cu2   O12   S    
C70   O25   D    
C22   C67   S    
C83   H41   S    
C6    C10   A    
C3    C16   A    
C86   O49   D    
C73   O31   D    
Cu1   O3    S    
C45   O5    A    
Cu2   N2    S    
C6    N1    A    
H14   O28   S    
C16   C65   S    
C82   H39   S    
C1    O56   A    
Cu3   O55   S    
C76   O37   S    
C81   H35   S    
C35   H51   S    
C21   C47   A    
C80   H31   S    
