data_mof_unit_35449.cif
_audit_creation_date              2012-10-26T19:11:55-0400
_audit_creation_method            fapswitch 2.2
_symmetry_space_group_name_H-M    P1
_symmetry_Int_Tables_number       1
_space_group_crystal_system       triclinic
_cell_length_a                    27.803678
_cell_length_b                    15.887987
_cell_length_c                    14.644712
_cell_angle_alpha                 90.007795
_cell_angle_beta                  90.049672
_cell_angle_gamma                 90.494539
_cell_volume                      6468.97713399

loop_
_atom_site_label
_atom_site_type_symbol
_atom_type_description
_atom_site_fract_x
_atom_site_fract_y
_atom_site_fract_z
_atom_type_partial_charge
C1    C     C_R   0.500011 0.339633 0.500040 0.529607
C2    C     C_R   0.872868 0.407812 0.505892 0.015787
C3    C     C_R   0.354444 0.496897 0.501000 0.002825
C4    C     C_R   0.645997 0.494060 0.500114 -0.002131
C5    C     C_R   0.975044 0.408280 0.505189 0.004665
C6    C     C_R   0.025691 0.558753 0.466575 -0.011562
C7    C     C_R   0.975243 0.560557 0.480810 -0.026053
C8    C     C_R   0.025734 0.412356 0.517916 -0.017398
C9    C     C_R   0.949682 0.484387 0.494920 -0.032068
C10   C     C_R   0.051202 0.486620 0.493905 -0.034066
C11   C     C_R   0.948795 0.331238 0.501366 0.236691
C12   C     C_R   0.499895 0.660383 0.500125 0.557855
C13   C     C_R   0.051465 0.625908 0.424788 0.294264
C14   C     C_R   0.898289 0.331020 0.505138 0.121482
C15   C     C_R   0.101666 0.629572 0.429893 0.119607
C16   C     C_R   0.407344 0.499382 0.500078 0.595930
C17   C     C_R   0.592837 0.499037 0.500005 0.581488
C18   C     C_R   0.051343 0.345863 0.557516 -0.112846
C19   C     C_R   0.950022 0.636610 0.484798 -0.110424
C20   C     C_3   0.534703 0.972453 0.555915 0.123625
C21   C     C_3   0.464634 0.027590 0.450452 0.130177
C22   C     C_3   0.543102 0.028180 0.470497 -0.113573
C23   C     C_R   0.102159 0.489002 0.498208 -0.116949
C24   C     C_3   0.456237 0.971871 0.535881 -0.113188
C25   C     C_1   0.500137 0.250348 0.500442 -0.029619
C26   C     C_1   0.499495 0.749697 0.500830 -0.004151
C27   C     C_3   0.493211 0.028175 0.587172 0.097796
C28   C     C_3   0.506132 0.972023 0.419201 0.101865
C29   C     C_3   0.500546 0.083829 0.502500 0.051966
C30   C     C_3   0.498801 0.916244 0.503730 0.049346
C31   C     C_1   0.500311 0.175086 0.501415 -0.034634
C32   C     C_1   0.499131 0.824963 0.502254 -0.020160
C33   C     C_3   0.504796 0.580622 0.968764 0.301596
C34   C     C_R   0.898745 0.484645 0.499320 -0.124024
C35   C     C_3   0.493486 0.423341 0.030111 0.214913
C36   C     C_3   0.462898 0.549804 0.030133 0.254335
C37   C     C_3   0.536045 0.454866 0.970387 0.223789
C38   C     C_3   0.540541 0.534084 0.030958 0.080763
C39   C     C_3   0.457789 0.471299 0.968176 0.020297
C40   C     C_R   0.177955 0.422709 0.536986 0.451324
C41   C     C_R   0.823256 0.560571 0.502959 0.454928
C42   C     C_3   0.498875 0.502683 0.092686 -0.040562
C43   C     C_3   0.500158 0.501662 0.907027 -0.046309
C44   C     C_1   0.499595 0.501190 0.194560 0.186678
C45   C     C_R   0.127392 0.418817 0.532978 0.027419
C46   C     C_1   0.500242 0.500454 0.805354 0.158333
C47   C     C_R   0.178479 0.561747 0.475286 0.378345
C48   C     C_R   0.822116 0.410485 0.509364 0.397787
C49   C     C_R   0.279224 0.542254 0.568135 -0.099062
C50   C     C_R   0.720475 0.459903 0.578919 -0.092539
C51   C     C_R   0.329473 0.543976 0.567108 0.200260
C52   C     C_R   0.670296 0.461332 0.577249 0.193645
C53   C     C_R   0.328857 0.445340 0.438527 0.029262
C54   C     C_R   0.673010 0.520281 0.423067 0.041067
C55   C     C_R   0.278113 0.444598 0.440249 0.303677
C56   C     C_R   0.873787 0.561992 0.497589 0.021405
C57   C     C_R   0.723383 0.513857 0.423856 0.295694
C58   C     C_R   0.253634 0.492519 0.506021 0.179894
C59   C     C_R   0.747094 0.486337 0.503232 0.167128
C60   C     C_3   0.390105 0.563087 0.105892 0.009523
C61   C     C_3   0.362783 0.626462 0.164189 -0.248186
C62   C     C_3   0.321040 0.584732 0.214770 -0.491234
C63   C     C_3   0.601291 0.369358 0.006228 0.011794
C64   C     C_3   0.654410 0.393648 0.996542 -0.258364
C65   C     C_3   0.684336 0.358022 0.074689 -0.489366
C66   C     C_3   0.475050 0.694217 0.886986 0.034866
C67   C     C_R   0.101548 0.346824 0.562310 0.252573
C68   C     C_3   0.494005 0.758812 0.818134 -0.260384
C69   C     C_3   0.454106 0.790700 0.755772 -0.488821
C70   C     C_3   0.487706 0.280494 0.995199 0.027371
C71   C     C_3   0.445023 0.219910 0.004754 -0.265233
C72   C     C_3   0.445977 0.151838 0.931176 -0.485624
C73   C     C_3   0.235881 0.440345 0.305876 0.005138
C74   C     C_3   0.185771 0.409023 0.278373 -0.248111
C75   C     C_3   0.164843 0.462066 0.201344 -0.490351
C76   C     C_3   0.765238 0.471762 0.297630 0.006171
C77   C     C_3   0.812580 0.494829 0.250547 -0.248526
C78   C     C_R   0.899941 0.638262 0.490107 0.261240
C79   C     C_3   0.832372 0.420814 0.196332 -0.487600
C80   C     C_3   0.118525 0.206793 0.546457 0.023798
C81   C     C_3   0.156473 0.141831 0.571607 -0.235984
C82   C     C_3   0.150430 0.061586 0.515279 -0.487651
C83   C     C_3   0.880949 0.757388 0.408147 0.031491
C84   C     C_3   0.904934 0.843434 0.422416 -0.261087
C85   C     C_3   0.909667 0.891587 0.332668 -0.480183
C86   C     C_3   0.635128 0.347583 0.644378 0.014270
C87   C     C_3   0.603299 0.319399 0.723957 -0.230568
C88   C     C_3   0.590047 0.226187 0.717095 -0.478921
C89   C     C_R   0.127731 0.561630 0.468476 -0.021329
C90   C     C_3   0.351702 0.569873 0.716299 0.022558
C91   C     C_3   0.333255 0.640973 0.776898 -0.276575
C92   C     C_3   0.334946 0.616812 0.877653 -0.480962
C93   C     C_3   0.984476 0.245252 0.397511 -0.005787
C94   C     C_3   0.001642 0.155284 0.382036 -0.255994
C95   C     C_3   0.017315 0.141663 0.283367 -0.486790
C96   C     C_3   0.010689 0.656830 0.292239 0.007191
C97   C     C_3   0.050251 0.655042 0.219363 -0.258632
C98   C     C_3   0.030087 0.628679 0.126665 -0.487986
Cu1   Cu    Cu3+1 0.500010 0.500000 0.590220 1.003547
Cu2   Cu    Cu3+1 0.499990 0.500000 0.409780 1.029943
H1    H     H_    0.738873 0.437989 0.639543 0.157276
H2    H     H_    0.657527 0.517890 0.287938 0.229168
H3    H     H_    0.972013 0.110417 0.398629 0.169194
H4    H     H_    0.986818 0.153155 0.236059 0.147715
H5    H     H_    0.029411 0.075743 0.274491 0.151813
H6    H     H_    0.047626 0.184747 0.265954 0.144153
H7    H     H_    0.981894 0.699791 0.268778 0.140066
H8    H     H_    0.993614 0.593412 0.298981 0.115742
H9    H     H_    0.067012 0.718559 0.213348 0.188350
H10   H     H_    0.078459 0.609575 0.239552 0.154874
H11   H     H_    0.013730 0.564760 0.130974 0.145358
H12   H     H_    0.059583 0.627496 0.075623 0.151800
H13   H     H_    0.589443 0.993598 0.644919 0.242086
H14   H     H_    0.002466 0.674053 0.103476 0.149421
H15   H     H_    0.556204 0.907507 0.667963 0.228836
H16   H     H_    0.409658 0.006484 0.361928 0.245475
H17   H     H_    0.443031 0.092280 0.338288 0.232804
H18   H     H_    0.517274 0.992496 0.284110 0.223887
H19   H     H_    0.543528 0.905662 0.325069 0.243334
H20   H     H_    0.482007 0.008118 0.722394 0.220896
H21   H     H_    0.456073 0.095180 0.681231 0.233426
H22   H     H_    0.404026 0.512741 0.151520 0.146671
H23   H     H_    0.259914 0.580352 0.616994 0.143607
H24   H     H_    0.364766 0.534610 0.055769 0.151723
H25   H     H_    0.387814 0.655266 0.214778 0.191821
H26   H     H_    0.348562 0.677241 0.119736 0.170564
H27   H     H_    0.294863 0.557624 0.165294 0.130275
H28   H     H_    0.302354 0.632147 0.257317 0.165657
H29   H     H_    0.334537 0.534173 0.260083 0.179612
H30   H     H_    0.598213 0.300037 0.998602 0.135572
H31   H     H_    0.588671 0.385013 0.076471 0.141916
H32   H     H_    0.668407 0.369208 0.930714 0.171799
H33   H     H_    0.658461 0.463164 0.996017 0.172731
H34   H     H_    0.032744 0.293640 0.589198 0.179381
H35   H     H_    0.671761 0.383457 0.141102 0.137782
H36   H     H_    0.722646 0.376255 0.065279 0.145966
H37   H     H_    0.681550 0.288244 0.075778 0.152003
H38   H     H_    0.449182 0.725347 0.933647 0.179462
H39   H     H_    0.455444 0.644067 0.848576 0.119526
H40   H     H_    0.510327 0.812965 0.855334 0.172947
H41   H     H_    0.522320 0.729444 0.775388 0.194835
H42   H     H_    0.468906 0.839337 0.708899 0.146101
H43   H     H_    0.424832 0.819113 0.796761 0.140077
H44   H     H_    0.439250 0.738146 0.714072 0.180317
H45   H     H_    0.968867 0.696212 0.487188 0.175788
H46   H     H_    0.521248 0.243990 0.003556 0.140819
H47   H     H_    0.487719 0.306990 0.924628 0.141580
H48   H     H_    0.446079 0.189594 0.073131 0.178409
H49   H     H_    0.410912 0.255373 0.998922 0.163243
H50   H     H_    0.443858 0.180694 0.862198 0.152843
H51   H     H_    0.414718 0.108680 0.940162 0.151350
H52   H     H_    0.479525 0.114661 0.936408 0.152988
H53   H     H_    0.395047 0.407165 0.987381 0.234623
H54   H     H_    0.420091 0.392371 0.884471 0.227206
H55   H     H_    0.607310 0.582665 0.008367 0.256110
H56   H     H_    0.578369 0.050495 0.444036 0.112565
H57   H     H_    0.601567 0.530451 0.108120 0.212495
H58   H     H_    0.260900 0.430204 0.247879 0.127866
H59   H     H_    0.234015 0.509533 0.318918 0.154332
H60   H     H_    0.187849 0.342324 0.255925 0.169079
H61   H     H_    0.161281 0.412153 0.338100 0.171816
H62   H     H_    0.161151 0.528543 0.223659 0.146604
H63   H     H_    0.128678 0.437358 0.182631 0.144780
H64   H     H_    0.188439 0.459525 0.140254 0.148913
H65   H     H_    0.737675 0.456825 0.244906 0.123700
H66   H     H_    0.771160 0.413942 0.339325 0.152211
H67   H     H_    0.421017 0.949480 0.562499 0.114251
H68   H     H_    0.806750 0.548843 0.203714 0.173489
H69   H     H_    0.839537 0.514049 0.302810 0.168148
H70   H     H_    0.839831 0.367015 0.242545 0.154081
H71   H     H_    0.866477 0.439977 0.162520 0.143776
H72   H     H_    0.806236 0.400679 0.143089 0.147488
H73   H     H_    0.122219 0.221527 0.472171 0.127043
H74   H     H_    0.082372 0.178897 0.559584 0.128769
H75   H     H_    0.192904 0.168845 0.559238 0.210036
H76   H     H_    0.153324 0.125993 0.645308 0.175874
H77   H     H_    0.114475 0.032774 0.527670 0.150938
H78   H     H_    0.331838 0.362843 0.329514 0.261100
H79   H     H_    0.178440 0.015668 0.535147 0.158715
H80   H     H_    0.154342 0.075739 0.441355 0.153196
H81   H     H_    0.844015 0.767030 0.381284 0.181351
H82   H     H_    0.900895 0.721872 0.354448 0.096826
H83   H     H_    0.883184 0.881005 0.471028 0.184258
H84   H     H_    0.941329 0.835085 0.452203 0.174027
H85   H     H_    0.932338 0.856046 0.283837 0.150476
H86   H     H_    0.926908 0.953783 0.345554 0.148340
H87   H     H_    0.873642 0.901876 0.301991 0.151343
H88   H     H_    0.669075 0.310812 0.645779 0.137383
H89   H     H_    0.371623 0.346022 0.413392 0.237955
H90   H     H_    0.615538 0.334333 0.579341 0.123060
H91   H     H_    0.622654 0.330689 0.789229 0.193974
H92   H     H_    0.569788 0.357023 0.724400 0.216395
H93   H     H_    0.570232 0.213353 0.652677 0.170130
H94   H     H_    0.566643 0.208269 0.775490 0.160950
H95   H     H_    0.622964 0.187114 0.719093 0.147324
H96   H     H_    0.388676 0.553341 0.738512 0.174002
H97   H     H_    0.328681 0.512665 0.726950 0.123502
H98   H     H_    0.355677 0.698335 0.766272 0.171807
H99   H     H_    0.295596 0.655772 0.757672 0.165806
H100  H     H_    0.663407 0.615570 0.333248 0.267854
H101  H     H_    0.312235 0.560188 0.890478 0.155628
H102  H     H_    0.321328 0.669546 0.919833 0.147264
H103  H     H_    0.372504 0.603612 0.898449 0.192181
H104  H     H_    0.881338 0.218483 0.447318 0.235032
H105  H     H_    0.885293 0.217170 0.562873 0.254482
H106  H     H_    0.143281 0.735056 0.443450 0.272102
H107  H     H_    0.147730 0.684942 0.339357 0.247983
H108  H     H_    0.014203 0.289677 0.379715 0.135753
H109  H     H_    0.953259 0.256905 0.351387 0.124235
H110  H     H_    0.032461 0.142059 0.427972 0.158313
N1    N     N_R   0.202007 0.492733 0.507478 -0.386868
N2    N     N_3   0.487645 0.060006 0.679775 -0.645476
N3    N     N_3   0.412323 0.438011 0.933486 -0.662520
N4    N     N_3   0.584757 0.573048 0.064474 -0.577487
N5    N     N_3   0.873124 0.251748 0.506800 -0.540663
N6    N     N_3   0.124631 0.702879 0.392032 -0.574685
N7    N     N_R   0.798767 0.485779 0.506711 -0.400622
N8    N     N_1   0.499980 0.500000 0.274190 -0.183422
N9    N     N_1   0.500020 0.500000 0.725810 -0.205234
N10   N     N_3   0.354878 0.393209 0.375449 -0.610662
N11   N     N_3   0.649487 0.555142 0.344661 -0.580174
N12   N     N_3   0.572673 0.941256 0.615132 -0.609405
N13   N     N_3   0.426607 0.058808 0.391369 -0.615417
N14   N     N_3   0.511806 0.940428 0.326551 -0.617042
O1    O     O_R   0.500010 0.379080 0.576170 -0.512522
O2    O     O_2   0.798394 0.633128 0.504018 -0.410349
O3    O     O_2   0.795925 0.338736 0.513795 -0.483826
O4    O     O_2   0.204690 0.629285 0.449119 -0.540916
O5    O     O_3   0.427079 0.606239 0.058967 -0.575317
O6    O     O_3   0.574545 0.407291 0.935220 -0.584044
O7    O     O_3   0.514173 0.663547 0.938554 -0.535045
O8    O     O_3   0.485815 0.341605 0.065459 -0.573866
O9    O     O_3   0.252136 0.393070 0.381649 -0.551948
O10   O     O_3   0.749724 0.541626 0.349430 -0.547264
O11   O     O_3   0.125239 0.279275 0.601238 -0.521673
O12   O     O_R   0.499990 0.620920 0.423830 -0.483950
O13   O     O_3   0.876970 0.715284 0.493269 -0.519199
O14   O     O_3   0.645377 0.434415 0.653684 -0.535905
O15   O     O_3   0.354256 0.598327 0.624671 -0.558432
O16   O     O_3   0.971473 0.254658 0.490227 -0.602314
O17   O     O_3   0.028559 0.688938 0.376117 -0.567146
O18   O     O_R   0.500000 0.379080 0.423800 -0.491279
O19   O     O_R   0.500000 0.620920 0.576200 -0.496532
O20   O     O_R   0.430270 0.500020 0.576180 -0.484970
O21   O     O_R   0.569730 0.499980 0.423820 -0.473399
O22   O     O_R   0.430260 0.500010 0.423810 -0.477336
O23   O     O_R   0.569740 0.499990 0.576190 -0.450961
O24   O     O_2   0.203293 0.357186 0.569604 -0.431534

loop_
_geom_bond_atom_site_label_1
_geom_bond_atom_site_label_2
_ccdc_geom_bond_type
H20   N2    S    
C66   C68   S    
C87   C88   S    
C83   O13   S    
C34   C56   A    
C93   C94   S    
C23   C45   A    
C22   C29   S    
C47   N1    A    
C27   C29   S    
C73   C74   S    
C92   H101  S    
H15   N12   S    
C36   C42   S    
C88   H95   S    
C24   C27   S    
H53   N3    S    
C57   O10   S    
Cu2   O18   S    
C90   H97   S    
C20   C30   S    
C58   N1    S    
C98   H11   S    
C69   H44   S    
C26   C32   T    
H104  N5    S    
C67   O11   S    
H57   N4    S    
C19   H45   S    
C90   O15   S    
C4    C52   A    
C75   H62   S    
C50   C59   A    
C81   H75   S    
C79   H70   S    
H78   N10   S    
C35   C37   S    
C55   O9    S    
C80   H73   S    
C38   C42   S    
C62   H27   S    
C8    C10   A    
C11   C14   A    
C98   H14   S    
C17   O23   A    
C93   O16   S    
H106  N6    S    
C49   H23   S    
C33   C36   S    
C56   C78   A    
C25   C31   T    
C83   H81   S    
C75   H63   S    
C35   O8    S    
C63   H30   S    
C79   H71   S    
Cu1   O20   S    
C60   H24   S    
C35   C42   S    
H107  N6    S    
Cu2   O21   S    
C95   H5    S    
C64   H33   S    
C91   H98   S    
C13   O17   S    
C47   O4    S    
C64   H32   S    
C68   C69   S    
C49   C51   A    
C82   H79   S    
C45   C67   A    
C50   C52   A    
C85   H87   S    
C23   C89   A    
C76   H66   S    
C61   H26   S    
C70   H46   S    
C63   H31   S    
C19   C78   A    
C73   O9    S    
H89   N10   S    
C52   O14   S    
C65   H37   S    
C2    C34   A    
C53   N10   S    
C53   C55   A    
C71   H48   S    
C96   H8    S    
Cu2   N8    S    
C22   C28   S    
C1    C25   S    
C47   C89   A    
C62   H29   S    
C37   O6    S    
C42   C44   S    
C38   N4    S    
H54   N3    S    
H19   N14   S    
C40   O24   S    
C97   C98   S    
C70   O8    S    
C48   N7    A    
C77   C79   S    
C85   H85   S    
C40   C45   A    
C96   O17   S    
C86   H90   S    
C98   H12   S    
C74   C75   S    
C39   N3    S    
H18   N14   S    
C60   O5    S    
C33   C43   S    
C81   H76   S    
C88   H94   S    
C84   H84   S    
C24   H67   S    
C44   N8    T    
C76   C77   S    
C18   C67   A    
C76   O10   S    
C59   N7    S    
C91   C92   S    
C48   O3    S    
C3    C51   A    
C86   C87   S    
C36   O5    S    
C54   N11   S    
C39   C43   S    
C72   H52   S    
C11   O16   S    
C21   C29   S    
C73   H58   S    
C36   C39   S    
C81   C82   S    
C49   C58   A    
C15   N6    S    
C83   H82   S    
C12   C26   S    
C75   H64   S    
C77   H68   S    
C79   H72   S    
C37   C43   S    
H55   N4    S    
C35   C39   S    
C41   C56   A    
C5    C9    A    
C37   C38   S    
C95   H6    S    
C15   C89   A    
C97   H9    S    
C83   C84   S    
C66   H38   S    
C17   O21   A    
C28   N14   S    
C12   O19   A    
C96   C97   S    
C8    C18   A    
C76   H65   S    
C65   H35   S    
C84   C85   S    
C60   H22   S    
H21   N2    S    
Cu1   O1    S    
C92   H103  S    
C63   O6    S    
C4    C17   S    
C16   O20   A    
C40   N1    A    
C21   C28   S    
Cu1   N9    S    
C94   H3    S    
C94   H110  S    
C78   O13   S    
C7    C19   A    
C13   C15   A    
C93   H109  S    
C9    C34   A    
C22   H56   S    
C21   C24   S    
H17   N13   S    
C5    C8    A    
H100  N11   S    
Cu1   O23   S    
C68   H40   S    
C70   C71   S    
C92   H102  S    
C95   H4    S    
C87   H91   S    
C1    O1    A    
C85   H86   S    
C12   O12   A    
C41   O2    S    
C30   C32   S    
C46   N9    T    
C21   N13   S    
C4    C54   A    
C88   H93   S    
C96   H7    S    
C84   H83   S    
C20   C22   S    
C80   C81   S    
C57   C59   A    
C6    C10   A    
C74   H61   S    
C41   N7    A    
C5    C11   A    
C6    C7    A    
C20   C27   S    
C16   O22   A    
C10   C23   A    
C69   H43   S    
C73   H59   S    
C72   H50   S    
C33   C38   S    
Cu1   Cu2   S    
C74   H60   S    
Cu2   O12   S    
C2    C48   A    
C64   C65   S    
H16   N13   S    
C28   C30   S    
C69   H42   S    
C80   H74   S    
C71   C72   S    
C29   C31   S    
C6    C13   A    
C62   H28   S    
C97   H10   S    
C3    C53   A    
C91   H99   S    
C90   C91   S    
C71   H49   S    
C66   O7    S    
C82   H77   S    
C27   N2    S    
C86   O14   S    
C14   N5    S    
C18   H34   S    
Cu1   O19   S    
C61   C62   S    
C2    C14   A    
C43   C46   S    
C24   C30   S    
H13   N12   S    
C65   H36   S    
Cu2   O22   S    
C1    O18   A    
C3    C16   S    
C63   C64   S    
C66   H39   S    
C7    C9    A    
C90   H96   S    
H105  N5    S    
C50   H1    S    
C77   H69   S    
C80   O11   S    
C55   C58   A    
C82   H80   S    
C72   H51   S    
C20   N12   S    
C60   C61   S    
C61   H25   S    
C70   H47   S    
C33   O7    S    
C93   H108  S    
C94   C95   S    
C86   H88   S    
C68   H41   S    
H2    N11   S    
C87   H92   S    
C54   C57   A    
C51   O15   S    
