data_mof_unit_44720.cif
_audit_creation_date              2012-12-10T20:28:44-0500
_audit_creation_method            fapswitch 2.2
_symmetry_space_group_name_H-M    P1
_symmetry_Int_Tables_number       1
_space_group_crystal_system       triclinic
_cell_length_a                    10.620037
_cell_length_b                    10.662566
_cell_length_c                    9.885777
_cell_angle_alpha                 89.997898
_cell_angle_beta                  90.360543
_cell_angle_gamma                 90.251798
_cell_volume                      1119.4012289

loop_
_atom_site_label
_atom_site_type_symbol
_atom_type_description
_atom_site_fract_x
_atom_site_fract_y
_atom_site_fract_z
_atom_type_partial_charge
C1    C     C_R   0.504481 0.259964 0.500058 0.844433
C2    C     C_R   0.547729 0.935388 0.378325 -0.223582
C3    C     C_R   0.527776 0.871344 0.500358 -0.104383
C4    C     C_R   0.260552 0.496924 0.499672 0.875616
C5    C     C_R   0.533922 0.936075 0.622582 0.120808
C6    C     C_3   0.451366 0.928224 0.744277 -0.458967
C7    C     C_3   0.450869 0.070356 0.744203 -0.492194
C8    C     C_R   0.435703 0.409817 0.070024 0.114561
C9    C     C_R   0.570924 0.583470 0.072434 -0.076732
C10   C     C_R   0.570343 0.583977 0.928564 -0.096531
C11   C     C_R   0.439292 0.407162 0.927904 0.135200
C12   C     C_R   0.065800 0.385680 0.558200 0.098023
C13   C     C_3   0.303603 0.373710 0.915829 -0.511974
C14   C     C_3   0.296701 0.383643 0.068832 0.211730
C15   C     C_R   0.504929 0.740017 0.499999 0.874170
C16   C     C_R   0.739433 0.497231 0.500331 0.857141
C17   C     C_R   0.130975 0.281638 0.612560 -0.195059
C18   C     C_R   0.065231 0.181118 0.668983 -0.136114
C19   C     C_R   0.934203 0.181808 0.670688 -0.119583
C20   C     C_R   0.868520 0.282963 0.615917 -0.171578
C21   C     C_R   0.933888 0.386247 0.559572 0.098737
C22   C     C_R   0.128266 0.488621 0.498825 -0.093525
C23   C     C_R   0.064308 0.587109 0.437652 -0.134942
C24   C     C_R   0.935671 0.587364 0.438285 -0.199259
C25   C     C_R   0.871641 0.489438 0.500716 -0.095882
C26   C     C_R   0.533616 0.064065 0.622619 0.127427
C27   C     C_R   0.527159 0.128799 0.500419 -0.100643
C28   C     C_R   0.547385 0.065060 0.378358 -0.217264
Cl1   Cl    Cl    0.202881 0.515026 0.117031 -0.594397
H1    H     H_    0.114363 0.664887 0.391601 0.169698
H2    H     H_    0.232523 0.276326 0.610342 0.137745
H3    H     H_    0.115992 0.101975 0.710400 0.132051
H4    H     H_    0.883225 0.103238 0.713407 0.136064
H5    H     H_    0.766852 0.278500 0.616754 0.143525
H6    H     H_    0.885711 0.665163 0.392318 0.148107
H7    H     H_    0.553110 0.114027 0.282539 0.170546
H8    H     H_    0.553678 0.886522 0.282490 0.170556
H9    H     H_    0.357514 0.886186 0.721665 0.209668
H10   H     H_    0.501335 0.887564 0.833071 0.201802
H11   H     H_    0.356823 0.110388 0.721189 0.192877
H12   H     H_    0.500187 0.112027 0.833083 0.203729
H13   H     H_    0.626441 0.652364 0.126985 0.131762
H14   H     H_    0.625079 0.653528 0.874814 0.137801
H15   H     H_    0.247986 0.445378 0.860202 0.261468
H16   H     H_    0.289814 0.276322 0.878671 0.158397
H17   H     H_    0.271560 0.293986 0.119470 0.110567
N1    N     N_R   0.499160 0.499140 0.142800 -0.083485
N2    N     N_R   0.499160 0.499180 0.857150 -0.088716
O1    O     O_R   0.500020 0.316790 0.614690 -0.625600
O2    O     O_R   0.500000 0.316760 0.385350 -0.628458
O3    O     O_R   0.316770 0.500020 0.614690 -0.629896
O4    O     O_R   0.316760 0.499980 0.385350 -0.551690
O5    O     O_R   0.500000 0.683240 0.614650 -0.618102
O6    O     O_R   0.499980 0.683210 0.385310 -0.617927
O7    O     O_R   0.683240 0.500020 0.614650 -0.621979
O8    O     O_R   0.683230 0.499980 0.385310 -0.614872
Zn1   Zn    Zn3+2 0.500010 0.500020 0.653130 0.946211
Zn2   Zn    Zn3+2 0.499990 0.499980 0.346870 0.982914

loop_
_geom_bond_atom_site_label_1
_geom_bond_atom_site_label_2
_ccdc_geom_bond_type
C12   C17   A    
C2    C28   A    
C23   C24   A    
C6    H9    S    
C6    C7    S    
O3    Zn1   S    
C4    C22   S    
C9    C10   A    
C19   C20   A    
C7    H11   S    
C20   H5    S    
C16   O8    A    
C17   C18   A    
C9    H13   S    
C16   O7    A    
O1    Zn1   S    
N2    Zn1   S    
C14   H17   S    
C13   C14   S    
C24   C25   A    
N1    Zn2   S    
C13   H16   S    
C11   C13   S    
C2    H8    S    
C11   N2    A    
C7    C26   S    
O4    Zn2   S    
C4    O4    A    
C8    C11   A    
C15   O5    A    
O8    Zn2   S    
C9    N1    A    
C10   N2    A    
C2    C3    A    
O7    Zn1   S    
C26   C27   A    
C5    C6    S    
C17   H2    S    
C8    N1    A    
C24   H6    S    
C18   H3    S    
C4    O3    A    
C5    C26   A    
O2    Zn2   S    
C23   H1    S    
C12   C22   A    
C16   C25   S    
C3    C15   S    
C20   C21   A    
C28   H7    S    
C15   O6    A    
C1    O2    A    
O6    Zn2   S    
C27   C28   A    
C1    C27   S    
C21   C25   A    
C6    H10   S    
C18   C19   A    
C8    C14   S    
C14   Cl1   S    
C10   H14   S    
C22   C23   A    
C1    O1    A    
C12   C21   A    
C13   H15   S    
C7    H12   S    
C19   H4    S    
C3    C5    A    
O5    Zn1   S    
