data_mof_unit_33954.cif
_audit_creation_date              2013-03-05T15:48:54-0500
_audit_creation_method            fapswitch 2.2
_symmetry_space_group_name_H-M    P1
_symmetry_Int_Tables_number       1
_space_group_crystal_system       triclinic
_cell_length_a                    15.942749
_cell_length_b                    13.034603
_cell_length_c                    11.686911
_cell_angle_alpha                 99.977974
_cell_angle_beta                  93.211088
_cell_angle_gamma                 90.752747
_cell_volume                      2387.4924055

loop_
_atom_site_label
_atom_site_type_symbol
_atom_site_description
_atom_site_fract_x
_atom_site_fract_y
_atom_site_fract_z
_atom_type_partial_charge
O1    O     O_R   0.504390 0.354460 0.582000 -0.554839
O2    O     O_R   0.493940 0.341410 0.386200 -0.587812
C1    C     C_R   0.498660 0.299588 0.478583 0.868046
O3    O     O_R   0.384660 0.506540 0.597940 -0.583400
O4    O     O_R   0.374210 0.493480 0.402140 -0.563568
C2    C     C_R   0.340462 0.499421 0.500657 0.813878
Cu1   Cu    Cu3+1 0.506190 0.507730 0.615930 1.088928
Cu2   Cu    Cu3+1 0.493810 0.492270 0.384070 1.062455
O5    O     O_R   0.506060 0.658590 0.613800 -0.533416
O6    O     O_R   0.495610 0.645540 0.418000 -0.549011
O7    O     O_R   0.625790 0.506520 0.597860 -0.545569
O8    O     O_R   0.615340 0.493460 0.402060 -0.589649
C3    C     C_R   0.502791 0.700863 0.521422 0.898394
C4    C     C_R   0.659563 0.499723 0.499099 0.863409
C5    C     C_3   0.052791 0.476055 0.616925 0.022786
C6    C     C_3   0.045988 0.416092 0.384587 0.361822
C7    C     C_3   0.944502 0.403047 0.403578 0.272756
C8    C     C_1   0.748596 0.501380 0.497792 0.094733
C9    C     C_3   0.083773 0.500331 0.494778 -0.391862
C10   C     C_3   0.953924 0.493024 0.629690 0.378511
C11   C     C_3   0.916373 0.503900 0.499010 -0.418070
C12   C     C_3   0.950183 0.613729 0.463892 0.275095
C13   C     C_3   0.053432 0.619805 0.487715 0.261664
C14   C     C_1   0.823955 0.502874 0.498605 0.317666
C15   C     C_1   0.176160 0.498263 0.499577 0.326558
C16   C     C_1   0.251482 0.498566 0.501354 0.085094
H1    H     H_    0.084279 0.539995 0.678158 0.212189
C17   C     C_R   0.510668 0.814242 0.532347 -0.277383
C18   C     C_R   0.495134 0.186912 0.466461 -0.192926
C19   C     C_R   0.429240 0.023025 0.373179 0.375293
C20   C     C_R   0.440062 0.130155 0.381146 -0.254737
C21   C     C_R   0.543589 0.136785 0.542876 0.324998
C22   C     C_R   0.532823 0.028892 0.537136 -0.099663
C23   C     C_R   0.472814 0.971398 0.455307 -0.080111
C24   C     C_R   0.458010 0.864930 0.459244 0.259751
C25   C     C_R   0.572789 0.871953 0.609591 0.363907
C26   C     C_R   0.581600 0.978173 0.612246 -0.104587
H2    H     H_    0.628413 0.021153 0.673004 0.248454
H3    H     H_    0.405017 0.169490 0.319961 0.208766
N1    N     N_R   0.515490 0.519350 0.790130 -0.238013
N2    N     N_R   0.484510 0.480650 0.209890 -0.232206
C27   C     C_R   0.403384 0.428859 0.027928 0.257893
C28   C     C_R   0.416676 0.430193 0.148283 0.079857
C29   C     C_R   0.542990 0.528709 0.154843 0.144819
C30   C     C_R   0.535159 0.527098 0.032677 -0.110641
C31   C     C_R   0.463885 0.476522 0.968336 -0.100030
C32   C     C_R   0.456458 0.472938 0.845888 0.120227
C33   C     C_R   0.584148 0.568150 0.851317 0.127100
C34   C     C_R   0.595978 0.573820 0.972486 0.298720
H4    H     H_    0.404776 0.430870 0.793794 0.179887
H5    H     H_    0.631114 0.601478 0.804945 0.227456
H6    H     H_    0.370493 0.393874 0.193704 0.179747
H7    H     H_    0.595259 0.568746 0.207326 0.196782
S1    S     S_3+6 0.898926 0.398050 0.704468 0.181847
O9    O     O_2   0.805961 0.415653 0.699106 -0.242816
O10   O     O_2   0.911355 0.284207 0.664364 -0.122334
O11   O     O_3   0.930988 0.423966 0.846383 -0.374393
H8    H     H_    0.894452 0.379748 0.884798 0.411638
N3    N     N_R   0.941014 0.590544 0.713302 0.150493
O12   O     O_R   0.992378 0.614897 0.805198 -0.198420
O13   O     O_R   0.864832 0.623456 0.725919 -0.227236
N4    N     N_R   0.919746 0.615510 0.340836 0.172986
O14   O     O_R   0.843113 0.644527 0.320910 -0.200223
O15   O     O_R   0.967525 0.605940 0.253532 -0.195510
N5    N     N_R   0.382019 0.813065 0.405248 0.145447
O16   O     O_R   0.310132 0.841468 0.446307 -0.219753
O17   O     O_R   0.383425 0.743721 0.310828 -0.238048
S2    S     S_3+6 0.640228 0.817326 0.707689 0.083573
O18   O     O_2   0.590658 0.796767 0.807295 -0.251010
O19   O     O_2   0.675048 0.717449 0.647148 -0.276696
O20   O     O_3   0.720784 0.899867 0.760317 -0.441237
H9    H     H_    0.755391 0.862278 0.811977 0.424729
N6    N     N_R   0.379387 0.967907 0.275456 0.174011
O21   O     O_R   0.304044 0.998938 0.252439 -0.214992
O22   O     O_R   0.415950 0.905258 0.195316 -0.243789
N7    N     N_R   0.604293 0.195565 0.625058 0.128238
O23   O     O_R   0.666738 0.243673 0.588367 -0.268023
O24   O     O_R   0.592129 0.210097 0.735824 -0.308571
S3    S     S_3+6 0.104858 0.379499 0.692008 0.166758
O25   O     O_2   0.098618 0.414462 0.820646 -0.108702
O26   O     O_2   0.067537 0.271584 0.660356 -0.115497
O27   O     O_3   0.207796 0.372973 0.668111 -0.525549
H10   H     H_    0.227744 0.311616 0.700423 0.406237
N8    N     N_R   0.326663 0.383406 0.969754 0.119252
O28   O     O_R   0.295876 0.298099 0.996086 -0.289950
O29   O     O_R   0.279182 0.437981 0.910146 -0.262681
S4    S     S_3+6 0.688581 0.636770 0.043468 0.091201
O30   O     O_2   0.665341 0.725460 0.135693 -0.227757
O31   O     O_2   0.738542 0.559690 0.099193 -0.191789
O32   O     O_3   0.747450 0.683272 0.947964 -0.458436
H11   H     H_    0.799173 0.712114 0.993826 0.425154
N9    N     N_R   0.061257 0.455637 0.274751 0.149166
O33   O     O_R   0.134658 0.495594 0.262679 -0.247118
O34   O     O_R   0.022743 0.412653 0.176791 -0.180703
S5    S     S_3+6 0.106652 0.294364 0.357459 0.162659
O35   O     O_2   0.132986 0.251016 0.463860 -0.152812
O36   O     O_2   0.056179 0.212003 0.274787 -0.135311
O37   O     O_3   0.196273 0.315595 0.294193 -0.509742
H12   H     H_    0.184954 0.289198 0.209949 0.416370
N10   N     N_R   0.919948 0.307847 0.448475 0.166793
O38   O     O_R   0.840044 0.285236 0.448855 -0.242961
O39   O     O_R   0.971143 0.234445 0.463608 -0.158745
N11   N     N_R   0.895845 0.389221 0.288863 0.185879
O40   O     O_R   0.830251 0.443203 0.269877 -0.268693
O41   O     O_R   0.901981 0.300703 0.218477 -0.177912
N12   N     N_R   0.084604 0.688650 0.599395 0.135292
O42   O     O_R   0.165265 0.699545 0.624149 -0.267780
O43   O     O_R   0.037289 0.745854 0.670480 -0.191724
N13   N     N_R   0.093841 0.669011 0.398031 0.221551
O44   O     O_R   0.059879 0.751411 0.367938 -0.150069
O45   O     O_R   0.175040 0.665514 0.391370 -0.222331
N14   N     N_R   0.912559 0.709202 0.528927 0.201851
O46   O     O_R   0.833843 0.709092 0.552393 -0.246082
O47   O     O_R   0.942447 0.799159 0.514021 -0.155877

loop_
_geom_bond_atom_site_label_1
_geom_bond_atom_site_label_2
_geom_bond_distance
_ccdc_geom_bond_type
N1    C32   1.366277 A    
S4    O30   1.503204 D    
N2    C28   1.360326 A    
N6    O21   1.301162 A    
C4    C8    1.420293 S    
C9    C13   1.651005 S    
S5    O35   1.494335 D    
S3    O27   1.680853 S    
N14   O47   1.302948 A    
O32   H11   0.990513 S    
S5    O37   1.686296 S    
Cu1   Cu2   2.678058 S    
C2    C16   1.418979 S    
C30   C31   1.415637 A    
Cu1   O7    1.930104 S    
C26   H2    1.080204 S    
C8    C14   1.200802 T    
C25   C26   1.384615 A    
N7    O24   1.301292 A    
C18   C21   1.399799 A    
N13   O45   1.302140 A    
O4    C2    1.288677 A    
O7    C4    1.290500 A    
C28   H6    1.081542 S    
N12   O42   1.302636 A    
C24   N5    1.438058 S    
N1    C33   1.360323 A    
C23   C24   1.413664 A    
C27   C31   1.418040 A    
C1    C18   1.450893 S    
C34   S4    1.770909 S    
N10   O38   1.304184 A    
O5    C3    1.293245 A    
C31   C32   1.421901 A    
C29   H7    1.078589 S    
C33   H5    1.077776 S    
C5    S3    1.836199 S    
C17   C24   1.414578 A    
C6    C7    1.655921 S    
N5    O17   1.301082 A    
N4    O15   1.297028 A    
Cu1   N1    2.012060 S    
C3    C17   1.464272 S    
Cu2   N2    2.011828 S    
C11   C12   1.648187 S    
N6    O22   1.300951 A    
O3    Cu1   1.936719 S    
N10   O39   1.294544 A    
N14   O46   1.299513 A    
C32   H4    1.080022 S    
C5    C10   1.606140 S    
C13   N13   1.490883 S    
S1    O10   1.495996 D    
N3    O13   1.301055 A    
C19   C23   1.420603 A    
C27   N8    1.434411 S    
N8    O28   1.301230 A    
C10   S1    1.870104 S    
S3    O26   1.497499 D    
C19   N6    1.432190 S    
S2    O18   1.502359 D    
C15   C16   1.199805 T    
C13   N12   1.505162 S    
C22   C26   1.396593 A    
O1    C1    1.291134 A    
C5    C9    1.616586 S    
N4    O14   1.304116 A    
C12   N4    1.495978 S    
C5    H1    1.095820 S    
C30   C34   1.419591 A    
Cu2   O8    1.936718 S    
C25   S2    1.772642 S    
N9    O34   1.300591 A    
C22   C23   1.421896 A    
N11   O41   1.304057 A    
N7    O23   1.301078 A    
C10   N3    1.487269 S    
S2    O20   1.682580 S    
O3    C2    1.292177 A    
C33   C34   1.407049 A    
O8    C4    1.291020 A    
O37   H12   0.990647 S    
C12   N14   1.493009 S    
S4    O31   1.502557 D    
N2    C29   1.366386 A    
S4    O32   1.682511 S    
C27   C28   1.407720 A    
C29   C30   1.422698 A    
Cu1   O5    1.970891 S    
S1    O9    1.502245 D    
C6    S5    1.858440 S    
O1    Cu1   1.967744 S    
O2    Cu2   1.970891 S    
N8    O29   1.300444 A    
O6    C3    1.293953 A    
C21   N7    1.437882 S    
O4    Cu2   1.930105 S    
S5    O36   1.504757 D    
C6    N9    1.494551 S    
C21   C22   1.404068 A    
O2    C1    1.290144 A    
C7    N11   1.492542 S    
O20   H9    0.990591 S    
C18   C20   1.393405 A    
N13   O44   1.302047 A    
O11   H8    0.991557 S    
C19   C20   1.391097 A    
N12   O43   1.298250 A    
C6    C9    1.622543 S    
N9    O33   1.299428 A    
C20   H3    1.084523 S    
N5    O16   1.300768 A    
C9    C15   1.471602 S    
C7    N10   1.484676 S    
C7    C11   1.654260 S    
S3    O25   1.502757 D    
N3    O12   1.304329 A    
C10   C11   1.638849 S    
C17   C25   1.416545 A    
Cu2   O6    1.967743 S    
O27   H10   0.990587 S    
C11   C14   1.473019 S    
N11   O40   1.298212 A    
S2    O19   1.499131 D    
C12   C13   1.652553 S    
S1    O11   1.683016 S    
