data_mof_unit_17148.cif
_audit_creation_date              2012-12-10T16:34:43-0500
_audit_creation_method            fapswitch 2.2
_symmetry_space_group_name_H-M    P1
_symmetry_Int_Tables_number       1
_space_group_crystal_system       monoclinic
_cell_length_a                    28.151178
_cell_length_b                    18.386661
_cell_length_c                    17.053121
_cell_angle_alpha                 90.0
_cell_angle_beta                  60.752366
_cell_angle_gamma                 90.0
_cell_volume                      7701.52636501

loop_
_atom_site_label
_atom_site_type_symbol
_atom_type_description
_atom_site_fract_x
_atom_site_fract_y
_atom_site_fract_z
_atom_type_partial_charge
C1    C     C_R   0.700193 0.264629 0.676655 0.920176
C2    C     C_R   0.299810 0.735382 0.323345 0.916865
C3    C     C_R   0.299807 0.264629 0.323345 0.920177
C4    C     C_R   0.700190 0.735382 0.676655 0.916863
C5    C     C_R   0.200193 0.764629 0.676655 0.920176
C6    C     C_R   0.799810 0.235382 0.323345 0.916863
C7    C     C_R   0.799807 0.764629 0.323345 0.920175
C8    C     C_R   0.200190 0.235382 0.676655 0.916864
C9    C     C_R   0.916866 0.499995 0.452427 0.063242
C10   C     C_R   0.083134 0.499995 0.547574 0.063242
C11   C     C_R   0.416866 0.999995 0.452427 0.063242
C12   C     C_R   0.583134 0.999995 0.547574 0.063242
C13   C     C_R   0.077070 0.368735 0.558876 -0.219070
C14   C     C_R   0.922933 0.631254 0.441117 -0.219843
C15   C     C_R   0.922930 0.368735 0.441124 -0.219070
C16   C     C_R   0.077067 0.631254 0.558883 -0.219843
C17   C     C_R   0.577070 0.868735 0.558876 -0.219070
C18   C     C_R   0.422933 0.131254 0.441118 -0.219843
C19   C     C_R   0.422930 0.868735 0.441125 -0.219070
C20   C     C_R   0.577067 0.131254 0.558883 -0.219844
C21   C     C_R   0.719517 0.261371 0.954792 0.159342
C22   C     C_R   0.280548 0.738789 0.045168 0.173433
C23   C     C_R   0.280483 0.261371 0.045208 0.159341
C24   C     C_R   0.719452 0.738789 0.954833 0.173432
C25   C     C_R   0.219517 0.761371 0.954792 0.159342
C26   C     C_R   0.780548 0.238790 0.045167 0.173431
C27   C     C_R   0.780483 0.761371 0.045208 0.159343
C28   C     C_R   0.219452 0.238789 0.954833 0.173432
C29   C     C_R   0.776416 0.270563 0.909593 -0.087856
C30   C     C_R   0.223650 0.729583 0.090353 -0.089922
C31   C     C_R   0.223584 0.270562 0.090408 -0.087853
C32   C     C_R   0.776350 0.729583 0.909647 -0.089930
C33   C     C_R   0.276416 0.770562 0.909592 -0.087853
C34   C     C_R   0.723650 0.229583 0.090353 -0.089932
C35   C     C_R   0.723584 0.770562 0.090408 -0.087860
C36   C     C_R   0.276350 0.229584 0.909647 -0.089925
C37   C     C_R   0.806616 0.258811 0.953990 -0.137651
C38   C     C_R   0.193452 0.741334 0.045957 -0.148496
C39   C     C_R   0.193384 0.258810 0.046011 -0.137653
C40   C     C_R   0.806548 0.741333 0.954043 -0.148498
C41   C     C_R   0.306616 0.758810 0.953989 -0.137653
C42   C     C_R   0.693452 0.241334 0.045957 -0.148499
C43   C     C_R   0.693383 0.758810 0.046011 -0.137654
C44   C     C_R   0.306548 0.241334 0.954043 -0.148497
C45   C     C_R   0.645490 0.327233 0.943778 -0.264700
C46   C     C_R   0.354555 0.672839 0.056173 -0.268655
C47   C     C_R   0.354510 0.327233 0.056222 -0.264700
C48   C     C_R   0.645445 0.672839 0.943827 -0.268655
C49   C     C_R   0.145490 0.827233 0.943778 -0.264699
C50   C     C_R   0.854555 0.172839 0.056173 -0.268655
C51   C     C_R   0.854510 0.827233 0.056222 -0.264700
C52   C     C_R   0.145445 0.172839 0.943827 -0.268655
C53   C     C_R   0.617983 0.347901 0.896901 -0.059316
C54   C     C_R   0.382027 0.652112 0.103089 -0.058575
C55   C     C_R   0.382017 0.347902 0.103099 -0.059317
C56   C     C_R   0.617973 0.652112 0.896911 -0.058575
C57   C     C_R   0.117983 0.847901 0.896901 -0.059317
C58   C     C_R   0.882027 0.152113 0.103089 -0.058576
C59   C     C_R   0.882017 0.847901 0.103099 -0.059317
C60   C     C_R   0.117973 0.152112 0.896911 -0.058575
C61   C     C_R   0.633518 0.321101 0.812858 -0.312527
C62   C     C_R   0.366470 0.678879 0.187157 -0.309363
C63   C     C_R   0.366482 0.321101 0.187142 -0.312527
C64   C     C_R   0.633530 0.678879 0.812843 -0.309362
C65   C     C_R   0.133518 0.821101 0.812858 -0.312526
C66   C     C_R   0.866470 0.178879 0.187157 -0.309362
C67   C     C_R   0.866482 0.821101 0.187142 -0.312526
C68   C     C_R   0.133530 0.178879 0.812843 -0.309362
C69   C     C_R   0.676165 0.273098 0.773601 -0.176092
C70   C     C_R   0.323837 0.726907 0.226402 -0.178750
C71   C     C_R   0.323835 0.273098 0.226399 -0.176091
C72   C     C_R   0.676162 0.726907 0.773598 -0.178750
C73   C     C_R   0.176165 0.773098 0.773601 -0.176091
C74   C     C_R   0.823837 0.226907 0.226401 -0.178750
C75   C     C_R   0.823835 0.773098 0.226399 -0.176091
C76   C     C_R   0.176163 0.226907 0.773598 -0.178749
C77   C     C_R   0.700000 0.243325 0.824287 0.437400
C78   C     C_R   0.300016 0.756673 0.175690 0.429847
C79   C     C_R   0.300001 0.243325 0.175712 0.437400
C80   C     C_R   0.699984 0.756673 0.824310 0.429846
C81   C     C_R   0.199999 0.743325 0.824287 0.437400
C82   C     C_R   0.800016 0.256673 0.175690 0.429846
C83   C     C_R   0.800000 0.743325 0.175712 0.437399
C84   C     C_R   0.199984 0.256673 0.824310 0.429846
C85   C     C_R   0.691105 0.129334 0.535119 0.897216
C86   C     C_R   0.308894 0.870665 0.464881 0.898121
C87   C     C_R   0.308895 0.129334 0.464881 0.897217
C88   C     C_R   0.691106 0.870665 0.535119 0.898120
C89   C     C_R   0.191105 0.629334 0.535119 0.897216
C90   C     C_R   0.808894 0.370665 0.464881 0.898120
C91   C     C_R   0.808895 0.629334 0.464881 0.897215
C92   C     C_R   0.191106 0.370665 0.535119 0.898121
C93   C     C_R   0.687396 0.275733 0.907622 -0.054845
C94   C     C_R   0.312660 0.724355 0.092327 -0.046051
C95   C     C_R   0.312604 0.275733 0.092378 -0.054845
C96   C     C_R   0.687339 0.724355 0.907673 -0.046050
C97   C     C_R   0.187396 0.775733 0.907622 -0.054845
C98   C     C_R   0.812661 0.224355 0.092327 -0.046049
C99   C     C_R   0.812604 0.775733 0.092378 -0.054844
C100  C     C_R   0.187339 0.224355 0.907673 -0.046051
C101  C     C_R   0.075489 0.098123 0.932553 0.928585
C102  C     C_R   0.924508 0.901881 0.067450 0.928594
C103  C     C_R   0.924511 0.098123 0.067447 0.928585
C104  C     C_R   0.075491 0.901881 0.932550 0.928594
C105  C     C_R   0.575489 0.598123 0.932553 0.928585
C106  C     C_R   0.424509 0.401880 0.067450 0.928594
C107  C     C_R   0.424511 0.598123 0.067447 0.928585
C108  C     C_R   0.575491 0.401880 0.932550 0.928594
C109  C     C_R   0.538038 0.131991 0.530873 0.096923
C110  C     C_R   0.461958 0.867995 0.469135 0.099875
C111  C     C_R   0.461962 0.131991 0.469127 0.096922
C112  C     C_R   0.538041 0.867995 0.530866 0.099875
C113  C     C_R   0.038038 0.631991 0.530873 0.096922
C114  C     C_R   0.961958 0.367995 0.469135 0.099875
C115  C     C_R   0.961962 0.631991 0.469127 0.096923
C116  C     C_R   0.038042 0.367995 0.530865 0.099875
C117  C     C_R   0.518319 0.197930 0.516559 -0.182939
C118  C     C_R   0.481677 0.802055 0.483449 -0.185730
C119  C     C_R   0.481681 0.197930 0.483441 -0.182939
C120  C     C_R   0.518323 0.802055 0.516552 -0.185729
C121  C     C_R   0.018319 0.697930 0.516559 -0.182939
C122  C     C_R   0.981677 0.302055 0.483449 -0.185729
C123  C     C_R   0.981681 0.697930 0.483441 -0.182939
C124  C     C_R   0.018323 0.302055 0.516552 -0.185729
C125  C     C_R   0.480317 0.065956 0.485829 0.031566
C126  C     C_R   0.519684 0.934030 0.514170 0.031272
C127  C     C_R   0.519683 0.065956 0.514172 0.031566
C128  C     C_R   0.480316 0.934030 0.485831 0.031272
C129  C     C_R   0.980317 0.565956 0.485828 0.031566
C130  C     C_R   0.019684 0.434031 0.514170 0.031272
C131  C     C_R   0.019683 0.565956 0.514172 0.031566
C132  C     C_R   0.980316 0.434031 0.485830 0.031272
C133  C     C_R   0.959965 0.499994 0.472793 -0.045325
C134  C     C_R   0.040035 0.499994 0.527207 -0.045325
C135  C     C_R   0.459965 0.999994 0.472793 -0.045325
C136  C     C_R   0.540035 0.999994 0.527208 -0.045325
C137  C     C_R   0.894642 0.433560 0.444262 0.053773
C138  C     C_R   0.105357 0.566431 0.555740 0.053478
C139  C     C_R   0.105358 0.433560 0.555738 0.053773
C140  C     C_R   0.894643 0.566431 0.444260 0.053478
C141  C     C_R   0.394642 0.933560 0.444262 0.053773
C142  C     C_R   0.605357 0.066431 0.555740 0.053478
C143  C     C_R   0.605358 0.933560 0.555739 0.053773
C144  C     C_R   0.394643 0.066431 0.444260 0.053478
C145  C     C_R   0.844034 0.434692 0.443328 -0.113975
C146  C     C_R   0.155965 0.565303 0.556672 -0.113648
C147  C     C_R   0.155966 0.434692 0.556672 -0.113974
C148  C     C_R   0.844035 0.565303 0.443328 -0.113648
C149  C     C_R   0.344034 0.934693 0.443328 -0.113974
C150  C     C_R   0.655965 0.065303 0.556672 -0.113648
C151  C     C_R   0.655965 0.934693 0.556672 -0.113974
C152  C     C_R   0.344035 0.065303 0.443328 -0.113648
C153  C     C_R   0.821487 0.499998 0.438173 -0.242454
C154  C     C_R   0.178513 0.499998 0.561827 -0.242454
C155  C     C_R   0.321487 0.999998 0.438173 -0.242454
C156  C     C_R   0.678513 0.999998 0.561827 -0.242454
H1    H     H_    0.032431 0.250553 0.528442 0.143904
H2    H     H_    0.967577 0.749432 0.471542 0.148050
H3    H     H_    0.967568 0.250553 0.471559 0.143905
H4    H     H_    0.032423 0.749432 0.528458 0.148049
H5    H     H_    0.532431 0.750553 0.528442 0.143905
H6    H     H_    0.467577 0.249432 0.471542 0.148049
H7    H     H_    0.467568 0.750553 0.471559 0.143904
H8    H     H_    0.532423 0.249432 0.528459 0.148049
H9    H     H_    0.782860 0.499999 0.438526 0.213868
H10   H     H_    0.217140 0.499999 0.561474 0.213868
H11   H     H_    0.282860 0.999999 0.438526 0.213868
H12   H     H_    0.717140 0.999999 0.561474 0.213868
H13   H     H_    0.084393 0.317926 0.582748 0.176899
H14   H     H_    0.915610 0.682062 0.417246 0.177360
H15   H     H_    0.915607 0.317926 0.417252 0.176899
H16   H     H_    0.084390 0.682062 0.582754 0.177360
H17   H     H_    0.584393 0.817926 0.582748 0.176899
H18   H     H_    0.415610 0.182062 0.417246 0.177360
H19   H     H_    0.415607 0.817926 0.417252 0.176898
H20   H     H_    0.584390 0.182062 0.582755 0.177360
H21   H     H_    0.649717 0.233975 0.082531 0.145227
H22   H     H_    0.350353 0.766146 0.917407 0.143578
H23   H     H_    0.350283 0.233975 0.917468 0.145226
H24   H     H_    0.649647 0.766146 0.082593 0.143578
H25   H     H_    0.149717 0.733975 0.082532 0.145226
H26   H     H_    0.850353 0.266147 0.917407 0.143579
H27   H     H_    0.850283 0.733975 0.917468 0.145226
H28   H     H_    0.149647 0.266146 0.082593 0.143578
H29   H     H_    0.797454 0.287579 0.839945 0.167101
H30   H     H_    0.202606 0.712515 0.159983 0.157752
H31   H     H_    0.202546 0.287578 0.160055 0.167101
H32   H     H_    0.797394 0.712515 0.840017 0.157754
H33   H     H_    0.297454 0.787578 0.839945 0.167101
H34   H     H_    0.702606 0.212514 0.159983 0.157754
H35   H     H_    0.702546 0.787578 0.160055 0.167101
H36   H     H_    0.297394 0.212515 0.840017 0.157753
H37   H     H_    0.635113 0.352291 0.007703 0.179771
H38   H     H_    0.364952 0.647821 0.992219 0.179234
H39   H     H_    0.364886 0.352291 0.992298 0.179773
H40   H     H_    0.635047 0.647821 0.007781 0.179233
H41   H     H_    0.135113 0.852290 0.007703 0.179773
H42   H     H_    0.864953 0.147821 0.992219 0.179234
H43   H     H_    0.864886 0.852291 0.992298 0.179772
H44   H     H_    0.135047 0.147821 0.007781 0.179234
H45   H     H_    0.614100 0.341095 0.775602 0.195944
H46   H     H_    0.385870 0.658854 0.224429 0.195485
H47   H     H_    0.385900 0.341095 0.224398 0.195944
H48   H     H_    0.614130 0.658855 0.775571 0.195484
H49   H     H_    0.114100 0.841095 0.775602 0.195944
H50   H     H_    0.885870 0.158854 0.224429 0.195485
H51   H     H_    0.885900 0.841095 0.224398 0.195944
H52   H     H_    0.114130 0.158854 0.775571 0.195484
O1    O     O_R   0.746490 0.236330 0.638080 -0.544254
O2    O     O_R   0.253510 0.763670 0.361920 -0.548977
O3    O     O_R   0.253510 0.236330 0.361920 -0.544257
O4    O     O_R   0.746490 0.763670 0.638080 -0.548977
O5    O     O_R   0.246490 0.736330 0.638080 -0.544256
O6    O     O_R   0.753510 0.263670 0.361920 -0.548977
O7    O     O_R   0.753510 0.736330 0.361920 -0.544252
O8    O     O_R   0.246490 0.263670 0.638080 -0.548977
O9    O     O_R   0.674170 0.186160 0.516270 -0.649504
O10   O     O_R   0.325830 0.813840 0.483730 -0.648490
O11   O     O_R   0.325830 0.186160 0.483730 -0.649505
O12   O     O_R   0.674170 0.813840 0.516270 -0.648490
O13   O     O_R   0.174170 0.686160 0.516270 -0.649505
O14   O     O_R   0.825830 0.313840 0.483730 -0.648490
O15   O     O_R   0.825830 0.686160 0.483730 -0.649505
O16   O     O_R   0.174170 0.313840 0.516270 -0.648490
O17   O     O_R   0.739960 0.127620 0.525000 -0.605070
O18   O     O_R   0.260040 0.872380 0.475000 -0.602670
O19   O     O_R   0.260040 0.127620 0.475000 -0.605070
O20   O     O_R   0.739960 0.872380 0.525000 -0.602671
O21   O     O_R   0.239960 0.627620 0.525000 -0.605070
O22   O     O_R   0.760040 0.372380 0.475000 -0.602671
O23   O     O_R   0.760040 0.627620 0.475000 -0.605069
O24   O     O_R   0.239960 0.372380 0.525000 -0.602671
O25   O     O_R   0.680700 0.294870 0.629350 -0.650908
O26   O     O_R   0.319300 0.705130 0.370650 -0.650195
O27   O     O_R   0.319300 0.294870 0.370650 -0.650908
O28   O     O_R   0.680700 0.705130 0.629350 -0.650195
O29   O     O_R   0.180700 0.794870 0.629350 -0.650908
O30   O     O_R   0.819300 0.205130 0.370650 -0.650195
O31   O     O_R   0.819300 0.794870 0.370650 -0.650908
O32   O     O_R   0.180700 0.205130 0.629350 -0.650195
O33   O     O_R   0.062020 0.072840 0.007170 -0.624835
O34   O     O_R   0.937980 0.927160 0.992830 -0.624881
O35   O     O_R   0.937980 0.072840 0.992830 -0.624835
O36   O     O_R   0.062020 0.927160 0.007170 -0.624881
O37   O     O_R   0.562020 0.572840 0.007170 -0.624835
O38   O     O_R   0.437980 0.427160 0.992830 -0.624880
O39   O     O_R   0.437980 0.572840 0.992830 -0.624835
O40   O     O_R   0.562020 0.427160 0.007170 -0.624881
O41   O     O_R   0.947860 0.073950 0.109290 -0.625474
O42   O     O_R   0.052140 0.926050 0.890710 -0.625123
O43   O     O_R   0.052140 0.073950 0.890710 -0.625474
O44   O     O_R   0.947860 0.926050 0.109290 -0.625123
O45   O     O_R   0.447860 0.573950 0.109290 -0.625474
O46   O     O_R   0.552140 0.426050 0.890710 -0.625123
O47   O     O_R   0.552140 0.573950 0.890710 -0.625474
O48   O     O_R   0.447860 0.426050 0.109290 -0.625123
Zn1   Zn    Zn3+2 0.792340 0.208750 0.507670 1.026368
Zn2   Zn    Zn3+2 0.207660 0.791250 0.492330 1.041622
Zn3   Zn    Zn3+2 0.207660 0.208750 0.492330 1.026365
Zn4   Zn    Zn3+2 0.792340 0.791250 0.507670 1.041623
Zn5   Zn    Zn3+2 0.292340 0.708750 0.507670 1.026366
Zn6   Zn    Zn3+2 0.707660 0.291250 0.492330 1.041623
Zn7   Zn    Zn3+2 0.707660 0.708750 0.492330 1.026374
Zn8   Zn    Zn3+2 0.292340 0.291250 0.507670 1.041623
Zn9   Zn    Zn3+2 0.505960 0.500000 0.080520 0.955746
Zn10  Zn    Zn3+2 0.494040 0.500000 0.919480 0.955747
Zn11  Zn    Zn3+2 0.005960 1.000000 0.080520 0.955748
Zn12  Zn    Zn3+2 0.994040 1.000000 0.919480 0.955747
S1    S     S_3+6 0.739166 0.161553 0.790473 0.027991
O49   O     O_2   0.733816 0.121018 0.870970 -0.294317
O50   O     O_2   0.719481 0.113245 0.741072 -0.277746
O51   O     O_3   0.805048 0.182277 0.722422 -0.577794
H53   H     H_    0.824022 0.134783 0.705022 0.376985
S2    S     S_3+6 0.261091 0.838605 0.209012 0.032451
O52   O     O_2   0.202018 0.820541 0.268986 -0.326192
O53   O     O_2   0.280470 0.886774 0.258963 -0.270638
O54   O     O_3   0.267954 0.884117 0.118459 -0.543522
H54   H     H_    0.243207 0.926429 0.143134 0.401336
S3    S     S_3+6 0.260835 0.161552 0.209526 0.027988
O55   O     O_2   0.266186 0.121017 0.129029 -0.294319
O56   O     O_2   0.280520 0.113245 0.258927 -0.277752
O57   O     O_3   0.194953 0.182274 0.277577 -0.577794
H55   H     H_    0.175980 0.134780 0.294980 0.376987
S4    S     S_3+6 0.738909 0.838605 0.790988 0.032453
O58   O     O_2   0.797983 0.820541 0.731014 -0.326202
O59   O     O_2   0.719530 0.886774 0.741037 -0.270627
O60   O     O_3   0.732046 0.884117 0.881541 -0.543517
H56   H     H_    0.756801 0.926421 0.856866 0.401329
S5    S     S_3+6 0.239166 0.661553 0.790473 0.027990
O61   O     O_2   0.233815 0.621018 0.870971 -0.294319
O62   O     O_2   0.219481 0.613245 0.741072 -0.277749
O63   O     O_3   0.305048 0.682275 0.722423 -0.577793
H57   H     H_    0.324021 0.634781 0.705021 0.376985
S6    S     S_3+6 0.761091 0.338605 0.209012 0.032454
O64   O     O_2   0.702017 0.320541 0.268986 -0.326204
O65   O     O_2   0.780469 0.386774 0.258963 -0.270624
O66   O     O_3   0.767954 0.384117 0.118459 -0.543517
H58   H     H_    0.743197 0.426420 0.143134 0.401328
S7    S     S_3+6 0.760834 0.661553 0.209527 0.027992
O67   O     O_2   0.766186 0.621018 0.129029 -0.294321
O68   O     O_2   0.780519 0.613245 0.258928 -0.277740
O69   O     O_3   0.694952 0.682275 0.277577 -0.577793
H59   H     H_    0.675978 0.634781 0.294968 0.376984
S8    S     S_3+6 0.238909 0.338605 0.790988 0.032452
O70   O     O_2   0.297982 0.320541 0.731014 -0.326197
O71   O     O_2   0.219530 0.386774 0.741037 -0.270633
O72   O     O_3   0.232046 0.384117 0.881541 -0.543519
H60   H     H_    0.256797 0.426426 0.856866 0.401332

loop_
_geom_bond_atom_site_label_1
_geom_bond_atom_site_label_2
_ccdc_geom_bond_type
O3    Zn3   S    
O27   Zn8   S    
C4    O28   A    
C34   C42   A    
C14   H14   S    
C16   C113  A    
C110  C118  A    
C50   H42   S    
C6    O30   A    
C27   C99   S    
O57   H55   S    
C38   H25   S    
C54   C107  S    
C13   C139  A    
C47   H39   S    
S4    O58   D    
C117  C119  A    
C92   O24   A    
C30   C38   A    
C33   H33   S    
S2    O52   D    
C3    O27   A    
O39   Zn10  S    
C109  C127  A    
O26   Zn5   S    
C1    O25   A    
O51   H53   S    
C111  C125  A    
C125  C135  A    
C143  C151  A    
C64   H48   S    
C126  C136  A    
C19   C141  A    
C92   C147  S    
C82   C98   A    
O18   Zn2   S    
C130  C134  A    
C44   H23   S    
C73   C81   A    
C17   H17   S    
O37   Zn9   S    
C43   H24   S    
C104  O42   A    
C84   C100  A    
C92   O16   A    
C127  C136  A    
C82   S6    S    
C128  C135  A    
C112  C120  A    
C27   C35   A    
C21   C29   A    
C23   C31   A    
C24   C32   A    
O44   Zn11  S    
O1    Zn1   S    
C146  C154  A    
C5    O5    A    
C8    O32   A    
C129  C133  A    
C63   C71   A    
S1    O50   D    
C36   C44   A    
C148  C153  A    
C105  O47   A    
C57   C104  S    
O46   Zn10  S    
C48   C96   A    
C59   C102  S    
S4    O60   S    
C16   C138  A    
O11   Zn8   S    
C8    O8    A    
O47   Zn10  S    
C108  O40   A    
C24   C96   S    
C149  C155  A    
C53   C108  S    
C21   C93   S    
C78   C94   A    
C23   C95   S    
S3    O56   D    
O32   Zn3   S    
C118  C120  A    
C121  C123  A    
C49   C97   A    
C21   C42   A    
C116  C130  A    
O28   Zn7   S    
C31   H31   S    
O29   Zn2   S    
C125  C127  A    
C24   C43   A    
C10   C138  A    
C110  C128  A    
C15   C137  A    
C9    C133  A    
C69   C77   A    
C45   C93   A    
C71   C79   A    
C49   H41   S    
C62   C70   A    
C63   H47   S    
C89   O13   A    
C9    C140  A    
C65   H49   S    
C156  H12   S    
C66   C74   A    
C8    C76   S    
C49   C57   A    
C111  C119  A    
C86   O10   A    
C52   C60   A    
C59   C67   A    
C84   S8    S    
C53   C61   A    
C55   C63   A    
C56   C64   A    
C52   H44   S    
O34   Zn12  S    
C35   C43   A    
C39   H28   S    
C40   H27   S    
C13   H13   S    
C45   C53   A    
O54   H54   S    
C22   C94   S    
C46   H38   S    
S8    O72   S    
C3    O3    A    
C50   C98   A    
C1    O1    A    
C103  O41   A    
C106  O48   A    
C34   H34   S    
C28   C36   A    
C155  H11   S    
O40   Zn9   S    
C52   C100  A    
C91   O23   A    
C25   C38   A    
C46   C94   A    
C27   C40   A    
S3    O55   D    
S5    O61   D    
C11   C141  A    
C105  O37   A    
O16   Zn3   S    
C18   H18   S    
C25   C97   S    
C14   C140  A    
C87   C152  S    
C88   C151  S    
C77   S1    S    
O12   Zn7   S    
C85   O17   A    
C78   S2    S    
C122  C124  A    
O13   Zn2   S    
O23   Zn7   S    
C126  C128  A    
O24   Zn8   S    
C108  O46   A    
C36   H36   S    
O20   Zn4   S    
O21   Zn5   S    
C68   C76   A    
C12   C143  A    
O36   Zn11  S    
O41   Zn11  S    
S4    O59   D    
O42   Zn12  S    
C72   C80   A    
C20   H20   S    
C138  C146  A    
C29   H29   S    
S2    O53   D    
C5    C73   S    
S7    O69   S    
C19   H19   S    
O14   Zn1   S    
C67   C75   A    
C12   C136  A    
O10   Zn5   S    
C90   O22   A    
O38   Zn10  S    
C81   S5    S    
C25   C33   A    
C83   S7    S    
O48   Zn9   S    
O22   Zn6   S    
S2    O54   S    
C131  C134  A    
C76   C84   A    
C109  C117  A    
C5    O29   A    
C137  C145  A    
C90   C145  S    
S6    O64   D    
C22   C41   A    
C14   C115  A    
S5    O63   S    
C107  O45   A    
O30   Zn1   S    
C85   C150  S    
C62   H46   S    
C9    C137  A    
C2    O26   A    
C121  H4    S    
C68   H52   S    
C35   H35   S    
C122  H3    S    
C22   C30   A    
C112  C126  A    
C153  H9    S    
C83   C99   A    
S1    O49   D    
C101  O43   A    
C74   C82   A    
C119  H6    S    
C6    C74   S    
C117  H8    S    
C45   H37   S    
C118  H7    S    
C55   C106  S    
O72   H60   S    
C50   C58   A    
O7    Zn7   S    
O31   Zn4   S    
C115  C123  A    
O35   Zn12  S    
O8    Zn8   S    
S6    O66   S    
C54   C62   A    
C28   C39   A    
O4    Zn4   S    
C1    C69   S    
C23   C44   A    
C88   O12   A    
C130  C132  A    
S7    O67   D    
C79   C95   A    
C11   C135  A    
O60   H56   S    
C6    O6    A    
C152  C155  A    
C124  H1    S    
C46   C54   A    
C15   H15   S    
C151  C156  A    
C18   C111  A    
C80   S4    S    
C87   O19   A    
C10   C139  A    
C91   O15   A    
C4    C72   S    
C116  C124  A    
O6    Zn6   S    
C57   C65   A    
C26   C37   A    
O2    Zn2   S    
C17   C143  A    
C33   C41   A    
C142  C150  A    
C18   C144  A    
C75   C83   A    
C37   H26   S    
C77   C93   A    
C12   C142  A    
C56   C105  S    
C13   C116  A    
C60   C68   A    
C79   S3    S    
S1    O51   S    
C29   C37   A    
C154  H10   S    
O5    Zn5   S    
C2    C70   S    
O43   Zn12  S    
C7    O7    A    
C144  C152  A    
O25   Zn6   S    
C70   C78   A    
O66   H58   S    
C3    C71   S    
C140  C148  A    
C141  C149  A    
C88   O20   A    
C139  C147  A    
C102  O44   A    
C30   H30   S    
C107  O39   A    
O63   H57   S    
C90   O14   A    
O15   Zn4   S    
C66   H50   S    
C42   H21   S    
C65   C73   A    
S3    O57   S    
C147  C154  A    
C85   O9    A    
C61   H45   S    
C26   C34   A    
C132  C133  A    
C103  O35   A    
C87   O11   A    
C80   C96   A    
C101  O33   A    
C11   C144  A    
O19   Zn3   S    
C145  C153  A    
C28   C100  S    
C32   C40   A    
C150  C156  A    
C48   H40   S    
C91   C148  S    
C58   C66   A    
C51   C99   A    
C89   C146  S    
C2    O2    A    
C32   H32   S    
C20   C142  A    
C41   H22   S    
C86   C149  S    
C7    C75   S    
O45   Zn9   S    
C104  O36   A    
C16   H16   S    
O33   Zn11  S    
C15   C114  A    
C113  C121  A    
C106  O38   A    
S7    O68   D    
C51   H43   S    
C120  H5    S    
C26   C98   S    
C102  O34   A    
S8    O70   D    
C7    O31   A    
C86   O18   A    
C51   C59   A    
C60   C101  S    
C17   C112  A    
C67   H51   S    
C47   C55   A    
C115  C129  A    
C19   C110  A    
C61   C69   A    
C48   C56   A    
O69   H59   S    
O9    Zn6   S    
C113  C131  A    
C114  C132  A    
C10   C134  A    
C123  H2    S    
C4    O4    A    
O17   Zn1   S    
S6    O65   D    
C81   C97   A    
S8    O71   D    
S5    O62   D    
C31   C39   A    
C64   C72   A    
C20   C109  A    
C114  C122  A    
C47   C95   A    
C58   C103  S    
C89   O21   A    
C129  C131  A    
