data_mof_unit_7940.cif
_audit_creation_date              2012-12-10T18:43:43-0500
_audit_creation_method            fapswitch 2.2
_symmetry_space_group_name_H-M    P1
_symmetry_Int_Tables_number       1
_space_group_crystal_system       triclinic
_cell_length_a                    10.773048
_cell_length_b                    10.563186
_cell_length_c                    10.037293
_cell_angle_alpha                 90.238917
_cell_angle_beta                  104.728332
_cell_angle_gamma                 89.213654
_cell_volume                      1104.58572632

loop_
_atom_site_label
_atom_site_type_symbol
_atom_type_description
_atom_site_fract_x
_atom_site_fract_y
_atom_site_fract_z
_atom_type_partial_charge
C1    C     C_R   0.506795 0.261006 0.501347 0.931217
C2    C     C_R   0.491093 0.738862 0.497608 0.974074
C3    C     C_R   0.258841 0.495243 0.440916 0.847818
C4    C     C_R   0.741255 0.498081 0.559038 0.841835
C5    C     C_R   0.520173 0.608396 0.074866 0.307853
C6    C     C_R   0.513845 0.390574 0.934493 0.287293
C7    C     C_R   0.487871 0.609662 0.928610 0.286363
C8    C     C_R   0.481419 0.391410 0.063042 0.351378
C9    C     C_2   0.120621 0.478094 0.405411 0.269035
C10   C     C_2   0.880131 0.486646 0.594529 0.259491
C11   C     C_2   0.069333 0.444077 0.508620 -0.234766
C12   C     C_2   0.933015 0.444958 0.494619 -0.114283
C13   C     C_R   0.385472 0.072677 0.470750 -0.233429
C14   C     C_R   0.611292 0.927392 0.523923 -0.216553
C15   C     C_R   0.376426 0.942970 0.460621 0.394318
C16   C     C_R   0.619543 0.056927 0.517486 0.444087
C17   C     C_R   0.491183 0.871679 0.496750 -0.164217
C18   C     C_R   0.505631 0.128235 0.499449 -0.141742
N1    N     N_R   0.499970 0.499970 0.857200 -0.224568
N2    N     N_R   0.500030 0.500030 0.142800 -0.213731
O1    O     O_R   0.499990 0.316750 0.614620 -0.562591
O2    O     O_R   0.500010 0.683250 0.385380 -0.553726
O3    O     O_R   0.499990 0.316780 0.385290 -0.548763
O4    O     O_R   0.500010 0.683220 0.614710 -0.539286
O5    O     O_R   0.317810 0.500000 0.571850 -0.618084
O6    O     O_R   0.682190 0.500000 0.428150 -0.595301
O7    O     O_R   0.317810 0.500030 0.342520 -0.508782
O8    O     O_R   0.682190 0.499970 0.657480 -0.558582
Zn1   Zn    Zn3+2 0.500000 0.499980 0.653120 1.130546
Zn2   Zn    Zn3+2 0.500000 0.500020 0.346880 1.151681
H1    H     H_    0.873116 0.417979 0.394950 0.240175
H2    H     H_    0.129761 0.423871 0.610662 0.226023
S1    S     S_3+6 0.611398 0.738707 0.157651 0.122036
O9    O     O_2   0.704011 0.700860 0.290275 -0.233629
O10   O     O_2   0.687712 0.789712 0.063941 -0.230892
O11   O     O_3   0.513254 0.854486 0.187170 -0.526457
H3    H     H_    0.570580 0.926381 0.221627 0.405042
S2    S     S_3+6 0.608970 0.260718 0.905584 0.127723
O12   O     O_2   0.525592 0.160258 0.823313 -0.268769
O13   O     O_2   0.705849 0.303774 0.832306 -0.231455
O14   O     O_3   0.688819 0.198653 0.057833 -0.459940
H4    H     H_    0.728928 0.119503 0.034289 0.416378
S3    S     S_3+6 0.971071 0.531720 0.761354 0.108130
O15   O     O_2   0.043840 0.418403 0.833226 -0.219334
O16   O     O_2   0.065283 0.631071 0.747657 -0.185206
O17   O     O_3   0.876289 0.591768 0.856726 -0.482556
H5    H     H_    0.856119 0.519286 0.909536 0.412137
S4    S     S_3+6 0.027449 0.504693 0.233510 0.119482
O18   O     O_2   0.951896 0.388264 0.180645 -0.236068
O19   O     O_2   0.935786 0.613078 0.234017 -0.209463
O20   O     O_3   0.120462 0.538747 0.126952 -0.427121
H6    H     H_    0.083300 0.617048 0.078003 0.425251
S5    S     S_3+6 0.399238 0.743415 0.849359 0.159565
O21   O     O_2   0.303660 0.704783 0.720236 -0.181014
O22   O     O_2   0.325931 0.800114 0.944582 -0.235278
O23   O     O_3   0.497610 0.853375 0.813606 -0.491961
H7    H     H_    0.502196 0.920312 0.883934 0.425078
S6    S     S_3+6 0.393560 0.259088 0.095981 0.147634
O24   O     O_2   0.323674 0.201833 0.960757 -0.212497
O25   O     O_2   0.483621 0.160679 0.176349 -0.258355
O26   O     O_3   0.283718 0.300729 0.180819 -0.486174
H8    H     H_    0.240029 0.221069 0.192083 0.389027
H9    H     H_    0.299215 0.131304 0.449548 0.171638
H10   H     H_    0.697492 0.868849 0.542952 0.224130
S7    S     S_3+6 0.223790 0.876869 0.387676 0.093611
O27   O     O_2   0.168934 0.824056 0.498532 -0.175310
O28   O     O_2   0.132722 0.976665 0.310957 -0.257060
O29   O     O_3   0.236945 0.760660 0.277519 -0.524025
H11   H     H_    0.261170 0.803685 0.200574 0.407113
S8    S     S_3+6 0.769077 0.123885 0.517122 0.063325
O30   O     O_2   0.752071 0.206645 0.392290 -0.291157
O31   O     O_2   0.817080 0.201726 0.644663 -0.260545
O32   O     O_3   0.877847 0.009420 0.511666 -0.465698
H12   H     H_    0.956110 0.054987 0.505999 0.417879

loop_
_geom_bond_atom_site_label_1
_geom_bond_atom_site_label_2
_ccdc_geom_bond_type
O1    Zn1   S    
C2    O2    A    
O11   H3    S    
C4    O6    A    
C11   C12   S    
C6    S2    S    
C1    O1    A    
S8    O30   D    
C3    C9    S    
C9    C11   D    
O14   H4    S    
C2    O4    A    
C13   H9    S    
C13   C15   A    
S3    O15   D    
S7    O29   S    
C14   H10   S    
S6    O26   S    
S4    O19   D    
S1    O9    D    
S6    O24   D    
C5    C7    A    
S7    O27   D    
C5    N2    A    
N2    Zn2   S    
S5    O21   D    
C2    C17   S    
S2    O13   D    
C6    N1    A    
S3    O16   D    
C14   C17   A    
C1    C18   S    
C8    N2    A    
C10   C12   D    
C13   C18   A    
S8    O32   S    
C3    O7    A    
O8    Zn1   S    
S1    O10   D    
C11   H2    S    
O6    Zn2   S    
C1    O3    A    
C7    N1    A    
S5    O22   D    
C12   H1    S    
O5    Zn1   S    
O26   H8    S    
S3    O17   S    
C14   C16   A    
N1    Zn1   S    
S8    O31   D    
C7    S5    S    
S6    O25   D    
O20   H6    S    
C15   S7    S    
O3    Zn2   S    
C3    O5    A    
S1    O11   S    
C16   S8    S    
O23   H7    S    
C9    S4    S    
C16   C18   A    
S2    O14   S    
O32   H12   S    
S5    O23   S    
C15   C17   A    
O7    Zn2   S    
O4    Zn1   S    
S4    O18   D    
C6    C8    A    
O2    Zn2   S    
C8    S6    S    
C10   S3    S    
O17   H5    S    
C4    O8    A    
S4    O20   S    
C4    C10   S    
C5    S1    S    
O29   H11   S    
S7    O28   D    
S2    O12   D    
