data_mof_unit_39636.cif
_audit_creation_date              2012-12-10T18:32:00-0500
_audit_creation_method            fapswitch 2.2
_symmetry_space_group_name_H-M    P1
_symmetry_Int_Tables_number       1
_space_group_crystal_system       triclinic
_cell_length_a                    10.631588
_cell_length_b                    14.958624
_cell_length_c                    15.434294
_cell_angle_alpha                 82.478295
_cell_angle_beta                  89.191231
_cell_angle_gamma                 104.59222
_cell_volume                      2352.12175009

loop_
_atom_site_label
_atom_site_type_symbol
_atom_type_description
_atom_site_fract_x
_atom_site_fract_y
_atom_site_fract_z
_atom_type_partial_charge
C1    C     C_R   0.477449 0.441748 0.662333 0.862944
C2    C     C_R   0.399407 0.443269 0.899182 0.090704
C3    C     C_R   0.368592 0.346740 0.931450 0.181812
C4    C     C_R   0.742331 0.500764 0.499285 0.850074
C5    C     C_R   0.400163 0.509486 0.956885 0.068112
C6    C     C_R   0.396374 0.479758 0.047635 0.068961
C7    C     C_R   0.359425 0.382959 0.078564 -0.236693
C8    C     C_R   0.342772 0.317463 0.020805 -0.244281
C9    C     C_R   0.407398 0.604449 0.927152 -0.240480
C10   C     C_R   0.425383 0.669895 0.985111 -0.248749
C11   C     C_R   0.442924 0.643266 0.073101 0.180290
C12   C     C_3   0.121551 0.498978 0.498485 0.168737
C13   C     C_R   0.431495 0.548078 0.104230 0.086010
C14   C     C_R   0.474337 0.710477 0.130249 -0.219266
C15   C     C_R   0.499040 0.684105 0.217166 -0.218897
C16   C     C_R   0.513773 0.557961 0.337798 0.889836
C17   C     C_R   0.464881 0.524486 0.189493 -0.271244
C18   C     C_R   0.737809 0.851326 0.603598 -0.109311
C19   C     C_R   0.687023 0.758495 0.592336 -0.049862
C20   C     C_R   0.505688 0.792348 0.521298 -0.071053
C21   C     C_R   0.550015 0.887859 0.529760 -0.027399
C22   C     C_R   0.663843 0.916932 0.577815 0.058838
C23   C     C_3   0.039364 0.406692 0.471228 -0.411526
C24   C     C_R   0.485789 0.954585 0.490349 0.089150
C25   C     C_R   0.525911 0.048347 0.507714 0.060672
C26   C     C_R   0.630184 0.073034 0.562447 -0.295363
C27   C     C_R   0.698733 0.009889 0.597427 -0.012479
C28   C     C_R   0.257892 0.499282 0.499717 0.833340
C29   C     C_R   0.385690 0.931164 0.431350 -0.236687
C30   C     C_R   0.325132 0.996822 0.392253 -0.231730
C31   C     C_R   0.360855 0.088021 0.410663 0.170369
C32   C     C_R   0.460592 0.114909 0.469268 0.000552
C33   C     C_R   0.297076 0.152760 0.371091 -0.332917
C34   C     C_3   0.105420 0.581700 0.431434 -0.433724
C35   C     C_R   0.331730 0.243465 0.390392 0.006204
C36   C     C_R   0.489991 0.208037 0.486604 -0.071415
C37   C     C_3   0.928769 0.508788 0.591433 -0.447987
C38   C     C_3   0.073523 0.509320 0.591245 -0.394128
C39   C     C_3   0.896621 0.406834 0.472964 -0.385568
C40   C     C_3   0.962348 0.586720 0.434493 -0.133383
C41   C     C_3   0.879324 0.501075 0.497963 0.134945
C42   C     C_R   0.798476 0.043826 0.660189 0.146060
C43   C     C_R   0.905329 0.120187 0.632816 -0.170677
C44   C     C_R   0.998484 0.152982 0.692007 -0.129420
C45   C     C_R   0.442680 0.406641 0.754682 -0.062440
C46   C     C_R   0.984779 0.110801 0.779105 -0.099474
C47   C     C_R   0.877278 0.036305 0.807319 -0.134557
C48   C     C_R   0.783762 0.003304 0.748345 -0.136791
C49   C     C_R   0.874904 0.876942 0.629135 0.128665
C50   C     C_R   0.911219 0.835403 0.708653 -0.166377
C51   C     C_R   0.041079 0.858264 0.731585 -0.132116
C52   C     C_R   0.135699 0.921734 0.674991 -0.104340
C53   C     C_R   0.100774 0.961873 0.595083 -0.122134
C54   C     C_R   0.971240 0.938825 0.571598 -0.138533
C55   C     C_R   0.910671 0.602369 0.343325 0.114786
C56   C     C_R   0.496686 0.590930 0.246428 -0.046279
C57   C     C_R   0.917075 0.543749 0.279786 -0.144891
C58   C     C_R   0.871528 0.561555 0.196390 -0.144824
C59   C     C_R   0.821644 0.638942 0.174558 -0.102257
C60   C     C_R   0.817214 0.698712 0.236123 -0.141700
C61   C     C_R   0.860141 0.680246 0.320118 -0.149739
C62   C     C_R   0.367888 0.281146 0.874090 -0.216186
C63   C     C_R   0.404252 0.310995 0.785786 -0.207441
C64   C     C_R   0.439430 0.471479 0.811340 -0.271408
H1    H     H_    0.871907 0.448993 0.638617 0.169864
H2    H     H_    0.916038 0.573702 0.614293 0.173901
H3    H     H_    0.396187 0.629379 0.859554 0.147408
H4    H     H_    0.480587 0.783223 0.107589 0.134132
H5    H     H_    0.561035 0.235300 0.531623 0.128164
H6    H     H_    0.282790 0.294239 0.360842 0.125182
H7    H     H_    0.249475 0.975884 0.347135 0.143617
H8    H     H_    0.742077 0.707677 0.610371 0.143552
H9    H     H_    0.418289 0.763650 0.489549 0.128472
H10   H     H_    0.661989 0.142254 0.579784 0.138943
H11   H     H_    0.354115 0.863171 0.411177 0.135406
H12   H     H_    0.139241 0.573501 0.365085 0.160514
H13   H     H_    0.220811 0.133258 0.326091 0.139975
H14   H     H_    0.087443 0.451085 0.639826 0.161825
H15   H     H_    0.842659 0.347830 0.522231 0.174422
H16   H     H_    0.051907 0.345740 0.516922 0.178429
H17   H     H_    0.961654 0.649552 0.466100 0.136723
H18   H     H_    0.168175 0.648840 0.446964 0.165353
H19   H     H_    0.071079 0.398473 0.404304 0.165992
H20   H     H_    0.521092 0.736357 0.260943 0.155374
H21   H     H_    0.340211 0.356280 0.147249 0.144003
H22   H     H_    0.917251 0.153306 0.565415 0.120040
H23   H     H_    0.855062 0.392529 0.409165 0.177261
H24   H     H_    0.081321 0.211042 0.670330 0.128895
H25   H     H_    0.057149 0.136134 0.824817 0.121482
H26   H     H_    0.866402 0.004090 0.874918 0.121042
H27   H     H_    0.700725 0.945712 0.770999 0.117442
H28   H     H_    0.838724 0.786325 0.753170 0.119192
H29   H     H_    0.068323 0.826855 0.793300 0.123980
H30   H     H_    0.236123 0.939623 0.692904 0.123421
H31   H     H_    0.173999 0.011059 0.551489 0.145719
H32   H     H_    0.945644 0.969975 0.509176 0.121140
H33   H     H_    0.130673 0.575750 0.611703 0.182626
H34   H     H_    0.315903 0.243875 0.046540 0.142602
H35   H     H_    0.960432 0.485760 0.293148 0.122095
H36   H     H_    0.876620 0.515952 0.148214 0.132838
H37   H     H_    0.786981 0.652866 0.109833 0.134869
H38   H     H_    0.779792 0.759266 0.218927 0.132308
H39   H     H_    0.854544 0.727339 0.366851 0.127131
H40   H     H_    0.470303 0.454229 0.211838 0.164017
H41   H     H_    0.431124 0.742104 0.960303 0.141362
H42   H     H_    0.341851 0.207092 0.897848 0.130872
H43   H     H_    0.403590 0.259613 0.742329 0.156538
H44   H     H_    0.473752 0.544640 0.786696 0.162763
N1    N     N_R   0.573860 0.731700 0.552730 -0.105236
N2    N     N_R   0.426060 0.268290 0.447230 -0.097403
O1    O     O_R   0.462770 0.383110 0.605620 -0.618797
O2    O     O_R   0.510160 0.531900 0.639510 -0.616508
O3    O     O_R   0.661510 0.425600 0.483070 -0.625216
O4    O     O_R   0.708900 0.574390 0.516960 -0.636602
O5    O     O_R   0.489840 0.468100 0.360490 -0.619358
O6    O     O_R   0.537230 0.616890 0.394380 -0.614341
O7    O     O_R   0.291100 0.425610 0.483040 -0.632236
O8    O     O_R   0.338490 0.574400 0.516930 -0.630601
Zn1   Zn    Zn3+2 0.468350 0.400660 0.477370 0.927100
Zn2   Zn    Zn3+2 0.531650 0.599340 0.522630 0.922983

loop_
_geom_bond_atom_site_label_1
_geom_bond_atom_site_label_2
_ccdc_geom_bond_type
C53   H31   S    
C39   H23   S    
C33   H13   S    
C9    H3    S    
C30   H7    S    
C7    C8    A    
C39   C41   S    
C46   H25   S    
C7    H21   S    
C53   C54   A    
C52   C53   A    
C12   C23   S    
C26   C27   A    
C29   C30   A    
C23   H19   S    
C12   C28   S    
C34   C40   S    
C32   C36   A    
C4    O4    A    
C61   H39   S    
C37   C38   S    
C28   O7    A    
O7    Zn1   S    
C1    O2    A    
C30   C31   A    
C11   C14   A    
C4    C41   S    
C49   C54   A    
C57   H35   S    
O1    Zn1   S    
C18   C19   A    
C8    H34   S    
C24   C29   A    
C33   C35   A    
O3    Zn1   S    
C47   C48   A    
C35   H6    S    
C44   C46   A    
C48   H27   S    
C37   H1    S    
C31   C33   A    
C52   H30   S    
C23   H16   S    
C9    C10   A    
C54   H32   S    
C25   C32   A    
C59   C60   A    
C21   C22   A    
C12   C38   S    
C19   H8    S    
C38   H33   S    
C60   H38   S    
C16   O6    A    
C2    C64   A    
C64   H44   S    
C19   N1    A    
C51   C52   A    
C59   H37   S    
C4    O3    A    
C58   H36   S    
C24   C25   A    
C3    C8    A    
O2    Zn2   S    
C38   H14   S    
C25   C26   A    
C45   C63   A    
O6    Zn2   S    
C60   C61   A    
C39   H15   S    
C43   C44   A    
C16   C56   S    
C5    C9    A    
C62   C63   A    
C31   C32   A    
C40   C55   S    
C37   H2    S    
C50   C51   A    
C42   C48   A    
C17   C56   A    
C6    C7    A    
C35   N2    A    
C51   H29   S    
C62   H42   S    
C50   H28   S    
C40   C41   S    
O5    Zn1   S    
C22   C27   A    
C55   C57   A    
C36   N2    A    
C47   H26   S    
C2    C5    A    
C42   C43   A    
C63   H43   S    
C16   O5    A    
C36   H5    S    
C3    C62   A    
C46   C47   A    
C18   C22   A    
C43   H22   S    
C40   H17   S    
C17   H40   S    
N2    Zn1   S    
C15   H20   S    
C29   H11   S    
C45   C64   A    
C13   C17   A    
C15   C56   A    
C2    C3    A    
C58   C59   A    
C28   O8    A    
C1    O1    A    
C6    C13   A    
C11   C13   A    
C27   C42   S    
C1    C45   S    
C57   C58   A    
C5    C6    A    
C23   C39   S    
C55   C61   A    
C26   H10   S    
C20   H9    S    
C37   C41   S    
O8    Zn2   S    
C10   C11   A    
C20   N1    A    
C20   C21   A    
N1    Zn2   S    
C49   C50   A    
C21   C24   A    
C14   H4    S    
C14   C15   A    
C10   H41   S    
C34   H18   S    
C44   H24   S    
C12   C34   S    
O4    Zn2   S    
C18   C49   S    
C34   H12   S    
