data_mof_unit_56511.cif
_audit_creation_date              2012-12-10T18:59:57-0500
_audit_creation_method            fapswitch 2.2
_symmetry_space_group_name_H-M    P1
_symmetry_Int_Tables_number       1
_space_group_crystal_system       triclinic
_cell_length_a                    10.666887
_cell_length_b                    10.690351
_cell_length_c                    9.841793
_cell_angle_alpha                 90.014983
_cell_angle_beta                  89.871808
_cell_angle_gamma                 89.93967
_cell_volume                      1122.28340904

loop_
_atom_site_label
_atom_site_type_symbol
_atom_type_description
_atom_site_fract_x
_atom_site_fract_y
_atom_site_fract_z
_atom_type_partial_charge
C1    C     C_R   0.500155 0.259918 0.499975 0.897139
C2    C     C_R   0.466804 0.064171 0.618673 -0.229953
C3    C     C_R   0.499226 0.872499 0.499826 0.000364
C4    C     C_R   0.500836 0.127500 0.500186 0.000299
C5    C     C_R   0.435481 0.589120 0.072126 -0.090465
C6    C     C_R   0.564521 0.410882 0.927874 -0.090519
C7    C     C_R   0.435555 0.589157 0.928258 -0.065889
C8    C     C_R   0.564446 0.410846 0.071741 -0.065781
C9    C     C_R   0.260317 0.500265 0.500034 0.933340
C10   C     C_R   0.739681 0.499734 0.499966 0.933345
C11   C     C_R   0.230928 0.200888 0.174171 -0.135235
C12   C     C_R   0.499865 0.740082 0.500027 0.897150
C13   C     C_R   0.768831 0.799530 0.825262 -0.135373
C14   C     C_R   0.172128 0.302838 0.236583 -0.056008
C15   C     C_R   0.827555 0.697433 0.763052 -0.055984
C16   C     C_R   0.133288 0.294793 0.372744 0.136314
C17   C     C_R   0.866702 0.705342 0.626987 0.136034
C18   C     C_R   0.153640 0.183710 0.445568 -0.150159
C19   C     C_R   0.846692 0.816416 0.554048 -0.150114
C20   C     C_R   0.210481 0.081245 0.382015 -0.103632
C21   C     C_R   0.789932 0.919022 0.617409 -0.103500
C22   C     C_R   0.249240 0.089872 0.246523 -0.110328
C23   C     C_R   0.872032 0.499982 0.500221 -0.156943
C24   C     C_R   0.750897 0.910546 0.752811 -0.110267
C25   C     C_R   0.934956 0.400243 0.437489 0.106787
C26   C     C_R   0.065038 0.599767 0.562501 0.106854
C27   C     C_R   0.127963 0.500020 0.499779 -0.157000
C28   C     C_R   0.935207 0.599663 0.563239 -0.078654
C29   C     C_R   0.064783 0.400363 0.436719 -0.078719
C30   C     C_R   0.534178 0.063861 0.381577 -0.171841
C31   C     C_R   0.465904 0.936139 0.618441 -0.171738
C32   C     C_R   0.533269 0.935827 0.381343 -0.229865
H1    H     H_    0.293936 0.010675 0.197821 0.131686
H2    H     H_    0.877077 0.824079 0.449294 0.149312
H3    H     H_    0.224995 0.995288 0.437884 0.171927
H4    H     H_    0.775700 0.004975 0.561461 0.171996
H5    H     H_    0.560701 0.112687 0.289467 0.170855
H6    H     H_    0.439381 0.887315 0.710551 0.170825
H7    H     H_    0.560140 0.886795 0.289404 0.158881
H8    H     H_    0.439927 0.113201 0.710611 0.158879
H9    H     H_    0.383783 0.660322 0.126742 0.134784
H10   H     H_    0.616219 0.339681 0.873257 0.134783
H11   H     H_    0.706289 0.989868 0.801371 0.131785
H12   H     H_    0.384091 0.660496 0.873981 0.153559
H13   H     H_    0.615910 0.339508 0.126018 0.153553
H14   H     H_    0.261284 0.207572 0.069398 0.129632
H15   H     H_    0.738245 0.792959 0.929964 0.129602
H16   H     H_    0.156291 0.387721 0.178980 0.133754
H17   H     H_    0.843107 0.612555 0.820743 0.133840
H18   H     H_    0.123494 0.175939 0.550398 0.149228
I1    I     I_    0.835479 0.245916 0.348723 -0.462092
I2    I     I_    0.164528 0.754112 0.651228 -0.461900
N1    N     N_R   0.499970 0.499970 0.857200 -0.081525
N2    N     N_R   0.500030 0.500030 0.142800 -0.081502
O1    O     O_R   0.499990 0.316750 0.614620 -0.637370
O2    O     O_R   0.500010 0.683250 0.385380 -0.637366
O3    O     O_R   0.499990 0.316780 0.385290 -0.616286
O4    O     O_R   0.500010 0.683220 0.614710 -0.616331
O5    O     O_R   0.316760 0.500000 0.614660 -0.597121
O6    O     O_R   0.683240 0.500000 0.385340 -0.597119
O7    O     O_R   0.316760 0.500020 0.385330 -0.623926
O8    O     O_R   0.683240 0.499980 0.614670 -0.624018
Zn1   Zn    Zn3+2 0.500000 0.499980 0.653120 0.958970
Zn2   Zn    Zn3+2 0.500000 0.500020 0.346880 0.959050

loop_
_geom_bond_atom_site_label_1
_geom_bond_atom_site_label_2
_ccdc_geom_bond_type
O7    Zn2   S    
C2    C4    A    
O2    Zn2   S    
O8    Zn1   S    
C26   I2    S    
C10   C23   S    
C27   C29   A    
C5    C7    A    
C11   C22   A    
C10   O6    A    
C31   H6    S    
O6    Zn2   S    
C1    C4    S    
C12   O4    A    
C17   C28   S    
C25   I1    S    
C1    O1    A    
C21   H4    S    
C12   O2    A    
C23   C28   A    
C15   H17   S    
C3    C31   A    
N1    Zn1   S    
C9    C27   S    
C26   C27   A    
C10   O8    A    
N2    Zn2   S    
C22   H1    S    
C14   H16   S    
C9    O7    A    
C18   C20   A    
C13   H15   S    
C17   C19   A    
C20   C22   A    
C1    O3    A    
C23   C25   A    
C13   C15   A    
C25   C29   A    
C3    C32   A    
C13   C24   A    
C11   C14   A    
C14   C16   A    
O5    Zn1   S    
C21   C24   A    
C7    N1    A    
C6    N1    A    
C30   C32   A    
C2    H8    S    
C5    N2    A    
C18   H18   S    
O3    Zn2   S    
C16   C18   A    
C6    H10   S    
C32   H7    S    
C8    N2    A    
O4    Zn1   S    
C15   C17   A    
C24   H11   S    
C5    H9    S    
C8    H13   S    
C11   H14   S    
C6    C8    A    
C3    C12   S    
C19   C21   A    
C16   C29   S    
C7    H12   S    
C20   H3    S    
C26   C28   A    
C4    C30   A    
C30   H5    S    
C2    C31   A    
C9    O5    A    
C19   H2    S    
O1    Zn1   S    
