data_mof_unit_21174.cif
_audit_creation_date              2012-10-26T20:04:21-0400
_audit_creation_method            fapswitch 2.2
_symmetry_space_group_name_H-M    P1
_symmetry_Int_Tables_number       1
_space_group_crystal_system       triclinic
_cell_length_a                    15.027505
_cell_length_b                    13.853872
_cell_length_c                    14.306502
_cell_angle_alpha                 90.198876
_cell_angle_beta                  85.515503
_cell_angle_gamma                 89.041074
_cell_volume                      2968.88975713

loop_
_atom_site_label
_atom_site_type_symbol
_atom_type_description
_atom_site_fract_x
_atom_site_fract_y
_atom_site_fract_z
_atom_type_partial_charge
C1    C     C_R   0.329102 0.500702 0.501648 0.644384
C2    C     C_R   0.969350 0.444226 0.335821 0.251614
C3    C     C_R   0.438990 0.798717 0.558037 0.374676
C4    C     C_R   0.567055 0.201695 0.448553 0.318219
C5    C     C_R   0.553952 0.793093 0.431360 0.344706
C6    C     C_R   0.432688 0.205568 0.551271 0.379467
C7    C     C_R   0.552229 0.896417 0.431251 -0.017167
C8    C     C_R   0.417871 0.105127 0.531860 -0.036711
C9    C     C_R   0.420047 0.898202 0.536826 -0.039885
C10   C     C_R   0.564744 0.098792 0.450930 -0.014392
C11   C     C_R   0.487092 0.948239 0.487202 -0.084115
C12   C     C_R   0.670998 0.499296 0.500658 0.667064
C13   C     C_R   0.488649 0.051426 0.489156 -0.079570
C14   C     C_R   0.608285 0.953439 0.371024 0.294917
C15   C     C_R   0.336385 0.054947 0.554283 0.267456
C16   C     C_R   0.338049 0.950307 0.560900 0.261077
C17   C     C_R   0.634892 0.038362 0.412334 0.290922
C18   C     C_R   0.498863 0.499935 0.331289 0.592257
C19   C     C_R   0.499697 0.500151 0.668815 0.589326
C20   C     C_1   0.498699 0.499855 0.228968 0.064601
C21   C     C_1   0.499513 0.500470 0.771144 0.088945
C22   C     C_1   0.498782 0.499987 0.143490 0.050288
C23   C     C_R   0.953623 0.499697 0.500508 -0.147178
C24   C     C_1   0.499298 0.500532 0.856630 0.045916
C25   C     C_1   0.498934 0.500221 0.042811 0.087600
C26   C     C_1   0.499082 0.500405 0.957310 0.082570
C27   C     C_R   0.819999 0.476608 0.418292 0.398959
C28   C     C_R   0.180971 0.524446 0.584219 0.396282
C29   C     C_R   0.767673 0.497941 0.500775 0.039022
C30   C     C_R   0.232868 0.502378 0.501786 0.038349
C31   C     C_R   0.806447 0.520786 0.582795 0.361439
C32   C     C_R   0.194224 0.479970 0.419710 0.369769
C33   C     C_R   0.899575 0.523676 0.583267 0.011620
C34   C     C_R   0.047216 0.502317 0.501611 -0.146954
C35   C     C_R   0.101222 0.477874 0.419020 0.012818
C36   C     C_R   0.913878 0.472704 0.417077 -0.037089
C37   C     C_R   0.087072 0.529620 0.584913 -0.034457
C38   C     C_R   0.938934 0.551921 0.664635 0.433664
C39   C     C_R   0.062076 0.450387 0.337401 0.444402
C40   C     C_R   0.031668 0.559526 0.665479 0.234664
Cu1   Cu    Cu3+1 0.500000 0.597420 0.500000 1.217389
Cu2   Cu    Cu3+1 0.500000 0.402580 0.500000 1.210007
F1    F     F_    0.777548 0.466327 0.339187 -0.534008
F2    F     F_    0.223780 0.532753 0.663684 -0.533366
F3    F     F_    0.752287 0.542060 0.661102 -0.539557
F4    F     F_    0.248485 0.458426 0.341520 -0.544930
F5    F     F_    0.886372 0.572815 0.743912 -0.490559
F6    F     F_    0.115026 0.428827 0.258609 -0.502545
H1    H     H_    0.978824 0.729004 0.800851 0.372878
H2    H     H_    0.804282 0.915573 0.539129 0.390183
H3    H     H_    0.022011 0.393898 0.110422 0.398997
H4    H     H_    0.343820 0.659693 0.758701 0.387718
H5    H     H_    0.623497 0.329309 0.259662 0.354709
H6    H     H_    0.685996 0.608616 0.273862 0.399926
H7    H     H_    0.465435 0.279089 0.790954 0.368903
H8    H     H_    0.543191 0.090486 0.167919 0.393319
H9    H     H_    0.130624 0.124894 0.450687 0.392599
H10   H     H_    0.102772 0.885941 0.540626 0.376536
N1    N     N_R   0.500000 0.743810 0.500000 -0.274083
N2    N     N_R   0.500000 0.256190 0.500000 -0.270589
O1    O     O_R   0.370260 0.582280 0.500020 -0.468630
O2    O     O_2   0.143728 0.685979 0.736653 -0.165865
O3    O     O_3   0.993638 0.669755 0.835415 -0.376164
O4    O     O_2   0.861089 0.317598 0.260004 -0.097179
O5    O     O_2   0.880663 0.473587 0.181855 -0.189357
O6    O     O_3   0.007741 0.344609 0.159074 -0.384998
O7    O     O_2   0.377281 0.850865 0.734248 -0.203686
O8    O     O_2   0.505867 0.742298 0.717250 -0.242336
O9    O     O_3   0.349652 0.672938 0.690522 -0.409461
O10   O     O_2   0.733558 0.271532 0.446418 -0.182257
O11   O     O_2   0.702209 0.181073 0.308556 -0.192378
O12   O     O_R   0.629740 0.417720 0.499980 -0.437192
O13   O     O_3   0.644019 0.351903 0.320042 -0.429685
O14   O     O_2   0.572817 0.744354 0.249742 -0.222118
O15   O     O_2   0.707709 0.796100 0.318402 -0.205111
O16   O     O_3   0.661744 0.623773 0.338753 -0.471415
O17   O     O_2   0.342598 0.335668 0.668702 -0.202944
O18   O     O_2   0.342877 0.167824 0.719529 -0.208150
O19   O     O_3   0.488606 0.260799 0.726486 -0.493874
O20   O     O_2   0.646775 0.930652 0.185802 -0.136820
O21   O     O_2   0.489062 0.918596 0.243739 -0.215553
O22   O     O_3   0.558977 0.087766 0.233799 -0.513359
O23   O     O_R   0.629740 0.582280 0.499980 -0.438250
O24   O     O_2   0.169024 0.095037 0.630449 -0.153948
O25   O     O_2   0.244938 0.227788 0.547313 -0.240437
O26   O     O_3   0.189304 0.090901 0.447964 -0.431216
O27   O     O_2   0.252409 0.777869 0.565914 -0.236210
O28   O     O_2   0.203733 0.898829 0.685176 -0.147457
O29   O     O_3   0.157065 0.920071 0.516131 -0.432409
O30   O     O_2   0.812386 0.055415 0.406502 -0.154472
O31   O     O_2   0.727530 0.096933 0.555356 -0.216226
O32   O     O_3   0.747035 0.915860 0.509192 -0.498347
O33   O     O_R   0.370260 0.417720 0.500020 -0.453519
O34   O     O_R   0.500000 0.582290 0.376050 -0.452442
O35   O     O_R   0.500000 0.417710 0.623950 -0.448282
O36   O     O_R   0.500000 0.582290 0.623950 -0.438623
O37   O     O_R   0.500000 0.417710 0.376050 -0.476684
O38   O     O_2   0.115692 0.535749 0.822850 -0.122882
S1    S     S_3+6 0.074117 0.613176 0.766281 0.187243
S2    S     S_3+6 0.733405 0.029887 0.472158 0.113071
S3    S     S_3+6 0.926993 0.394909 0.232779 0.197552
S4    S     S_3+6 0.418382 0.767208 0.678248 0.129994
S5    S     S_3+6 0.662613 0.251790 0.380821 0.153484
S6    S     S_3+6 0.624511 0.737862 0.335288 0.117182
S7    S     S_3+6 0.397228 0.243865 0.668009 0.122401
S8    S     S_3+6 0.574992 0.969743 0.255437 0.117761
S9    S     S_3+6 0.233079 0.120411 0.548632 0.137559
S10   S     S_3+6 0.237160 0.883888 0.584302 0.140688

loop_
_geom_bond_atom_site_label_1
_geom_bond_atom_site_label_2
_ccdc_geom_bond_type
O16   S6    S    
C30   C32   A    
C8    C13   A    
H1    O3    S    
C12   C29   S    
C27   C29   A    
C34   C37   A    
Cu1   Cu2   S    
O26   S9    S    
C14   C17   A    
Cu1   O1    S    
C40   S1    S    
O9    S4    S    
C7    C11   A    
Cu1   O23   S    
O18   S7    D    
C19   C21   S    
C9    C16   A    
O8    S4    D    
C37   C40   A    
O28   S10   D    
Cu1   O36   S    
C10   C17   A    
C15   C16   A    
Cu2   O33   S    
C4    S5    S    
O20   S8    D    
O24   S9    D    
H9    O26   S    
O19   S7    S    
C34   C35   A    
C15   S9    S    
O3    S1    S    
H4    O9    S    
C2    C39   A    
C7    C14   A    
O27   S10   D    
C23   C33   A    
C22   C25   S    
C31   C33   A    
C18   O37   A    
O5    S3    D    
O31   S2    D    
C12   O12   A    
C5    S6    S    
O6    S3    S    
O30   S2    D    
H10   O29   S    
O4    S3    D    
C5    N1    A    
Cu2   O35   S    
C32   C35   A    
C6    N2    A    
Cu1   N1    S    
Cu2   O37   S    
Cu2   N2    S    
C5    C7    A    
O10   S5    D    
C6    C8    A    
C2    S3    S    
C25   C26   T    
C28   F2    S    
C12   O23   A    
H3    O6    S    
C35   C39   A    
C3    C9    A    
H7    O19   S    
Cu1   O34   S    
O13   S5    S    
C23   C34   A    
C4    N2    A    
Cu2   O12   S    
C9    C11   A    
C38   F5    S    
H6    O16   S    
C3    S4    S    
H2    O32   S    
C20   C22   T    
C23   C36   A    
C8    C15   A    
O15   S6    D    
C18   O34   A    
C4    C10   A    
C19   O35   A    
O32   S2    S    
O14   S6    D    
C2    C36   A    
O11   S5    D    
O21   S8    D    
C32   F4    S    
H5    O13   S    
C24   C26   S    
C10   C13   A    
C1    O1    A    
H8    O22   S    
C27   C36   A    
C33   C38   A    
O17   S7    D    
C29   C31   A    
C38   C40   A    
C11   C13   A    
C28   C37   A    
O29   S10   S    
C28   C30   A    
C1    C30   S    
C6    S7    S    
C18   C20   S    
O22   S8    S    
C17   S2    S    
C16   S10   S    
O2    S1    D    
C27   F1    S    
C14   S8    S    
C1    O33   A    
O38   S1    D    
C31   F3    S    
C21   C24   T    
O25   S9    D    
C19   O36   A    
O7    S4    D    
C39   F6    S    
C3    N1    A    
