data_mof_unit_59944.cif
_audit_creation_date              2012-12-10T16:49:26-0500
_audit_creation_method            fapswitch 2.2
_symmetry_space_group_name_H-M    P1
_symmetry_Int_Tables_number       1
_space_group_crystal_system       triclinic
_cell_length_a                    7.839482
_cell_length_b                    8.55945
_cell_length_c                    12.866673
_cell_angle_alpha                 88.748496
_cell_angle_beta                  88.460328
_cell_angle_gamma                 93.293996
_cell_volume                      861.400833118

loop_
_atom_site_label
_atom_site_type_symbol
_atom_type_description
_atom_site_fract_x
_atom_site_fract_y
_atom_site_fract_z
_atom_type_partial_charge
C1    C     C_R   0.455242 0.205675 0.497373 0.963627
C2    C     C_R   0.708396 0.460998 0.141897 -0.179723
C3    C     C_R   0.589106 0.473675 0.869563 -0.261085
C4    C     C_R   0.410859 0.526138 0.130442 -0.261093
C5    C     C_R   0.578051 0.481536 0.975935 0.179991
C6    C     C_R   0.421902 0.518241 0.024071 0.179991
C7    C     C_2   0.431617 0.042232 0.495896 -0.359518
C8    C     C_2   0.568384 0.957768 0.504102 -0.359524
C9    C     C_R   0.544759 0.794325 0.502627 0.963642
C10   C     C_R   0.466657 0.502102 0.699498 0.880310
C11   C     C_R   0.533340 0.497880 0.300503 0.880319
C12   C     C_R   0.552792 0.496003 0.189417 -0.047407
C13   C     C_R   0.447193 0.503893 0.810585 -0.047401
C14   C     C_R   0.278927 0.545962 0.965271 -0.215529
C15   C     C_R   0.721030 0.453833 0.034735 -0.215533
C16   C     C_R   0.291581 0.538873 0.858106 -0.179716
H1    H     H_    0.290592 0.554739 0.166960 0.178107
H2    H     H_    0.709375 0.445075 0.833045 0.178104
H3    H     H_    0.818884 0.437485 0.187246 0.178768
H4    H     H_    0.181104 0.562436 0.812756 0.178772
H5    H     H_    0.158656 0.573816 0.001961 0.145574
H6    H     H_    0.841298 0.425975 0.998045 0.145579
H7    H     H_    0.302076 0.991952 0.488079 0.203879
H8    H     H_    0.697926 0.008048 0.511918 0.203880
I1    I     I_    0.984853 0.706645 0.362893 -0.274705
I2    I     I_    0.015146 0.293350 0.637103 -0.274723
N1    N     N_2   0.054030 0.541640 0.471970 0.022748
N2    N     N_2   0.945970 0.458360 0.528030 0.022747
O1    O     O_R   0.609680 0.261530 0.506880 -0.605806
O2    O     O_R   0.390320 0.738470 0.493120 -0.605801
O3    O     O_R   0.323330 0.288220 0.488910 -0.602684
O4    O     O_R   0.676670 0.711780 0.511090 -0.602679
O5    O     O_R   0.619510 0.488830 0.661140 -0.617305
O6    O     O_R   0.380490 0.511170 0.338860 -0.617312
O7    O     O_R   0.333160 0.515520 0.643180 -0.612421
O8    O     O_R   0.666840 0.484480 0.356820 -0.612421
Zn1   Zn    Zn3+2 0.691200 0.482180 0.511990 1.023174
Zn2   Zn    Zn3+2 0.308800 0.517820 0.488010 1.023174

loop_
_geom_bond_atom_site_label_1
_geom_bond_atom_site_label_2
_ccdc_geom_bond_type
C11   C12   S    
C10   O7    A    
C4    C12   A    
I2    N2    S    
C3    C13   A    
O3    Zn2   S    
C16   H4    S    
C2    C12   A    
C1    O1    A    
C7    C8    D    
C1    C7    S    
O4    Zn1   S    
C2    C15   A    
N2    Zn1   S    
C7    H7    S    
C4    H1    S    
C9    O2    A    
C14   H5    S    
C11   O8    A    
C8    H8    S    
C10   O5    A    
C15   H6    S    
C5    C6    A    
C14   C16   A    
C5    C15   A    
C6    C14   A    
N1    Zn2   S    
C1    O3    A    
O7    Zn2   S    
O2    Zn2   S    
C3    H2    S    
C4    C6    A    
C13   C16   A    
O1    Zn1   S    
N1    N2    D    
O8    Zn1   S    
C9    O4    A    
C2    H3    S    
O6    Zn2   S    
C10   C13   S    
C11   O6    A    
O5    Zn1   S    
C8    C9    S    
C3    C5    A    
I1    N1    S    
