data_mof_unit_62449.cif
_audit_creation_date              2012-12-10T19:31:51-0500
_audit_creation_method            fapswitch 2.2
_symmetry_space_group_name_H-M    P1
_symmetry_Int_Tables_number       1
_space_group_crystal_system       triclinic
_cell_length_a                    18.704869
_cell_length_b                    18.692747
_cell_length_c                    18.756879
_cell_angle_alpha                 109.432657
_cell_angle_beta                  109.558688
_cell_angle_gamma                 109.310642
_cell_volume                      5055.47619819

loop_
_atom_site_label
_atom_site_type_symbol
_atom_type_description
_atom_site_fract_x
_atom_site_fract_y
_atom_site_fract_z
_atom_type_partial_charge
C1    C     C_R   0.380026 0.380085 0.499994 0.871228
C2    C     C_R   0.258420 0.183255 0.503608 0.134425
C3    C     C_3   0.303489 0.130937 0.505733 -0.472961
C4    C     C_R   0.618531 0.497995 0.620630 0.828624
C5    C     C_3   0.373673 0.201063 0.503569 -0.492098
C6    C     C_R   0.303351 0.478825 0.233179 0.142311
C7    C     C_R   0.311120 0.498818 0.314201 -0.153113
C8    C     C_R   0.251759 0.521192 0.332236 -0.208392
C9    C     C_R   0.187034 0.523774 0.269408 0.089593
C10   C     C_R   0.182941 0.503665 0.187540 -0.116471
C11   C     C_R   0.243105 0.482886 0.173362 0.091746
C12   C     C_3   0.806589 0.501190 0.811761 0.110748
C13   C     C_3   0.271806 0.458454 0.108187 -0.512718
C14   C     C_3   0.342333 0.455273 0.177527 -0.237197
C15   C     C_R   0.729841 0.664221 0.455432 -0.032710
C16   C     C_R   0.621039 0.620474 0.500677 0.864658
C17   C     C_R   0.692123 0.687094 0.505801 -0.081520
C18   C     C_R   0.726291 0.776001 0.563706 -0.188662
C19   C     C_R   0.788678 0.840028 0.561557 -0.202412
C20   C     C_R   0.815820 0.814903 0.501106 -0.011891
C21   C     C_R   0.790587 0.727577 0.452611 -0.037624
C22   C     C_3   0.756025 0.670815 0.357168 0.001999
C23   C     C_3   0.846788 0.575449 0.792848 -0.410382
C24   C     C_3   0.688923 0.599528 0.360940 -0.200088
C25   C     C_R   0.998101 0.380090 0.878216 0.882365
C26   C     C_R   0.876331 0.501998 0.878736 0.814480
C27   C     C_R   0.997225 0.620133 0.116969 0.845977
C28   C     C_R   0.378949 0.499712 0.379331 0.890022
C29   C     C_R   0.117718 0.501080 0.118885 0.870086
C30   C     C_R   0.999553 0.120034 0.619432 0.878288
C31   C     C_R   0.119864 0.120058 0.500123 0.881607
C32   C     C_R   0.000905 0.880073 0.380252 0.856940
C33   C     C_R   0.880255 0.879747 0.499581 0.850845
C34   C     C_3   0.741054 0.516074 0.841743 -0.147650
C35   C     C_R   0.923557 0.244410 0.741195 0.126409
C36   C     C_R   0.000166 0.314949 0.814523 -0.093658
C37   C     C_R   0.080353 0.321621 0.823918 -0.212187
C38   C     C_R   0.080675 0.256578 0.759717 -0.204629
C39   C     C_R   0.000919 0.186749 0.685236 -0.100264
C40   C     C_3   0.689897 0.412497 0.652535 -0.385010
C41   C     C_R   0.923979 0.183867 0.678339 0.129535
C42   C     C_3   0.826916 0.132847 0.622989 -0.480033
C43   C     C_3   0.826519 0.203081 0.694861 -0.487171
C44   C     C_R   0.945024 0.719991 0.161584 0.096683
C45   C     C_R   0.319037 0.243771 0.500917 0.126331
C46   C     C_R   0.000154 0.686995 0.183963 -0.037063
C47   C     C_R   0.067110 0.728319 0.270317 -0.212382
C48   C     C_R   0.069298 0.793832 0.335679 -0.205351
C49   C     C_R   0.005081 0.818227 0.313667 -0.106509
C50   C     C_R   0.947210 0.784764 0.225845 0.155349
C51   C     C_3   0.850034 0.744984 0.178459 -0.432827
C52   C     C_3   0.757634 0.412417 0.726307 -0.388311
C53   C     C_3   0.847764 0.673306 0.107726 -0.521631
C54   C     C_3   0.774264 0.576155 0.724163 -0.458302
C55   C     C_3   0.665502 0.508657 0.766320 -0.081358
C56   C     C_R   0.313313 0.315043 0.499196 -0.093179
C57   C     C_3   0.684657 0.497475 0.689113 0.116806
C58   C     C_2   0.332328 0.365643 0.151374 0.506846
C59   C     C_2   0.823535 0.653912 0.339091 0.322176
C60   C     C_2   0.699443 0.520685 0.349667 0.528095
C61   C     C_2   0.708508 0.462300 0.881032 0.497756
C62   C     C_R   0.240639 0.322622 0.498292 -0.202589
C63   C     C_R   0.175582 0.257599 0.497759 -0.210803
C64   C     C_R   0.185014 0.186871 0.500974 -0.098886
H1    H     H_    0.710045 0.409206 0.602495 0.192583
H2    H     H_    0.376389 0.176396 0.442367 0.217146
H3    H     H_    0.255539 0.536836 0.394925 0.170868
H4    H     H_    0.625322 0.352769 0.619120 0.160424
H5    H     H_    0.220685 0.394223 0.048590 0.220645
H6    H     H_    0.299168 0.512686 0.095857 0.193985
H7    H     H_    0.410168 0.507561 0.205082 0.120220
H8    H     H_    0.702312 0.796121 0.607588 0.166734
H9    H     H_    0.813098 0.908502 0.604290 0.132127
H10   H     H_    0.619996 0.582681 0.322182 0.173195
H11   H     H_    0.724696 0.357158 0.735034 0.225590
H12   H     H_    0.778416 0.585062 0.895850 0.038526
H13   H     H_    0.141802 0.375843 0.880690 0.154977
H14   H     H_    0.142435 0.261371 0.767498 0.163899
H15   H     H_    0.803988 0.133188 0.560308 0.213809
H16   H     H_    0.798881 0.067426 0.617445 0.198410
H17   H     H_    0.803999 0.244424 0.673895 0.194125
H18   H     H_    0.797680 0.178128 0.730431 0.218921
H19   H     H_    0.115080 0.707743 0.287312 0.129411
H20   H     H_    0.118644 0.822586 0.402916 0.169478
H21   H     H_    0.819330 0.721328 0.213367 0.217508
H22   H     H_    0.804962 0.400895 0.707423 0.146115
H23   H     H_    0.774414 0.638694 0.753839 0.179190
H24   H     H_    0.829364 0.786849 0.156696 0.198498
H25   H     H_    0.816073 0.608230 0.102023 0.238318
H26   H     H_    0.825698 0.674012 0.045294 0.182254
H27   H     H_    0.787682 0.573151 0.669984 0.178086
H28   H     H_    0.891362 0.565552 0.768429 0.198703
H29   H     H_    0.666314 0.572070 0.793011 0.152949
H30   H     H_    0.087000 0.552906 0.242633 0.189922
H31   H     H_    0.167189 0.611107 0.346162 0.170806
H32   H     H_    0.387337 0.356518 0.154157 0.067086
H33   H     H_    0.762708 0.755596 0.309195 0.192817
H34   H     H_    0.886175 0.640243 0.853720 0.178626
H35   H     H_    0.678794 0.653152 0.238368 0.211379
H36   H     H_    0.892233 0.693541 0.388891 0.073118
H37   H     H_    0.762203 0.528437 0.388952 0.047471
H38   H     H_    0.529788 0.445307 0.696685 0.183985
H39   H     H_    0.569601 0.377854 0.704935 0.219820
H40   H     H_    0.716754 0.495259 0.945310 0.041987
H41   H     H_    0.233734 0.377488 0.496771 0.160106
H42   H     H_    0.119195 0.263034 0.496020 0.162406
H43   H     H_    0.327338 0.130292 0.568211 0.216764
H44   H     H_    0.265264 0.065881 0.445525 0.201178
H45   H     H_    0.437882 0.241270 0.564984 0.193535
N1    N     N_3   0.128886 0.548175 0.291720 -0.436066
N2    N     N_3   0.714216 0.702584 0.303758 -0.442664
N3    N     N_3   0.578536 0.439950 0.738573 -0.441054
O1    O     O_R   0.408690 0.356690 0.448570 -0.611970
O2    O     O_R   0.947510 0.091650 0.539220 -0.622018
O3    O     O_R   0.143610 0.091630 0.552030 -0.621309
O4    O     O_R   0.408080 0.460090 0.551420 -0.630808
O5    O     O_R   0.039620 0.091690 0.448080 -0.619363
O6    O     O_R   0.052490 0.908450 0.460880 -0.628787
O7    O     O_R   0.948500 0.908500 0.356930 -0.626117
O8    O     O_R   0.960380 0.908410 0.552020 -0.619528
O9    O     O_R   0.856390 0.908470 0.448070 -0.624105
O10   O     O_R   0.592400 0.448300 0.540680 -0.625807
O11   O     O_R   0.591790 0.551700 0.643540 -0.638554
O12   O     O_R   0.049530 0.460080 0.906210 -0.624612
O13   O     O_R   0.591920 0.539910 0.448580 -0.610370
O14   O     O_R   0.591310 0.643310 0.551430 -0.626968
O15   O     O_R   0.408210 0.448300 0.356460 -0.610778
O16   O     O_R   0.407600 0.551700 0.459320 -0.629163
O17   O     O_R   0.946090 0.356720 0.906270 -0.613113
O18   O     O_2   0.263259 0.302967 0.126636 -0.552072
O19   O     O_2   0.801567 0.596740 0.267789 -0.556079
O20   O     O_2   0.637114 0.447316 0.296461 -0.569181
O21   O     O_2   0.671558 0.382525 0.841239 -0.568946
O22   O     O_R   0.853510 0.448360 0.905260 -0.599105
O23   O     O_R   0.956950 0.551730 0.905200 -0.631011
O24   O     O_R   0.945130 0.540000 0.088470 -0.615796
O25   O     O_R   0.048570 0.643360 0.088400 -0.622745
O26   O     O_R   0.037700 0.448350 0.089480 -0.608199
O27   O     O_R   0.141150 0.551720 0.089410 -0.626467
O28   O     O_R   0.051500 0.091600 0.643170 -0.617646
Zn1   Zn    Zn3+2 0.500410 0.430960 0.431320 1.002067
Zn2   Zn    Zn3+2 0.499590 0.569040 0.568680 0.942814
Zn3   Zn    Zn3+2 0.928260 0.431020 0.997380 1.009534
Zn4   Zn    Zn3+2 0.066400 0.569060 0.997290 0.951572
Zn5   Zn    Zn3+2 0.069430 0.000010 0.569450 0.961161
Zn6   Zn    Zn3+2 0.930570 0.000090 0.430650 0.951658

loop_
_geom_bond_atom_site_label_1
_geom_bond_atom_site_label_2
_ccdc_geom_bond_type
C41   C42   S    
C42   H16   S    
C55   N3    S    
C14   H7    S    
H38   N3    S    
C35   C36   A    
C55   H29   S    
C52   H11   S    
C25   O17   A    
C60   O20   D    
C61   O21   D    
C7    C8    A    
C39   C41   A    
C62   H41   S    
O7    Zn6   S    
C29   O26   A    
C12   C23   S    
C59   O19   D    
C62   C63   A    
C13   H5    S    
C27   O24   A    
C36   C37   A    
C1    C56   S    
O24   Zn3   S    
O26   Zn3   S    
C30   O2    A    
C38   C39   A    
H33   N2    S    
C13   H6    S    
C18   C19   A    
O15   Zn1   S    
C58   H32   S    
C31   O5    A    
C26   O23   A    
O22   Zn3   S    
C44   C53   S    
C19   C20   A    
C45   C56   A    
C44   C46   A    
C16   C17   S    
C4    C57   S    
C1    O4    A    
C47   H19   S    
C35   C43   S    
C9    C10   A    
C28   O15   A    
C42   H15   S    
C13   C14   S    
C33   O9    A    
C59   H36   S    
C51   H21   S    
C1    O1    A    
C29   O27   A    
C31   O3    A    
C12   C52   S    
C2    C64   A    
C50   C51   S    
O13   Zn1   S    
C2    C45   A    
C18   H8    S    
C14   C58   S    
C30   O28   A    
C19   H9    S    
C61   H40   S    
O2    Zn6   S    
O8    Zn5   S    
C6    C11   A    
C8    C9    A    
C38   H14   S    
C3    H43   S    
C40   C52   S    
C5    C45   S    
O14   Zn2   S    
C34   C61   S    
C7    C28   S    
C48   H20   S    
C4    O11   A    
C12   C26   S    
H39   N3    S    
C51   C53   S    
O28   Zn5   S    
C37   C38   A    
C26   O22   A    
C6    C14   S    
O27   Zn4   S    
C47   C48   A    
C15   C21   A    
C24   C60   S    
H35   N2    S    
C17   C18   A    
C4    O10   A    
C27   O25   A    
C63   H42   S    
C8    H3    S    
O4    Zn2   S    
C20   C33   S    
C27   C46   S    
C48   C49   A    
O25   Zn4   S    
C49   C50   A    
C40   H1    S    
C55   C57   S    
C53   H25   S    
C43   H17   S    
C56   C62   A    
C42   C43   S    
C32   O7    A    
C12   C34   S    
C60   H37   S    
C22   C59   S    
C23   C54   S    
C16   O13   A    
C44   C50   A    
C9    N1    S    
C15   C17   A    
C37   H13   S    
C46   C47   A    
O23   Zn4   S    
C40   C57   S    
C23   H28   S    
C31   C64   S    
O6    Zn5   S    
O12   Zn4   S    
C32   O6    A    
C5    H2    S    
C3    C5    S    
H31   N1    S    
C51   H24   S    
C6    C7    A    
O17   Zn3   S    
C3    H44   S    
O3    Zn5   S    
C52   H22   S    
C2    C3    S    
C54   H27   S    
C15   C24   S    
C11   C13   S    
C10   C29   S    
C24   H10   S    
C54   H23   S    
C5    H45   S    
C58   O18   D    
O11   Zn2   S    
H30   N1    S    
C30   C39   S    
C22   C24   S    
O1    Zn1   S    
C35   C41   A    
C25   O12   A    
C32   C49   S    
C16   O14   A    
C10   C11   A    
C25   C36   S    
C63   C64   A    
C34   C55   S    
C23   H34   S    
C20   C21   A    
C33   O8    A    
C22   N2    S    
C40   H4    S    
C53   H26   S    
C43   H18   S    
O9    Zn6   S    
O5    Zn6   S    
O10   Zn1   S    
C21   C22   S    
O16   Zn2   S    
C28   O16   A    
C34   H12   S    
C54   C57   S    
