data_mof_unit_38147.cif
_audit_creation_date              2012-12-11T14:33:10-0500
_audit_creation_method            fapswitch 2.2
_symmetry_space_group_name_H-M    P1
_symmetry_Int_Tables_number       1
_space_group_crystal_system       triclinic
_cell_length_a                    6.964757
_cell_length_b                    14.197783
_cell_length_c                    17.68996
_cell_angle_alpha                 112.725648
_cell_angle_beta                  95.924649
_cell_angle_gamma                 89.965604
_cell_volume                      1603.36335011

loop_
_atom_site_label
_atom_site_type_symbol
_atom_type_description
_atom_site_fract_x
_atom_site_fract_y
_atom_site_fract_z
_atom_type_partial_charge
O1    O     O_R   0.484560 0.544530 0.414330 -0.545034
O2    O     O_R   0.197040 0.638810 0.585080 -0.536597
O3    O     O_R   0.026800 0.455470 0.585670 -0.545358
C1    C     C_R   0.374123 0.679950 0.609076 0.661826
O4    O     O_R   0.155000 0.556150 0.414940 -0.536417
O5    O     O_R   0.984450 0.372220 0.414320 -0.536396
C2    C     C_R   0.317362 0.565471 0.386532 0.737329
O6    O     O_R   0.526900 0.627780 0.585680 -0.540384
O7    O     O_3   0.339170 0.439750 0.499990 -0.377555
V1    V     V_3+5 0.064350 0.511180 0.500000 1.377683
O8    O     O_R   0.654880 0.361190 0.414920 -0.543724
C3    C     C_R   0.817897 0.324299 0.387515 0.753478
O9    O     O_R   0.696930 0.443850 0.585060 -0.534811
C4    C     C_R   0.873655 0.422449 0.606010 0.700276
V2    V     V_3+5 0.564340 0.488820 0.500000 1.370904
O10   O     O_3   0.839390 0.560250 0.500010 -0.372700
C5    C     C_R   0.036235 0.851092 0.814726 -0.049362
C6    C     C_R   0.910448 0.378202 0.671709 -0.164758
C7    C     C_R   0.893037 0.811872 0.673690 -0.121906
C8    C     C_R   0.935412 0.784001 0.740734 -0.151452
C9    C     C_R   0.078015 0.950740 0.821897 -0.207729
C10   C     C_R   0.010079 0.985503 0.757976 0.105432
C11   C     C_R   0.925546 0.912618 0.682186 0.103844
C12   C     C_R   0.012690 0.090594 0.768710 0.007545
C13   C     C_R   0.944488 0.122384 0.702942 0.079876
C14   C     C_R   0.865022 0.044536 0.628136 -0.117735
C15   C     C_R   0.858902 0.942198 0.617819 -0.205884
C16   C     C_R   0.060443 0.164455 0.846988 -0.250659
C17   C     C_R   0.033304 0.266269 0.864915 0.338178
C18   C     C_R   0.995422 0.302245 0.799785 -0.008351
C19   C     C_R   0.949323 0.230567 0.716753 -0.018782
C20   C     C_R   0.009830 0.408232 0.816656 0.100612
C21   C     C_R   0.970080 0.446029 0.753292 0.117107
C22   C     C_R   0.912593 0.270000 0.652250 0.261575
H1    H     H_    0.790603 0.886090 0.560082 0.146461
H2    H     H_    0.820375 0.756441 0.616872 0.145762
H3    H     H_    0.879722 0.711338 0.734770 0.106712
H4    H     H_    0.159506 0.998853 0.878992 0.103772
H5    H     H_    0.790327 0.059685 0.578151 0.198279
H6    H     H_    0.099635 0.144743 0.899026 0.119652
H7    H     H_    0.115170 0.222496 0.314731 0.159905
C23   C     C_2   0.130431 0.040021 0.179938 -0.039727
C24   C     C_2   0.989026 0.068412 0.232095 0.381028
H8    H     H_    0.680610 0.175820 0.302495 0.138888
C25   C     C_2   0.817060 0.218957 0.323912 -0.347215
C26   C     C_2   0.981392 0.176373 0.293745 -0.217625
C27   C     C_R   0.409617 0.788372 0.674770 -0.117268
C28   C     C_R   0.538825 0.468601 0.828605 -0.058861
C29   C     C_R   0.532526 0.890024 0.817076 -0.136132
C30   C     C_R   0.473426 0.797862 0.754540 -0.208769
C31   C     C_R   0.409874 0.880614 0.658635 0.297186
C32   C     C_R   0.460976 0.980811 0.725880 0.031371
C33   C     C_R   0.529463 0.981547 0.804837 0.051573
C34   C     C_R   0.450467 0.080189 0.719102 0.057071
C35   C     C_R   0.515842 0.174846 0.788456 0.025479
C36   C     C_R   0.599618 0.164984 0.860113 -0.190663
C37   C     C_R   0.600023 0.072934 0.870737 0.140578
C38   C     C_R   0.373123 0.088973 0.645915 -0.132842
C39   C     C_R   0.377556 0.180615 0.636589 -0.180605
C40   C     C_R   0.440287 0.271565 0.701969 0.037963
C41   C     C_R   0.502855 0.274942 0.781818 0.070482
C42   C     C_R   0.428538 0.359488 0.686005 -0.139906
C43   C     C_R   0.474848 0.455543 0.746781 0.104779
C44   C     C_R   0.542656 0.377988 0.847906 0.091010
H9    H     H_    0.320920 0.180754 0.577122 0.147326
H10   H     H_    0.583882 0.887463 0.875936 0.166725
H11   H     H_    0.490421 0.733391 0.770015 0.123647
H12   H     H_    0.677321 0.227359 0.908534 0.168186
H13   H     H_    0.299891 0.027729 0.594210 0.203086
H14   H     H_    0.378142 0.353115 0.623984 0.146240
H15   H     H_    0.617824 0.613510 0.322698 0.124702
C45   C     C_2   0.312478 0.604363 0.318975 -0.014734
C46   C     C_2   0.480370 0.629060 0.295666 -0.239633
H16   H     H_    0.739319 0.602488 0.187572 0.089103
C47   C     C_2   0.630777 0.655851 0.183845 -0.351087
C48   C     C_2   0.491790 0.680016 0.236010 0.393663
O11   O     O_R   0.421600 0.630430 0.917010 -0.560330
O12   O     O_R   0.793840 0.702190 0.087630 -0.540501
O13   O     O_R   0.964010 0.886170 0.088190 -0.510995
C49   C     C_R   0.631722 0.695159 0.117174 0.828164
O14   O     O_R   0.751460 0.619510 0.917500 -0.544179
O15   O     O_R   0.921330 0.802900 0.916840 -0.545896
C50   C     C_R   0.574424 0.578275 0.893626 0.679350
O16   O     O_R   0.464290 0.713700 0.088350 -0.505534
O17   O     O_3   0.609200 0.818520 0.002630 -0.371258
V3    V     V_3+5 0.884140 0.747190 0.002530 1.424988
O18   O     O_R   0.251150 0.814630 0.917340 -0.547421
C51   C     C_R   0.073356 0.820957 0.887170 0.655861
O19   O     O_R   0.293530 0.897310 0.087470 -0.534824
C52   C     C_R   0.130800 0.933875 0.115829 0.822968
V4    V     V_3+5 0.384070 0.769710 0.002370 1.426649
O20   O     O_3   0.109180 0.698190 0.002460 -0.386375
C53   C     C_3   0.077880 0.480211 0.902858 -0.545381
H17   H     H_    0.132261 0.549816 0.904666 0.217857
H18   H     H_    0.962266 0.494232 0.943972 0.223452
H19   H     H_    0.207545 0.453513 0.927789 0.207589
O21   O     O_3   0.855541 0.994489 0.229300 -0.637989
H20   H     H_    0.790367 0.020274 0.280170 0.294605
C54   C     C_3   0.283799 0.116620 0.182163 -0.883712
H21   H     H_    0.382287 0.082681 0.133979 0.233958
H22   H     H_    0.214870 0.181653 0.171519 0.217501
H23   H     H_    0.371627 0.145250 0.242995 0.218602
C55   C     C_3   0.683211 0.074622 0.953964 -0.792803
H24   H     H_    0.734121 0.152470 0.998142 0.202504
H25   H     H_    0.570850 0.047664 0.982058 0.205783
H26   H     H_    0.808852 0.024981 0.946757 0.206244
C56   C     C_3   0.560285 0.396829 0.938793 -0.832686
H27   H     H_    0.458866 0.344952 0.950416 0.230505
H28   H     H_    0.710608 0.390509 0.962013 0.243505
H29   H     H_    0.521587 0.474868 0.978035 0.181093
C57   C     C_3   0.440542 0.543545 0.722070 -0.733950
H30   H     H_    0.361879 0.600835 0.767757 0.177162
H31   H     H_    0.578011 0.575655 0.715304 0.192111
H32   H     H_    0.350245 0.521210 0.662339 0.241462
O22   O     O_3   0.897579 0.202447 0.570784 -0.668084
H33   H     H_    0.868766 0.237964 0.532939 0.267122
O23   O     O_3   0.379166 0.872802 0.578092 -0.675793
H34   H     H_    0.336682 0.802290 0.540459 0.267101
O24   O     O_3   0.369650 0.757428 0.237195 -0.630456
H35   H     H_    0.308796 0.780800 0.289236 0.302135
C58   C     C_3   0.116260 0.610759 0.276170 -0.760866
H36   H     H_    0.027898 0.539890 0.262752 0.196701
H37   H     H_    0.040912 0.676987 0.316893 0.205172
H38   H     H_    0.124655 0.617071 0.216043 0.242098
C59   C     C_3   0.984060 0.559828 0.771417 -0.721943
H39   H     H_    0.028215 0.574913 0.719304 0.184978
H40   H     H_    0.845198 0.593485 0.786863 0.196270
H41   H     H_    0.093761 0.606884 0.819954 0.192665
O25   O     O_3   0.035430 0.330224 0.947347 -0.679677
H42   H     H_    0.055775 0.292527 0.984252 0.278865

loop_
_geom_bond_atom_site_label_1
_geom_bond_atom_site_label_2
_ccdc_geom_bond_type
C13   C19   A    
C35   C36   A    
C53   H17   S    
O18   V4    S    
C45   C58   S    
C5    C51   S    
C4    C6    S    
O2    C1    A    
C7    C8    A    
C1    O6    A    
O21   H20   S    
O17   V4    S    
V1    O10   S    
O17   V3    S    
H8    C25   S    
C14   C15   A    
C17   C18   A    
C9    C10   A    
C16   C17   A    
C7    H2    S    
O5    C3    A    
C18   C19   A    
O12   C49   A    
C14   H5    S    
C28   C44   A    
C16   H6    S    
V2    O10   S    
C5    C8    A    
C36   C37   A    
C42   H14   S    
C40   C42   A    
O13   C52   A    
C31   O23   S    
O8    V2    S    
C17   O25   S    
C9    H4    S    
C57   H30   S    
C58   H38   S    
C59   H41   S    
H7    C26   S    
O1    V2    S    
O16   V4    S    
C11   C15   A    
O19   V4    S    
C30   H11   S    
O14   V3    S    
O15   C51   A    
C49   O16   A    
O12   V3    S    
C20   C53   S    
C39   C40   A    
C53   H18   S    
O9    C4    A    
C43   C57   S    
C56   H28   S    
O7    V1    S    
O14   C50   A    
C32   C34   A    
C27   C30   A    
C37   C55   S    
C48   O24   S    
C29   H10   S    
C31   C32   A    
C12   C16   A    
C12   C13   A    
C55   H25   S    
H16   C47   S    
V4    O20   S    
H15   C46   S    
C33   C37   A    
C45   C46   D    
C28   C43   A    
C27   C31   A    
C15   H1    S    
C13   C14   A    
C36   H12   S    
C5    C9    A    
C40   C41   A    
C23   C52   S    
C55   H26   S    
C41   C44   A    
C7    C11   A    
C47   C48   D    
C42   C43   A    
C54   H21   S    
C56   H27   S    
C21   C59   S    
C19   C22   A    
C57   H31   S    
C6    C22   A    
C58   H36   S    
O3    C4    A    
C54   H22   S    
C53   H19   S    
O9    V2    S    
C59   H39   S    
C34   C38   A    
C46   C48   S    
C10   C12   A    
C38   C39   A    
C23   C24   D    
O2    V1    S    
C2    C45   S    
C32   C33   A    
C44   C56   S    
O4    C2    A    
O25   H42   S    
C47   C49   S    
C34   C35   A    
O11   V4    S    
O1    C2    A    
C24   O21   S    
C3    C25   S    
O5    V1    S    
O24   H35   S    
C38   H13   S    
O6    V2    S    
C28   C50   S    
C20   C21   A    
C22   O22   S    
O4    V1    S    
O3    V1    S    
O15   V3    S    
C23   C54   S    
C39   H9    S    
C18   C20   A    
C8    H3    S    
C24   C26   S    
C29   C33   A    
C35   C41   A    
C56   H29   S    
C57   H32   S    
O7    V2    S    
C6    C21   A    
C58   H37   S    
C25   C26   D    
C54   H23   S    
O18   C51   A    
C29   C30   A    
C55   H24   S    
C59   H40   S    
O11   C50   A    
C10   C11   A    
V3    O20   S    
O19   C52   A    
O23   H34   S    
O13   V3    S    
O22   H33   S    
O8    C3    A    
C1    C27   S    
