data_mof_unit_42294.cif
_audit_creation_date              2012-12-10T16:46:42-0500
_audit_creation_method            fapswitch 2.2
_symmetry_space_group_name_H-M    P1
_symmetry_Int_Tables_number       1
_space_group_crystal_system       triclinic
_cell_length_a                    15.855362
_cell_length_b                    8.689245
_cell_length_c                    7.453896
_cell_angle_alpha                 103.07822
_cell_angle_beta                  94.082213
_cell_angle_gamma                 92.228462
_cell_volume                      996.157817519

loop_
_atom_site_label
_atom_site_type_symbol
_atom_type_description
_atom_site_fract_x
_atom_site_fract_y
_atom_site_fract_z
_atom_type_partial_charge
C1    C     C_R   0.497499 0.199706 0.453199 0.881524
C2    C     C_3   0.956599 0.512920 0.693933 -0.380261
C3    C     C_3   0.916643 0.488267 0.492612 0.241065
C4    C     C_3   0.951365 0.625673 0.412197 -0.422593
C5    C     C_3   0.048980 0.627305 0.415207 -0.364856
C6    C     C_1   0.824446 0.493493 0.491105 -0.109024
C7    C     C_1   0.175156 0.495292 0.504946 -0.040894
C8    C     C_1   0.250833 0.497946 0.506652 -0.127427
C9    C     C_2   0.496320 0.031750 0.426959 -0.364063
C10   C     C_2   0.503762 0.968257 0.573034 -0.366656
C11   C     C_R   0.340342 0.499644 0.502470 0.825281
C12   C     C_R   0.502536 0.800296 0.546798 0.878166
C13   C     C_R   0.659650 0.500082 0.497465 0.820148
C14   C     C_3   0.054303 0.513741 0.696952 -0.416214
C15   C     C_3   0.043046 0.329482 0.381721 -0.003150
C16   C     C_3   0.944041 0.328562 0.371950 -0.012320
C17   C     C_1   0.749010 0.497087 0.492185 -0.173410
C18   C     C_3   0.082703 0.491313 0.498384 0.228024
Cu1   Cu    Cu3+1 0.509300 0.517380 0.684380 0.958018
Cu2   Cu    Cu3+1 0.490700 0.482620 0.315620 0.965859
H1    H     H_    0.932584 0.418717 0.759367 0.176894
H2    H     H_    0.082451 0.627489 0.785403 0.192382
H3    H     H_    0.938167 0.627501 0.778656 0.180411
H4    H     H_    0.923719 0.613329 0.267752 0.170993
H5    H     H_    0.489313 0.959997 0.286257 0.181045
H6    H     H_    0.510776 0.040011 0.713736 0.180386
H7    H     H_    0.434865 0.376702 0.948654 0.232216
H8    H     H_    0.565132 0.623301 0.051348 0.225213
H9    H     H_    0.077390 0.417175 0.759899 0.203952
H10   H     H_    0.066008 0.235570 0.449714 0.154732
H11   H     H_    0.919370 0.324070 0.227102 0.177975
H12   H     H_    0.076642 0.743293 0.498951 0.178267
H13   H     H_    0.068407 0.616139 0.272598 0.199506
H14   H     H_    0.932664 0.740862 0.494827 0.184160
N1    N     N_2   0.476670 0.456430 0.038530 -0.212153
N2    N     N_2   0.523330 0.543570 0.961470 -0.216233
O1    O     O_R   0.506050 0.286130 0.619770 -0.585589
O2    O     O_R   0.490330 0.256780 0.308370 -0.583867
O3    O     O_R   0.387300 0.514690 0.655770 -0.583978
O4    O     O_R   0.371580 0.485340 0.344370 -0.562547
O5    O     O_R   0.509670 0.743220 0.691630 -0.585870
O6    O     O_R   0.493950 0.713870 0.380230 -0.585100
O7    O     O_R   0.628420 0.514660 0.655630 -0.576517
O8    O     O_R   0.612700 0.485310 0.344230 -0.585335
I1    I     I_    0.086075 0.266659 0.106893 -0.521358
C19   C     C_3   0.905083 0.179485 0.424814 -0.427669
C20   C     C_3   0.916118 0.027521 0.279914 -0.831173
H15   H     H_    0.891167 0.038876 0.140721 0.261810
H16   H     H_    0.983821 0.999848 0.276780 0.270482
H17   H     H_    0.880238 0.927418 0.314584 0.233920
H18   H     H_    0.934120 0.167343 0.560684 0.217411
H19   H     H_    0.836033 0.189553 0.436731 0.218416

loop_
_geom_bond_atom_site_label_1
_geom_bond_atom_site_label_2
_ccdc_geom_bond_type
C15   C18   S    
Cu2   O6    S    
C12   O5    A    
C1    O1    A    
Cu2   O2    S    
C9    C10   D    
C14   C18   S    
Cu1   Cu2   S    
C13   C17   S    
C7    C18   S    
C10   H6    S    
C2    H1    S    
Cu1   O5    S    
C2    C3    S    
C2    C14   S    
C9    H5    S    
C7    C8    T    
C20   H16   S    
C5    H12   S    
C16   H11   S    
C11   O3    A    
C14   H2    S    
C10   C12   S    
C1    O2    A    
C8    C11   S    
Cu2   O4    S    
Cu1   O3    S    
Cu2   O8    S    
Cu1   O7    S    
C20   H17   S    
Cu1   N2    S    
C11   O4    A    
C4    H4    S    
C4    H14   S    
C15   I1    S    
C14   H9    S    
C15   C16   S    
C20   H15   S    
C19   H19   S    
C13   O7    A    
C1    C9    S    
H8    N2    S    
C15   H10   S    
C3    C6    S    
C16   C19   S    
C2    H3    S    
C6    C17   T    
C19   C20   S    
C12   O6    A    
C5    C18   S    
Cu1   O1    S    
H7    N1    S    
Cu2   N1    S    
C19   H18   S    
C3    C16   S    
C13   O8    A    
C3    C4    S    
N1    N2    D    
C4    C5    S    
C5    H13   S    
