data_mof_unit_32311.cif
_audit_creation_date              2012-12-11T15:43:54-0500
_audit_creation_method            fapswitch 2.2
_symmetry_space_group_name_H-M    P1
_symmetry_Int_Tables_number       1
_space_group_crystal_system       triclinic
_cell_length_a                    14.464177
_cell_length_b                    16.393006
_cell_length_c                    6.911283
_cell_angle_alpha                 90.553281
_cell_angle_beta                  98.793725
_cell_angle_gamma                 90.040551
_cell_volume                      1619.40089647

loop_
_atom_site_label
_atom_site_type_symbol
_atom_type_description
_atom_site_fract_x
_atom_site_fract_y
_atom_site_fract_z
_atom_type_partial_charge
O1    O     O_R   0.831700 0.662810 0.581550 -0.555271
O2    O     O_R   0.168300 0.337190 0.418450 -0.571084
O3    O     O_R   0.168300 0.162810 0.418450 -0.548537
O4    O     O_R   0.831700 0.837190 0.581550 -0.561172
O5    O     O_R   0.842890 0.834390 0.255500 -0.534361
O6    O     O_R   0.157110 0.165610 0.744500 -0.497346
O7    O     O_R   0.157110 0.334390 0.744500 -0.532169
O8    O     O_R   0.842890 0.665610 0.255500 -0.502293
O9    O     O_R   0.661690 0.835580 0.024130 -0.535558
O10   O     O_R   0.338310 0.164420 0.975870 -0.520668
O11   O     O_R   0.338310 0.335580 0.975870 -0.533087
O12   O     O_R   0.661690 0.664420 0.024130 -0.527509
C1    C     C_R   0.864953 0.864692 0.431229 0.749439
C2    C     C_R   0.134513 0.135342 0.569119 0.740704
C3    C     C_R   0.134842 0.364669 0.569439 0.742776
C4    C     C_R   0.865179 0.635086 0.429825 0.749485
C5    C     C_R   0.066732 0.064678 0.538075 -0.124223
C6    C     C_R   0.934194 0.933734 0.464929 -0.126381
C7    C     C_R   0.932996 0.564544 0.459997 -0.110846
C8    C     C_R   0.065175 0.433395 0.535052 -0.124353
C9    C     C_R   0.013027 0.936436 0.365754 -0.025198
C10   C     C_R   0.989050 0.059902 0.641800 -0.027345
C11   C     C_R   0.983255 0.435047 0.625029 -0.037545
C12   C     C_R   0.012472 0.560064 0.361799 -0.040494
O13   O     O_3   0.687240 0.750000 0.366320 -0.369716
O14   O     O_3   0.312760 0.250000 0.633680 -0.348762
V1    V     V_3+5 0.757720 0.750000 0.115230 1.581391
V2    V     V_3+5 0.242280 0.250000 0.884770 1.648550
O15   O     O_R   0.650500 0.664000 0.690740 -0.539743
O16   O     O_R   0.349500 0.336000 0.309260 -0.539546
O17   O     O_R   0.349500 0.164000 0.309260 -0.518773
O18   O     O_R   0.650500 0.836000 0.690740 -0.550169
C13   C     C_R   0.626517 0.637386 0.852027 0.780104
C14   C     C_R   0.373494 0.362602 0.147986 0.780092
C15   C     C_R   0.371229 0.135263 0.144035 0.821222
C16   C     C_R   0.626633 0.861640 0.854591 0.712824
C17   C     C_R   0.077667 0.002458 0.397714 -0.049460
C18   C     C_R   0.921462 0.997337 0.598148 -0.094824
C19   C     C_R   0.918775 0.500717 0.590757 -0.058050
C20   C     C_R   0.079934 0.497606 0.406677 -0.082009
V3    V     V_3+5 0.735670 0.750000 0.607790 1.534248
V4    V     V_3+5 0.264330 0.250000 0.392210 1.626538
O19   O     O_3   0.806150 0.750000 0.906560 -0.366296
O20   O     O_3   0.193850 0.250000 0.093440 -0.372759
C21   C     C_2   0.540953 0.909684 0.852915 -0.218024
C22   C     C_2   0.443841 0.069972 0.142773 -0.276261
C23   C     C_2   0.452523 0.421896 0.161887 -0.202346
C24   C     C_2   0.547643 0.577939 0.838282 -0.203533
C25   C     C_2   0.542894 0.981259 0.955828 0.190760
C26   C     C_2   0.456906 0.030060 0.972304 0.269675
C27   C     C_2   0.455338 0.478901 0.019905 0.146266
C28   C     C_2   0.544876 0.521134 0.980737 0.152155
C29   C     C_2   0.033073 0.866064 0.242629 0.416770
H1    H     H_    0.044474 0.874551 0.092735 0.109778
O21   O     O_2   0.037990 0.797580 0.310559 -0.543798
C30   C     C_2   0.975009 0.119719 0.796956 0.463864
H2    H     H_    0.911871 0.156237 0.780781 0.137562
O22   O     O_2   0.029061 0.123070 0.950765 -0.498866
C31   C     C_2   0.962106 0.367407 0.752722 0.454386
H3    H     H_    0.932726 0.380232 0.885151 0.072820
O23   O     O_2   0.972859 0.296646 0.705567 -0.540597
C32   C     C_2   0.026961 0.618845 0.207438 0.430540
H4    H     H_    0.090130 0.655493 0.223981 0.150977
O24   O     O_2   0.972962 0.621161 0.053547 -0.531097
C33   C     C_2   0.162293 0.002381 0.298564 0.442748
H5    H     H_    0.229813 0.018804 0.380061 0.076158
O25   O     O_2   0.157015 0.986958 0.124097 -0.514474
C34   C     C_2   0.836000 0.999473 0.692530 0.421753
H6    H     H_    0.828958 0.958553 0.811919 0.062657
O26   O     O_2   0.773258 0.047353 0.636352 -0.467047
C35   C     C_2   0.831485 0.498140 0.679568 0.411874
H7    H     H_    0.817596 0.544529 0.784085 0.096149
O27   O     O_2   0.774772 0.443230 0.636799 -0.471716
C36   C     C_2   0.167186 0.500468 0.318034 0.405275
H8    H     H_    0.178923 0.456401 0.206336 0.058334
O28   O     O_2   0.226103 0.552834 0.369394 -0.482097
Br1   Br    Br    0.372326 0.041081 0.726524 -0.483749
Br2   Br    Br    0.662189 0.032320 0.050996 -0.447532
Br3   Br    Br    0.667108 0.482268 0.101874 -0.490265
Br4   Br    Br    0.333169 0.518136 0.899481 -0.508664
C37   C     C_2   0.505071 0.050991 0.329938 0.531394
H9    H     H_    0.538214 0.991669 0.350979 0.058721
O29   O     O_2   0.520938 0.102085 0.460503 -0.445561
C38   C     C_2   0.453885 0.863291 0.781992 0.436411
H10   H     H_    0.451916 0.822102 0.657510 0.095300
O30   O     O_2   0.386525 0.865996 0.869026 -0.477936
C39   C     C_2   0.476743 0.580095 0.658562 0.463057
H11   H     H_    0.439269 0.525094 0.604962 0.094750
O31   O     O_2   0.460951 0.642975 0.566119 -0.499913
C40   C     C_2   0.523542 0.419283 0.341349 0.493293
H12   H     H_    0.560986 0.474178 0.395855 0.081729
O32   O     O_2   0.539447 0.356116 0.432595 -0.463504

loop_
_geom_bond_atom_site_label_1
_geom_bond_atom_site_label_2
_ccdc_geom_bond_type
C39   H11   S    
O3    V4    S    
O17   V4    S    
C6    C9    A    
C37   H9    S    
C29   H1    S    
C25   Br2   S    
C11   C31   S    
O9    V1    S    
C36   O28   D    
C1    C6    S    
O18   C16   A    
C38   O30   D    
C8    C20   A    
O4    V3    S    
C10   C18   A    
O15   C13   A    
C30   H2    S    
O4    C1    A    
C27   Br4   S    
C32   O24   D    
O5    V1    S    
O6    V2    S    
C30   O22   D    
C34   H6    S    
C33   O25   D    
C17   C33   S    
O9    C16   A    
O18   V3    S    
O10   C15   A    
C28   Br3   S    
O5    C1    A    
O7    C3    A    
C31   H3    S    
O8    C4    A    
V3    O19   S    
C2    C5    S    
V4    O20   S    
C37   O29   D    
C29   O21   D    
C3    C8    S    
C31   O23   D    
C36   H8    S    
O16   C14   A    
O12   V1    S    
C27   C28   S    
C38   H10   S    
O13   V3    S    
C35   O27   D    
C10   C30   S    
V2    O20   S    
O7    V2    S    
C32   H4    S    
O6    C2    A    
C22   C37   S    
C40   O32   D    
C8    C11   A    
C21   C25   D    
C24   C39   S    
C16   C21   S    
O1    C4    A    
C5    C17   A    
O2    C3    A    
O3    C2    A    
C7    C19   A    
O1    V3    S    
C18   C34   S    
C33   H5    S    
C39   O31   D    
C23   C40   S    
O17   C15   A    
C21   C38   S    
C26   Br1   S    
O14   V4    S    
O10   V2    S    
C13   C24   S    
C12   C32   S    
O15   V3    S    
O11   C14   A    
C23   C27   D    
O13   V1    S    
C22   C26   D    
O14   V2    S    
C5    C10   A    
C7    C12   A    
C6    C18   A    
C35   H7    S    
C9    C29   S    
C40   H12   S    
O11   V2    S    
O2    V4    S    
C4    C7    S    
C11   C19   A    
C12   C20   A    
C20   C36   S    
V1    O19   S    
C24   C28   D    
C9    C17   A    
C34   O26   D    
C25   C26   S    
O8    V1    S    
C19   C35   S    
O16   V4    S    
C14   C23   S    
O12   C13   A    
C15   C22   S    
