data_mof_unit_68385.cif
_audit_creation_date              2012-12-11T16:25:30-0500
_audit_creation_method            fapswitch 2.2
_symmetry_space_group_name_H-M    P1
_symmetry_Int_Tables_number       1
_space_group_crystal_system       triclinic
_cell_length_a                    20.898834
_cell_length_b                    7.350378
_cell_length_c                    13.46257
_cell_angle_alpha                 90.483973
_cell_angle_beta                  103.207822
_cell_angle_gamma                 89.415688
_cell_volume                      2013.19475821

loop_
_atom_site_label
_atom_site_type_symbol
_atom_type_description
_atom_site_fract_x
_atom_site_fract_y
_atom_site_fract_z
_atom_type_partial_charge
O1    O     O_R   0.449520 0.506760 0.599710 -0.524472
O2    O     O_R   0.550480 0.006760 0.400290 -0.516637
O3    O     O_R   0.587930 0.180200 0.595790 -0.523679
O4    O     O_R   0.412070 0.680200 0.404210 -0.528948
C1    C     C_R   0.613315 0.346366 0.623761 0.726596
C2    C     C_R   0.385924 0.845862 0.379133 0.727482
O5    O     O_R   0.452350 0.177380 0.611700 -0.510879
O6    O     O_R   0.547650 0.677380 0.388300 -0.517703
O7    O     O_R   0.413930 0.001760 0.416320 -0.524483
O8    O     O_R   0.586070 0.501760 0.583680 -0.511470
C3    C     C_R   0.432102 0.344328 0.633278 0.872008
C4    C     C_R   0.567868 0.842529 0.365589 0.889082
O9    O     O_3   0.487550 0.337460 0.435880 -0.398151
O10   O     O_3   0.512450 0.837460 0.564120 -0.384740
V1    V     V_3+5 0.502310 0.064670 0.511900 1.691203
V2    V     V_3+5 0.497690 0.564670 0.488100 1.678581
C5    C     C_R   0.618354 0.766337 0.112453 -0.108377
C6    C     C_R   0.381740 0.317148 0.886539 -0.112761
C7    C     C_R   0.610402 0.838349 0.286475 -0.180658
C8    C     C_R   0.389093 0.346601 0.710097 -0.160580
C9    C     C_R   0.917882 0.814258 0.308081 -0.186097
C10   C     C_R   0.080469 0.236376 0.700995 -0.161812
C11   C     C_R   0.880828 0.811672 0.382164 0.406085
C12   C     C_R   0.117934 0.190120 0.630830 0.445758
C13   C     C_R   0.815493 0.868383 0.358203 -0.102707
C14   C     C_R   0.182413 0.249535 0.645342 -0.090633
C15   C     C_R   0.782448 0.902179 0.256933 0.121677
C16   C     C_R   0.212339 0.351839 0.731893 0.093078
C17   C     C_R   0.820038 0.897875 0.180891 0.095054
C18   C     C_R   0.174650 0.392453 0.805412 0.105427
C19   C     C_R   0.712156 0.901284 0.228244 0.102860
C20   C     C_R   0.281877 0.378588 0.756892 0.107764
C21   C     C_R   0.681978 0.844946 0.126630 -0.033829
C22   C     C_R   0.314363 0.374293 0.862963 -0.023642
C23   C     C_R   0.719695 0.856737 0.049473 -0.038319
C24   C     C_R   0.275490 0.408007 0.936928 -0.039863
C25   C     C_R   0.786855 0.897448 0.078752 -0.138026
C26   C     C_R   0.208019 0.443466 0.903352 -0.104332
C27   C     C_R   0.670716 0.931701 0.299306 0.378706
C28   C     C_R   0.321401 0.386843 0.681957 0.359622
C29   C     C_R   0.594779 0.724433 0.199393 0.400553
C30   C     C_R   0.410764 0.266942 0.806140 0.356313
C31   C     C_R   0.889506 0.868717 0.208045 -0.170321
C32   C     C_R   0.106559 0.347607 0.786442 -0.153271
H1    H     H_    0.788884 0.857711 0.417208 0.240453
H2    H     H_    0.210325 0.196536 0.593324 0.230300
H3    H     H_    0.815094 0.901937 0.020549 0.134869
H4    H     H_    0.180007 0.475633 0.959838 0.133474
C33   C     C_R   0.229510 0.906832 0.025578 0.195430
C34   C     C_R   0.773371 0.357625 0.980146 0.192299
C35   C     C_R   0.283385 0.898844 0.980927 0.366097
C36   C     C_R   0.721339 0.325474 0.026311 0.354135
C37   C     C_R   0.344162 0.846269 0.037874 0.350909
C38   C     C_R   0.660599 0.275617 0.968260 0.316516
C39   C     C_R   0.354770 0.826184 0.143892 -0.162085
C40   C     C_R   0.648986 0.271378 0.861687 -0.129447
C41   C     C_R   0.304353 0.859863 0.196545 -0.050996
C42   C     C_R   0.696972 0.324333 0.809487 -0.044667
C43   C     C_R   0.238266 0.881731 0.133978 0.003011
C44   C     C_R   0.763197 0.349926 0.870918 -0.019947
C45   C     C_R   0.316626 0.857922 0.307814 -0.063135
C46   C     C_R   0.681576 0.362540 0.700283 -0.081564
C47   C     C_R   0.260160 0.846866 0.350032 -0.028822
C48   C     C_R   0.735857 0.418011 0.662510 -0.027139
C49   C     C_R   0.199347 0.799339 0.284018 -0.033611
C50   C     C_R   0.798887 0.357282 0.711818 -0.098974
C51   C     C_R   0.184280 0.852053 0.179762 -0.063216
C52   C     C_R   0.816174 0.355217 0.820302 -0.037484
C53   C     C_R   0.261511 0.859235 0.456215 0.327393
C54   C     C_R   0.729202 0.497546 0.567307 0.308411
C55   C     C_R   0.209581 0.786965 0.493304 0.416410
C56   C     C_R   0.771380 0.443841 0.505988 0.406813
C57   C     C_R   0.162293 0.679553 0.428637 -0.104635
C58   C     C_R   0.822396 0.316134 0.543394 -0.121629
C59   C     C_R   0.159700 0.677632 0.322699 -0.138304
C60   C     C_R   0.832674 0.261392 0.647790 -0.088246
O11   O     O_R   0.913760 0.203480 0.916370 -0.505998
O12   O     O_R   0.086240 0.703480 0.083630 -0.539110
O13   O     O_R   0.047590 0.535230 0.888250 -0.519853
O14   O     O_R   0.952410 0.035230 0.111750 -0.515823
C61   C     C_R   0.067285 0.367420 0.866645 0.717949
C62   C     C_R   0.931660 0.870747 0.131666 0.729814
O15   O     O_R   0.912020 0.532880 0.904260 -0.531497
O16   O     O_R   0.087980 0.032880 0.095740 -0.535483
O17   O     O_R   0.949590 0.708460 0.099750 -0.513168
O18   O     O_R   0.050410 0.208460 0.900250 -0.520393
C63   C     C_R   0.887177 0.363790 0.878990 0.808873
C64   C     C_R   0.113375 0.863359 0.119577 0.753464
O19   O     O_3   0.012370 0.375360 0.064120 -0.361828
O20   O     O_3   0.987630 0.875360 0.935880 -0.362264
V3    V     V_3+5 0.997700 0.648160 0.988110 1.670486
V4    V     V_3+5 0.002300 0.148160 0.011890 1.684644
Cl1   Cl    Cl    0.563664 0.504543 0.206585 -0.459814
Cl2   Cl    Cl    0.441507 0.043798 0.809133 -0.425871
Cl3   Cl    Cl    0.153403 0.926030 0.935708 -0.585805
Cl4   Cl    Cl    0.848217 0.412545 0.066603 -0.597244
Cl5   Cl    Cl    0.274288 0.937593 0.849291 -0.455030
Cl6   Cl    Cl    0.732603 0.338811 0.159740 -0.428597
Cl7   Cl    Cl    0.404553 0.782453 0.971715 -0.468919
Cl8   Cl    Cl    0.598672 0.218654 0.031464 -0.486485
C65   C     C_2   0.413785 0.729739 0.192595 0.881033
O21   O     O_2   0.466246 0.803378 0.199608 -0.580632
O22   O     O_R   0.409043 0.551884 0.225929 -0.620296
H5    H     H_    0.452414 0.497197 0.262074 0.344288
C66   C     C_2   0.587657 0.199347 0.806813 0.896634
O23   O     O_2   0.540246 0.300314 0.788089 -0.595247
O24   O     O_R   0.585071 0.018524 0.773713 -0.609461
H6    H     H_    0.541235 0.983551 0.729715 0.350832
Cl9   Cl    Cl    0.324278 0.968386 0.545849 -0.525132
Cl10  Cl    Cl    0.686742 0.706074 0.543303 -0.581238
Cl11  Cl    Cl    0.213283 0.792988 0.625733 -0.450753
Cl12  Cl    Cl    0.747922 0.510353 0.378197 -0.485566
C67   C     C_2   0.134442 0.516872 0.258775 0.895485
O25   O     O_2   0.078734 0.462620 0.252263 -0.500254
O26   O     O_R   0.175302 0.428576 0.204375 -0.633137
H7    H     H_    0.153102 0.322934 0.161848 0.298384
C68   C     C_2   0.844669 0.064712 0.671494 0.892792
O27   O     O_2   0.871603 0.014307 0.756964 -0.555286
O28   O     O_R   0.818586 0.935127 0.597835 -0.623259
H8    H     H_    0.825054 0.806638 0.625372 0.335672
C69   C     C_2   0.696333 0.818665 0.938181 0.803033
O29   O     O_2   0.715665 0.913500 0.876957 -0.542249
O30   O     O_R   0.658734 0.666863 0.902312 -0.676724
H9    H     H_    0.644148 0.664462 0.825118 0.322839
C70   C     C_2   0.297055 0.386220 0.049435 0.800887
O31   O     O_2   0.278035 0.495138 0.105375 -0.536608
O32   O     O_R   0.330911 0.231281 0.092187 -0.683193
H10   H     H_    0.340386 0.232184 0.169499 0.319142
C71   C     C_2   0.572296 0.740177 0.012294 1.042993
O33   O     O_2   0.560499 0.865777 0.952266 -0.481527
O34   O     O_R   0.540743 0.574856 0.986315 -0.576048
H11   H     H_    0.512172 0.574006 0.914474 0.342118
C72   C     C_2   0.423687 0.300177 0.990803 1.013712
O35   O     O_2   0.431421 0.430625 0.048107 -0.504739
O36   O     O_R   0.455936 0.137448 0.024010 -0.560628
H12   H     H_    0.480141 0.141998 0.098416 0.359318
Cl13  Cl    Cl    0.692549 0.087093 0.401193 -0.550180
Cl14  Cl    Cl    0.288914 0.432540 0.551763 -0.658730
C73   C     C_2   0.983551 0.732866 0.331638 0.959368
O37   O     O_2   0.030764 0.824580 0.325787 -0.532111
O38   O     O_R   0.991423 0.548781 0.356353 -0.600925
H13   H     H_    0.948313 0.483794 0.350727 0.318122
C74   C     C_2   0.016764 0.148447 0.692337 0.958508
O39   O     O_2   0.969872 0.239785 0.703314 -0.589617
O40   O     O_R   0.012107 0.959563 0.680571 -0.565304
H14   H     H_    0.967877 0.911491 0.685597 0.349658
Cl15  Cl    Cl    0.914046 0.721444 0.504165 -0.624230
Cl16  Cl    Cl    0.084455 0.055257 0.522706 -0.451890
C75   C     C_2   0.120619 0.559122 0.473813 0.987424
O41   O     O_2   0.114932 0.400009 0.447684 -0.516231
O42   O     O_R   0.087043 0.627354 0.545081 -0.572251
H15   H     H_    0.057582 0.533970 0.566400 0.333114
C76   C     C_2   0.864304 0.241225 0.475766 0.935295
O43   O     O_2   0.912873 0.149852 0.511899 -0.527637
O44   O     O_R   0.849503 0.275140 0.371009 -0.593002
H16   H     H_    0.882002 0.216496 0.334734 0.317314

loop_
_geom_bond_atom_site_label_1
_geom_bond_atom_site_label_2
_ccdc_geom_bond_type
C35   Cl5   S    
O15   C63   A    
C27   Cl13  S    
O11   V4    S    
C42   C46   A    
C65   O21   D    
C15   C17   A    
C68   O27   D    
O30   H9    S    
C50   C52   A    
C24   C70   S    
O1    C3    A    
O2    C4    A    
C2    O7    A    
C47   C49   A    
O40   H14   S    
O17   V3    S    
O36   H12   S    
C37   Cl7   S    
O5    C3    A    
C66   O24   S    
C51   C64   S    
C58   C60   A    
C2    C45   S    
C23   C25   A    
C12   C14   A    
C67   O25   D    
C75   O42   S    
C8    C28   A    
C41   C43   A    
C42   C44   A    
C74   O39   D    
C18   C26   A    
C6    C72   S    
C45   C47   A    
C53   C55   A    
C46   C48   A    
C54   Cl10  S    
C6    C30   A    
C43   C51   A    
C9    C31   A    
C53   Cl9   S    
C29   Cl1   S    
C47   C53   A    
C40   C42   A    
C33   C35   A    
C28   Cl14  S    
C10   C74   S    
C34   C36   A    
O42   H15   S    
C19   C21   A    
C59   C67   S    
C48   C54   A    
C25   H3    S    
C26   H4    S    
C61   O18   A    
O5    V1    S    
C65   O22   S    
C17   C31   A    
C57   C59   A    
C38   Cl8   S    
C5    C21   A    
O4    V2    S    
C36   C38   A    
C37   C39   A    
C38   C40   A    
C3    C8    S    
C54   C56   A    
C5    C71   S    
C16   C20   A    
O14   C62   A    
C32   C61   S    
C12   Cl16  S    
O13   C61   A    
C49   C51   A    
C11   Cl15  S    
C58   C76   S    
C55   Cl11  S    
C35   C37   A    
C48   C50   A    
O14   V4    S    
C39   C41   A    
C23   C69   S    
O6    C4    A    
C50   C60   A    
O1    V2    S    
C33   Cl3   S    
O19   V4    S    
C70   O32   S    
O2    V1    S    
C6    C22   A    
C44   C52   A    
C69   O29   D    
C7    C27   A    
C56   C58   A    
C9    C11   A    
C15   C19   A    
C70   O31   D    
C10   C12   A    
O4    C2    A    
C76   O44   S    
C9    C73   S    
O24   H6    S    
O34   H11   S    
C13   H1    S    
O44   H16   S    
O3    V1    S    
C55   C57   A    
C71   O33   D    
O12   C64   A    
C74   O40   S    
C10   C32   A    
C57   C75   S    
C30   Cl2   S    
O13   V3    S    
O16   C64   A    
O3    C1    A    
C33   C43   A    
C8    C30   A    
C73   O37   D    
C41   C45   A    
O12   V3    S    
C13   C15   A    
C62   O17   A    
O15   V3    S    
C66   O23   D    
C39   C65   S    
C14   C16   A    
C60   C68   S    
C49   C59   A    
C34   C44   A    
C56   Cl12  S    
C68   O28   S    
O7    V1    S    
C16   C18   A    
O18   V4    S    
O38   H13   S    
C24   C26   A    
C52   C63   S    
C73   O38   S    
C34   Cl4   S    
O20   V3    S    
C72   O35   D    
C4    C7    S    
C36   Cl6   S    
C21   C23   A    
C22   C24   A    
C19   C27   A    
C1    C46   S    
C18   C32   A    
C20   C28   A    
C5    C29   A    
C40   C66   S    
C69   O30   S    
C14   H2    S    
C7    C29   A    
C71   O34   S    
C1    O8    A    
C11   C13   A    
O11   C63   A    
O6    V2    S    
O28   H8    S    
O9    V2    S    
C17   C25   A    
O22   H5    S    
C72   O36   S    
C31   C62   S    
O10   V1    S    
O8    V2    S    
O16   V4    S    
O26   H7    S    
C76   O43   D    
C75   O41   D    
O32   H10   S    
C20   C22   A    
C67   O26   S    
