data_mof_unit_33452.cif
_audit_creation_date              2012-12-10T18:49:20-0500
_audit_creation_method            fapswitch 2.2
_symmetry_space_group_name_H-M    P1
_symmetry_Int_Tables_number       1
_space_group_crystal_system       triclinic
_cell_length_a                    9.83383
_cell_length_b                    10.791319
_cell_length_c                    13.639759
_cell_angle_alpha                 90.905197
_cell_angle_beta                  84.030886
_cell_angle_gamma                 90.767298
_cell_volume                      1439.32312605

loop_
_atom_site_label
_atom_site_type_symbol
_atom_type_description
_atom_site_fract_x
_atom_site_fract_y
_atom_site_fract_z
_atom_type_partial_charge
C1    C     C_R   0.501799 0.739933 0.492519 0.954038
C2    C     C_R   0.498294 0.259848 0.507138 0.961867
C3    C     C_R   0.496868 0.126333 0.513691 -0.395136
C4    C     C_R   0.503356 0.873131 0.484784 -0.411833
C5    C     C_R   0.476516 0.500818 0.685555 0.889816
C6    C     C_R   0.523527 0.499922 0.314429 0.889064
C7    C     C_R   0.936960 0.443457 0.425585 -0.313283
C8    C     C_R   0.062950 0.556403 0.574538 -0.311491
C9    C     C_R   0.083044 0.443737 0.423882 0.525968
C10   C     C_R   0.916868 0.556840 0.575850 0.515385
C11   C     C_1   0.541083 0.498015 0.211241 -0.180380
C12   C     C_1   0.459332 0.505828 0.788683 -0.177827
C13   C     C_2   0.559367 0.492432 0.018865 0.430252
C14   C     C_2   0.442506 0.517381 0.980892 0.429093
C15   C     C_1   0.446897 0.511328 0.876039 -0.076103
C16   C     C_1   0.554204 0.495541 0.123811 -0.077307
C17   C     C_R   0.626870 0.938005 0.490734 0.359744
C18   C     C_R   0.373413 0.061340 0.505604 0.369260
C19   C     C_R   0.621978 0.063692 0.514578 0.371950
C20   C     C_R   0.378402 0.935501 0.483586 0.328014
H1    H     H_    0.885028 0.398407 0.368671 0.160631
H2    H     H_    0.114811 0.601115 0.631647 0.160357
N1    N     N_R   0.142790 0.500030 0.500020 -0.112724
N2    N     N_R   0.857210 0.499970 0.499980 -0.116056
O1    O     O_R   0.385380 0.683250 0.500010 -0.582730
O2    O     O_R   0.614620 0.316750 0.499990 -0.574780
O3    O     O_R   0.614710 0.683220 0.500000 -0.558911
O4    O     O_R   0.385290 0.316780 0.500000 -0.560585
O5    O     O_R   0.368830 0.499990 0.640350 -0.633446
O6    O     O_R   0.631170 0.500010 0.359650 -0.634352
O7    O     O_R   0.598160 0.499960 0.640350 -0.560113
O8    O     O_R   0.401840 0.500040 0.359650 -0.553464
Zn1   Zn    Zn3+2 0.346870 0.500020 0.500000 1.009091
Zn2   Zn    Zn3+2 0.653130 0.499980 0.500000 1.001665
O9    O     O_3   0.169901 0.385012 0.350485 -0.584067
C21   C     C_3   0.107078 0.348381 0.265901 0.034332
H3    H     H_    0.056682 0.428457 0.234629 0.150931
H4    H     H_    0.032536 0.271487 0.283721 0.135065
C22   C     C_3   0.215373 0.299746 0.187600 -0.778736
H5    H     H_    0.265116 0.216992 0.214626 0.225783
H6    H     H_    0.167580 0.273730 0.119816 0.201697
H7    H     H_    0.294145 0.372279 0.169362 0.295124
O10   O     O_3   0.829710 0.616796 0.648373 -0.583309
C23   C     C_3   0.893033 0.659905 0.730936 0.037823
H8    H     H_    0.967321 0.735868 0.709471 0.135900
H9    H     H_    0.943802 0.582592 0.765547 0.149992
C24   C     C_3   0.784823 0.713068 0.807234 -0.783341
H10   H     H_    0.706858 0.641067 0.829458 0.293986
H11   H     H_    0.833007 0.745170 0.873382 0.200910
H12   H     H_    0.733947 0.792662 0.776285 0.226594
O11   O     O_3   0.327446 0.555327 0.042833 -0.629591
C25   C     C_3   0.206317 0.550179 0.995655 -0.346131
H13   H     H_    0.188748 0.455904 0.964802 0.162963
H14   H     H_    0.208429 0.621339 0.937411 0.176608
H15   H     H_    0.118587 0.570824 0.051157 0.186763
O12   O     O_3   0.674534 0.454853 0.956910 -0.629172
C26   C     C_3   0.795952 0.463053 0.003594 -0.346449
H16   H     H_    0.796119 0.392376 0.062033 0.176650
H17   H     H_    0.811366 0.557896 0.034094 0.163256
H18   H     H_    0.883840 0.443852 0.947863 0.186722
O13   O     O_3   0.748802 0.884127 0.452088 -0.586097
C27   C     C_3   0.837453 0.867340 0.525364 -0.151205
H19   H     H_    0.901307 0.785799 0.504092 0.187116
H20   H     H_    0.782995 0.849933 0.599596 0.151786
H21   H     H_    0.909208 0.946845 0.527132 0.166192
O14   O     O_3   0.249209 0.116958 0.536218 -0.578890
C28   C     C_3   0.169245 0.128709 0.456949 -0.136935
H22   H     H_    0.231297 0.152513 0.386724 0.153028
H23   H     H_    0.095014 0.203642 0.475874 0.185110
H24   H     H_    0.106879 0.044292 0.447555 0.175767
O15   O     O_3   0.740618 0.125978 0.534559 -0.576848
C29   C     C_3   0.756735 0.118236 0.636784 0.041412
H25   H     H_    0.866571 0.102810 0.644221 0.163723
H26   H     H_    0.698893 0.040072 0.675118 0.102284
C30   C     C_3   0.717811 0.238809 0.691254 -0.716481
H27   H     H_    0.606198 0.253646 0.693206 0.223755
H28   H     H_    0.743879 0.234085 0.768385 0.210305
H29   H     H_    0.775242 0.317531 0.654703 0.276420
O16   O     O_3   0.259721 0.873814 0.463386 -0.576989
C31   C     C_3   0.266575 0.851070 0.360279 0.114917
H30   H     H_    0.282447 0.938776 0.318352 0.101597
H31   H     H_    0.351146 0.786937 0.334890 0.154682
C32   C     C_3   0.133381 0.791415 0.335025 -0.791811
H32   H     H_    0.111167 0.706514 0.378852 0.256510
H33   H     H_    0.047942 0.857246 0.350922 0.246810
H34   H     H_    0.141773 0.765870 0.255452 0.217867

loop_
_geom_bond_atom_site_label_1
_geom_bond_atom_site_label_2
_ccdc_geom_bond_type
C6    O8    A    
C19   O15   S    
O9    C21   S    
O10   C23   S    
C24   H11   S    
C23   H8    S    
C21   H3    S    
C29   C30   S    
C26   H17   S    
C7    N2    A    
O5    Zn1   S    
C8    N1    A    
O12   C26   S    
C3    C18   A    
C27   H20   S    
C17   O13   S    
O2    Zn2   S    
C32   H32   S    
C25   H14   S    
N1    Zn1   S    
C8    H2    S    
C3    C19   A    
C22   H7    S    
C27   H21   S    
C23   C24   S    
C29   H25   S    
C13   O12   S    
O14   C28   S    
C13   C14   D    
C1    O1    A    
C31   C32   S    
C23   H9    S    
C24   H12   S    
C5    O5    A    
O3    Zn2   S    
O6    Zn2   S    
O11   C25   S    
C24   H10   S    
C5    C12   S    
C31   H31   S    
C22   H5    S    
C9    N1    A    
C26   H18   S    
C10   N2    A    
C7    H1    S    
N2    Zn2   S    
C28   H22   S    
C28   H23   S    
C30   H27   S    
C27   H19   S    
C11   C16   T    
C14   O11   S    
C12   C15   T    
O7    Zn2   S    
C2    O2    A    
C30   H28   S    
C4    C17   A    
C29   H26   S    
C32   H33   S    
O4    Zn1   S    
C6    C11   S    
C25   H13   S    
C9    O9    S    
C7    C9    A    
C20   O16   S    
C6    O6    A    
C10   O10   S    
C21   C22   S    
C31   H30   S    
C25   H15   S    
C18   O14   S    
C28   H24   S    
O8    Zn1   S    
C1    C4    S    
C21   H4    S    
C2    C3    S    
O15   C29   S    
C26   H16   S    
C17   C19   A    
C18   C20   A    
O13   C27   S    
C30   H29   S    
O16   C31   S    
C4    C20   A    
C32   H34   S    
C22   H6    S    
C8    C10   A    
C13   C16   S    
C1    O3    A    
C14   C15   S    
C2    O4    A    
O1    Zn1   S    
C5    O7    A    
