data_mof_unit_45371.cif
_audit_creation_date              2012-12-10T18:43:45-0500
_audit_creation_method            fapswitch 2.2
_symmetry_space_group_name_H-M    P1
_symmetry_Int_Tables_number       1
_space_group_crystal_system       triclinic
_cell_length_a                    10.701368
_cell_length_b                    10.624192
_cell_length_c                    9.881577
_cell_angle_alpha                 90.463608
_cell_angle_beta                  104.303525
_cell_angle_gamma                 90.294319
_cell_volume                      1088.5778431

loop_
_atom_site_label
_atom_site_type_symbol
_atom_type_description
_atom_site_fract_x
_atom_site_fract_y
_atom_site_fract_z
_atom_type_partial_charge
C1    C     C_R   0.501112 0.260445 0.499895 0.880855
C2    C     C_R   0.498869 0.739557 0.500096 0.867361
C3    C     C_R   0.258109 0.504439 0.441282 0.878357
C4    C     C_R   0.741868 0.505080 0.558740 0.886333
C5    C     C_R   0.594243 0.561536 0.098079 -0.169684
C6    C     C_R   0.405822 0.438296 0.902035 -0.177880
C7    C     C_R   0.594212 0.562643 0.954158 0.284026
C8    C     C_R   0.406463 0.436467 0.046201 0.277769
C9    C     C_2   0.119956 0.523477 0.407207 -0.160354
C10   C     C_2   0.880119 0.525040 0.593012 -0.172515
C11   C     C_2   0.069195 0.571668 0.507392 -0.198330
C12   C     C_2   0.931616 0.571665 0.493111 -0.207559
C13   C     C_R   0.399074 0.065450 0.411880 -0.249189
C14   C     C_R   0.600930 0.934531 0.588000 -0.250697
C15   C     C_R   0.395484 0.935982 0.410821 0.006391
C16   C     C_R   0.604410 0.063990 0.589242 0.005254
C17   C     C_R   0.497117 0.871944 0.499912 -0.065142
C18   C     C_R   0.502846 0.128041 0.500057 -0.068915
H1    H     H_    0.871100 0.597233 0.391711 0.181890
H2    H     H_    0.130184 0.598930 0.608747 0.187269
H3    H     H_    0.669674 0.610275 0.173748 0.147520
H4    H     H_    0.330329 0.389618 0.826350 0.161678
H5    H     H_    0.320314 0.117785 0.346944 0.148156
H6    H     H_    0.679758 0.882210 0.652831 0.147249
N1    N     N_R   0.499970 0.499970 0.857200 -0.102105
N2    N     N_R   0.500030 0.500030 0.142800 -0.100856
O1    O     O_R   0.499990 0.316750 0.614620 -0.609286
O2    O     O_R   0.500010 0.683250 0.385380 -0.614355
O3    O     O_R   0.499990 0.316780 0.385290 -0.595563
O4    O     O_R   0.500010 0.683220 0.614710 -0.603163
O5    O     O_R   0.317810 0.500000 0.571850 -0.626529
O6    O     O_R   0.682190 0.500000 0.428150 -0.623455
O7    O     O_R   0.317810 0.500030 0.342520 -0.586195
O8    O     O_R   0.682190 0.499970 0.657480 -0.583875
Zn1   Zn    Zn3+2 0.500000 0.499980 0.653120 0.974163
Zn2   Zn    Zn3+2 0.500000 0.500020 0.346880 0.975461
C19   C     C_1   0.956996 0.490500 0.729683 0.204897
N3    N     N_1   0.018151 0.462847 0.838889 -0.217456
C20   C     C_1   0.042157 0.485795 0.270842 0.192860
N4    N     N_1   0.979982 0.455589 0.162117 -0.210794
N5    N     N_2   0.694140 0.626490 0.910891 -0.263336
H7    H     H_    0.783922 0.590716 0.956483 0.233402
C21   C     C_3   0.691717 0.762025 0.924699 -0.772730
H8    H     H_    0.709464 0.790508 0.036311 0.223529
H9    H     H_    0.597131 0.799194 0.866079 0.262490
H10   H     H_    0.768882 0.804037 0.881931 0.236539
N6    N     N_2   0.308374 0.370562 0.090552 -0.262972
H11   H     H_    0.218246 0.407430 0.049809 0.241084
C22   C     C_3   0.310089 0.235399 0.072556 -0.758326
H12   H     H_    0.233968 0.191994 0.115894 0.237257
H13   H     H_    0.405142 0.197229 0.128453 0.259310
H14   H     H_    0.290249 0.209566 0.960053 0.225154
C23   C     C_1   0.286259 0.871159 0.321387 0.155608
N7    N     N_1   0.198916 0.819192 0.249908 -0.199306
C24   C     C_1   0.713395 0.128787 0.679101 0.157728
N8    N     N_1   0.800529 0.180732 0.750958 -0.189025

loop_
_geom_bond_atom_site_label_1
_geom_bond_atom_site_label_2
_ccdc_geom_bond_type
C6    C8    A    
C11   C12   S    
O6    Zn2   S    
C15   C17   A    
C19   N3    T    
C3    C9    S    
N5    C21   S    
N5    H7    S    
N6    H11   S    
C7    N1    A    
C2    O4    A    
C21   H8    S    
C22   H14   S    
O3    Zn2   S    
C24   N8    T    
C1    O3    A    
C16   C24   S    
C5    H3    S    
N6    C22   S    
C16   C18   A    
C23   N7    T    
C2    C17   S    
C3    O5    A    
C21   H9    S    
C9    C11   D    
C14   C17   A    
O2    Zn2   S    
C1    C18   S    
C4    O6    A    
C10   C12   D    
O4    Zn1   S    
N1    Zn1   S    
C10   C19   S    
C13   C18   A    
C12   H1    S    
N2    Zn2   S    
C22   H12   S    
O5    Zn1   S    
C13   C15   A    
C4    O8    A    
C21   H10   S    
C14   C16   A    
C11   H2    S    
C8    N6    S    
C6    N1    A    
C3    O7    A    
C4    C10   S    
C5    N2    A    
C6    H4    S    
C15   C23   S    
C9    C20   S    
O7    Zn2   S    
C8    N2    A    
C13   H5    S    
C1    O1    A    
O8    Zn1   S    
C14   H6    S    
C20   N4    T    
C5    C7    A    
C2    O2    A    
O1    Zn1   S    
C7    N5    S    
C22   H13   S    
