data_mof_unit_47105.cif
_audit_creation_date              2013-03-05T16:12:31-0500
_audit_creation_method            fapswitch 2.2
_symmetry_space_group_name_H-M    P1
_symmetry_Int_Tables_number       1
_space_group_crystal_system       triclinic
_cell_length_a                    23.830233
_cell_length_b                    7.215431
_cell_length_c                    20.689531
_cell_angle_alpha                 89.556384
_cell_angle_beta                  105.193128
_cell_angle_gamma                 89.481458
_cell_volume                      3432.79964401

loop_
_atom_site_label
_atom_site_type_symbol
_atom_site_description
_atom_site_fract_x
_atom_site_fract_y
_atom_site_fract_z
_atom_type_partial_charge
O1    O     O_R   0.449110 0.494310 0.552140 -0.586834
O2    O     O_R   0.550890 0.994310 0.447860 -0.586504
O3    O     O_R   0.440010 0.824420 0.415850 -0.574631
O4    O     O_R   0.559990 0.324420 0.584150 -0.576163
C1    C     C_R   0.425328 0.656918 0.391176 0.921446
C2    C     C_R   0.574421 0.154020 0.608871 0.920255
O5    O     O_R   0.442260 0.824040 0.549660 -0.566582
O6    O     O_R   0.557740 0.324040 0.450340 -0.565421
O7    O     O_R   0.553160 0.993960 0.582620 -0.589473
O8    O     O_R   0.446840 0.493960 0.417380 -0.593898
C3    C     C_R   0.428002 0.655700 0.566688 0.987707
C4    C     C_R   0.572030 0.155278 0.433388 0.986177
O9    O     O_3   0.536380 0.660670 0.510660 -0.264483
O10   O     O_3   0.463620 0.160670 0.489340 -0.266186
V1    V     V_3+5 0.493250 0.935680 0.498020 1.240401
V2    V     V_3+5 0.506750 0.435680 0.501980 1.237119
C5    C     C_R   0.851091 0.933008 0.203029 -0.015364
C6    C     C_R   0.198610 0.435140 0.857399 0.011113
C7    C     C_R   0.890821 0.926424 0.162839 0.063378
C8    C     C_R   0.158169 0.423602 0.896537 0.044037
C9    C     C_R   0.887198 0.058646 0.110774 -0.332059
C10   C     C_R   0.112324 0.556350 0.888251 -0.336161
C11   C     C_R   0.843360 0.198660 0.100531 0.319407
C12   C     C_R   0.107759 0.699155 0.839327 0.331612
C13   C     C_R   0.804164 0.202831 0.140654 -0.230473
C14   C     C_R   0.149277 0.711081 0.802231 -0.199777
H1    H     H_    0.770953 0.310612 0.132093 0.162007
H2    H     H_    0.145304 0.820344 0.764976 0.204969
C15   C     C_R   0.807663 0.072326 0.191831 0.052477
C16   C     C_R   0.194237 0.580384 0.810404 0.031757
C17   C     C_1   0.767140 0.085878 0.233334 -0.000697
C18   C     C_1   0.234817 0.595115 0.769070 0.023384
C19   C     C_1   0.733524 0.099401 0.268109 0.113228
C20   C     C_1   0.268317 0.608105 0.734182 0.113028
C21   C     C_R   0.648792 0.986687 0.304692 0.053696
C22   C     C_R   0.352487 0.489965 0.697022 0.054459
C23   C     C_R   0.610544 0.001270 0.345913 -0.146943
C24   C     C_R   0.390146 0.502072 0.655039 -0.144295
H3    H     H_    0.576084 0.901063 0.340711 0.142278
H4    H     H_    0.424490 0.399224 0.660120 0.142947
C25   C     C_R   0.615404 0.144289 0.392714 -0.325283
C26   C     C_R   0.384914 0.646221 0.607710 -0.324633
C27   C     C_R   0.660637 0.274743 0.398747 0.224239
C28   C     C_R   0.339876 0.780284 0.601834 0.222287
C29   C     C_R   0.699508 0.261327 0.357347 0.229119
C30   C     C_R   0.301626 0.769447 0.644019 0.225904
C31   C     C_R   0.693236 0.117417 0.309974 -0.079412
C32   C     C_R   0.308271 0.624317 0.691911 -0.077186
C33   C     C_R   0.634925 0.053193 0.791736 -0.136074
C34   C     C_R   0.359282 0.733092 0.207534 -0.148225
H5    H     H_    0.549879 0.089252 0.725687 0.107886
H6    H     H_    0.444033 0.759298 0.274378 0.106702
H7    H     H_    0.616701 0.018703 0.832993 0.133111
H8    H     H_    0.374860 0.782413 0.165890 0.131781
C35   C     C_R   0.616663 0.137428 0.675001 -0.096030
C36   C     C_R   0.382463 0.655734 0.325196 -0.097925
C37   C     C_R   0.901689 0.115988 0.772124 -0.191098
C38   C     C_R   0.102479 0.492507 0.228857 -0.292739
C39   C     C_R   0.864720 0.155717 0.709177 0.388158
C40   C     C_R   0.140830 0.480325 0.292520 0.412305
C41   C     C_R   0.804524 0.149465 0.700480 -0.253963
C42   C     C_R   0.199324 0.524755 0.300743 -0.248327
C43   C     C_R   0.779816 0.100129 0.753389 0.024794
C44   C     C_R   0.220965 0.582573 0.246357 0.018905
C45   C     C_R   0.818351 0.052712 0.817449 0.079003
C46   C     C_R   0.180775 0.599166 0.181189 0.081018
C47   C     C_R   0.717893 0.098740 0.744183 0.080919
C48   C     C_R   0.281432 0.624433 0.255396 0.079046
C49   C     C_R   0.695536 0.051203 0.799353 0.143818
C50   C     C_R   0.300409 0.687286 0.199440 0.140126
C51   C     C_R   0.733247 0.997625 0.861127 -0.030570
C52   C     C_R   0.260945 0.705503 0.135987 -0.052468
C53   C     C_R   0.794004 0.995280 0.870039 -0.039090
C54   C     C_R   0.201830 0.661319 0.126589 -0.058522
C55   C     C_R   0.676877 0.140968 0.681701 -0.180561
C56   C     C_R   0.324169 0.607310 0.318335 -0.167454
C57   C     C_R   0.596215 0.094851 0.730388 -0.188899
C58   C     C_R   0.399407 0.719272 0.269610 -0.185091
C59   C     C_R   0.880099 0.065721 0.826318 -0.218620
C60   C     C_R   0.120863 0.550887 0.173267 -0.196938
H9    H     H_    0.689690 0.170976 0.636617 0.148563
H10   H     H_    0.313915 0.560525 0.363376 0.133987
H11   H     H_    0.948276 0.126993 0.779581 0.209944
H12   H     H_    0.057301 0.455859 0.222179 0.165149
H13   H     H_    0.777999 0.185679 0.651486 0.188166
H14   H     H_    0.226976 0.513451 0.350772 0.180943
O11   O     O_R   0.053190 0.709680 0.082610 -0.587689
O12   O     O_R   0.946810 0.209680 0.917390 -0.582131
O13   O     O_R   0.057740 0.380240 0.950340 -0.574496
O14   O     O_R   0.942260 0.880240 0.049660 -0.568099
C61   C     C_R   0.070504 0.548274 0.931290 0.996747
C62   C     C_R   0.929027 0.049124 0.067970 0.941612
O15   O     O_R   0.060000 0.379940 0.084150 -0.595283
O16   O     O_R   0.940000 0.879940 0.915850 -0.556548
O17   O     O_R   0.949110 0.210100 0.052140 -0.552909
O18   O     O_R   0.050890 0.710100 0.947860 -0.577452
C63   C     C_R   0.075596 0.547456 0.108339 0.952511
C64   C     C_R   0.924426 0.050068 0.891756 1.004808
O19   O     O_3   0.963630 0.543720 0.989330 -0.242899
O20   O     O_3   0.036370 0.043720 0.010670 -0.300075
V3    V     V_3+5 0.006750 0.268680 0.001980 1.232274
V4    V     V_3+5 0.993250 0.768680 0.998020 1.242731
N1    N     N_3   0.855829 0.797339 0.255289 -0.193158
H15   H     H_    0.862201 0.866370 0.300845 0.174898
H16   H     H_    0.816522 0.726379 0.246317 0.164152
N2    N     N_3   0.244039 0.297945 0.866367 -0.224550
H17   H     H_    0.240359 0.232391 0.820567 0.156535
H18   H     H_    0.284056 0.365125 0.879836 0.095651
N3    N     N_3   0.709138 0.941972 0.915056 -0.222876
H19   H     H_    0.724532 0.029128 0.955812 0.155845
H20   H     H_    0.722004 0.805580 0.929278 0.134595
N4    N     N_3   0.281531 0.769628 0.080379 -0.222675
H21   H     H_    0.259026 0.890914 0.060586 0.106556
H22   H     H_    0.274162 0.667912 0.043514 0.107215
N5    N     N_R   0.888394 0.206536 0.654186 0.258229
O21   O     O_R   0.944389 0.213170 0.662329 -0.297290
O22   O     O_R   0.854287 0.245595 0.595328 -0.299837
N6    N     N_R   0.120371 0.421283 0.349028 0.253783
O23   O     O_R   0.065919 0.380881 0.341497 -0.349603
O24   O     O_R   0.155897 0.407365 0.408578 -0.305701
N7    N     N_3   0.830675 0.927501 0.932255 -0.203770
H23   H     H_    0.820752 0.789051 0.938944 0.166078
H24   H     H_    0.822912 0.005495 0.971282 0.110886
N8    N     N_3   0.163312 0.681081 0.060914 -0.208663
H25   H     H_    0.178503 0.597374 0.028097 0.074337
H26   H     H_    0.162614 0.819312 0.045225 0.125735
N9    N     N_3   0.936483 0.789185 0.176582 -0.183156
H27   H     H_    0.917683 0.658172 0.173677 0.169150
H28   H     H_    0.961816 0.807075 0.225629 0.139806
N10   N     N_3   0.164499 0.278584 0.945880 -0.189034
H29   H     H_    0.205636 0.288691 0.979420 0.084506
H30   H     H_    0.162241 0.151059 0.921713 0.153815
N11   N     N_R   0.836976 0.336249 0.048763 0.223664
O25   O     O_R   0.788689 0.345961 0.001541 -0.451818
O26   O     O_R   0.871016 0.478870 0.058878 -0.396622
N12   N     N_R   0.059531 0.827382 0.823850 0.241387
O27   O     O_R   0.067686 0.000205 0.810651 -0.397819
O28   O     O_R   0.006636 0.766044 0.811671 -0.382879
N13   N     N_3   0.642514 0.839403 0.256969 -0.211156
H31   H     H_    0.605945 0.760174 0.256779 0.102293
H32   H     H_    0.678548 0.750992 0.273049 0.177090
N14   N     N_3   0.359188 0.341716 0.745416 -0.218780
H33   H     H_    0.395459 0.259284 0.745217 0.100915
H34   H     H_    0.322941 0.256587 0.730354 0.175943
N15   N     N_R   0.667827 0.419948 0.447162 0.268814
O29   O     O_R   0.676235 0.379638 0.510421 -0.377737
O30   O     O_R   0.668852 0.592285 0.428548 -0.359325
N16   N     N_R   0.332270 0.926564 0.552778 0.267531
O31   O     O_R   0.323648 0.887581 0.489644 -0.367478
O32   O     O_R   0.331488 0.098790 0.570755 -0.354668
N17   N     N_R   0.746715 0.389548 0.365577 0.258319
O33   O     O_R   0.779678 0.424134 0.425009 -0.257997
O34   O     O_R   0.757814 0.469172 0.313726 -0.436683
N18   N     N_R   0.254655 0.901651 0.636111 0.261658
O35   O     O_R   0.221173 0.939978 0.576877 -0.254349
O36   O     O_R   0.244249 0.981091 0.688086 -0.422572

loop_
_geom_bond_atom_site_label_1
_geom_bond_atom_site_label_2
_geom_bond_distance
_ccdc_geom_bond_type
C10   C61   1.501623 S    
C54   N8    1.431805 S    
C43   C45   1.437451 A    
C45   C59   1.438398 A    
O18   V4    1.971246 S    
C60   C63   1.486697 S    
C5    C15   1.409647 A    
C37   C59   1.397452 A    
C1    C36   1.475272 S    
O1    C3    1.331859 A    
C2    C35   1.474106 S    
C21   C31   1.407994 A    
C2    O7    1.327236 A    
N4    H22   1.044991 S    
N15   O29   1.301256 A    
C45   C53   1.421438 A    
O5    C3    1.333611 A    
C42   H14   1.073518 S    
C34   H8    1.082641 S    
C36   C56   1.406492 A    
C44   C48   1.438743 A    
C21   C23   1.405793 A    
N16   O32   1.301278 A    
C24   C26   1.405024 A    
N3    H20   1.044925 S    
C35   C57   1.391007 A    
C37   C39   1.393796 A    
N2    H17   1.045704 S    
O16   C64   1.333570 A    
C38   C40   1.394152 A    
N5    O21   1.301784 A    
C46   C54   1.422071 A    
C36   C58   1.390834 A    
C3    C26   1.495480 S    
C40   C42   1.399776 A    
C49   C51   1.405193 A    
C22   N14   1.438311 S    
N6    O23   1.301772 A    
O14   V4    1.985446 S    
C42   C44   1.416647 A    
C59   C64   1.485757 S    
C21   N13   1.438179 S    
C61   O18   1.334052 A    
N5    O22   1.301802 A    
N17   O33   1.301262 A    
C37   H11   1.083803 S    
C40   N6    1.442522 S    
C6    C16   1.408433 A    
O13   C61   1.334162 A    
N18   O36   1.301223 A    
C38   C60   1.397175 A    
C35   C55   1.405474 A    
C12   N12   1.436201 S    
O5    V1    1.987885 S    
O2    C4    1.332916 A    
O6    V2    1.985679 S    
C24   H4    1.083639 S    
C33   C49   1.411229 A    
C23   C25   1.405256 A    
C25   C27   1.418856 A    
C26   C28   1.418941 A    
N9    H28   1.045553 S    
H6    C58   1.084001 S    
C34   C58   1.387930 A    
N4    H21   1.044993 S    
N15   O30   1.301245 A    
C28   C30   1.419829 A    
O12   V3    1.999179 S    
C30   C32   1.414983 A    
C29   C31   1.415273 A    
C13   C15   1.397008 A    
C30   N18   1.439397 S    
C43   C47   1.437659 A    
C39   C41   1.399342 A    
C11   N11   1.432223 S    
N16   O31   1.301381 A    
C52   C54   1.410482 A    
C56   H10   1.076130 S    
C51   C53   1.410724 A    
C55   H9    1.075863 S    
O11   C63   1.329895 A    
C62   O17   1.331067 A    
C29   N17   1.439215 S    
C18   C20   1.212206 T    
O4    V2    1.993545 S    
N10   H30   1.045709 S    
H5    C57   1.083931 S    
C4    C25   1.496099 S    
C27   N15   1.435266 S    
C38   H12   1.084354 S    
O11   V4    1.987870 S    
O14   C62   1.338163 A    
O6    C4    1.335456 A    
O19   V4    1.767487 S    
C17   C19   1.212697 T    
N7    H23   1.045142 S    
N1    H16   1.045491 S    
O1    V2    1.971325 S    
C48   C56   1.431167 A    
O2    V1    1.973210 S    
C27   C29   1.420065 A    
N18   O35   1.301246 A    
C41   H13   1.073491 S    
O4    C2    1.334902 A    
C8    C10   1.421530 A    
C14   C16   1.396461 A    
C53   N7    1.432713 S    
C9    C11   1.420703 A    
N11   O25   1.300676 A    
C19   C31   1.457485 S    
C10   C12   1.422052 A    
C20   C32   1.456698 S    
O15   V3    2.013394 S    
N9    H27   1.045174 S    
O15   C63   1.330251 A    
O3    V1    2.013297 S    
N12   O28   1.301387 A    
N8    H26   1.045125 S    
O13   V3    1.987654 S    
O10   V1    1.753430 S    
C41   C43   1.416791 A    
C12   C14   1.404940 A    
N12   O27   1.301637 A    
O3    C1    1.329404 A    
C6    C8    1.414503 A    
C50   C52   1.404699 A    
N13   H31   1.045698 S    
C13   H1    1.084328 S    
C46   C60   1.440072 A    
C14   H2    1.084250 S    
C52   N4    1.438779 S    
C22   C24   1.405804 A    
N10   H29   1.045655 S    
C5    N1    1.434476 S    
C1    O8    1.331467 A    
C15   C17   1.453838 S    
O8    V2    1.986630 S    
N3    H19   1.044669 S    
C16   C18   1.453160 S    
N13   H32   1.045017 S    
N2    H18   1.045558 S    
C6    N2    1.434844 S    
C33   H7    1.082649 S    
C51   N3    1.438560 S    
C7    N9    1.435064 S    
O20   V3    1.753141 S    
C28   N16   1.435445 S    
C33   C57   1.388405 A    
C22   C32   1.408082 A    
N14   H34   1.044990 S    
N17   O34   1.301067 A    
C34   C50   1.411253 A    
N6    O24   1.301770 A    
N7    H24   1.042281 S    
C5    C7    1.415094 A    
C23   H3    1.083656 S    
C11   C13   1.403134 A    
C47   C55   1.430238 A    
O16   V4    1.993640 S    
C39   N5    1.442526 S    
O9    V2    1.767779 S    
N1    H15   1.045529 S    
N11   O26   1.300112 A    
C48   C50   1.421440 A    
N14   H33   1.045687 S    
C8    N10   1.435184 S    
C47   C49   1.421405 A    
O12   C64   1.328318 A    
O17   V3    1.973127 S    
O7    V1    1.997803 S    
C44   C46   1.438090 A    
N8    H25   1.043113 S    
C7    C9    1.418387 A    
C9    C62   1.498339 S    
