data_mof_unit_60132.cif
_audit_creation_date              2012-12-10T18:24:43-0500
_audit_creation_method            fapswitch 2.2
_symmetry_space_group_name_H-M    P1
_symmetry_Int_Tables_number       1
_space_group_crystal_system       triclinic
_cell_length_a                    16.061032
_cell_length_b                    16.0621
_cell_length_c                    19.47071
_cell_angle_alpha                 95.462338
_cell_angle_beta                  90.282659
_cell_angle_gamma                 84.113549
_cell_volume                      4973.70148369

loop_
_atom_site_label
_atom_site_type_symbol
_atom_type_description
_atom_site_fract_x
_atom_site_fract_y
_atom_site_fract_z
_atom_type_partial_charge
C1    C     C_R   0.275784 0.510950 0.491134 0.509541
C2    C     C_2   0.462977 0.521584 0.982709 -0.098729
C3    C     C_2   0.523082 0.477521 0.015862 -0.101364
C4    C     C_R   0.724048 0.489363 0.508884 0.507933
C5    C     C_R   0.511798 0.490453 0.235942 -0.002481
C6    C     C_1   0.186376 0.517221 0.486530 0.031809
C7    C     C_2   0.021116 0.530719 0.476076 0.051141
C8    C     C_2   0.978398 0.483254 0.514180 -0.138494
C9    C     C_1   0.888550 0.484173 0.513344 0.021107
C10   C     C_1   0.111225 0.523091 0.482051 -0.028611
C11   C     C_1   0.813425 0.485775 0.511937 0.064803
C12   C     C_R   0.464275 0.520325 0.907202 0.002834
C13   C     C_1   0.515229 0.185306 0.488051 0.051727
C14   C     C_2   0.519926 0.019911 0.485831 -0.148326
C15   C     C_2   0.459482 0.980937 0.513525 0.046118
C16   C     C_R   0.511749 0.275002 0.490821 0.501432
C17   C     C_1   0.471528 0.890451 0.512120 -0.042773
C18   C     C_1   0.517552 0.109978 0.486659 0.009503
C19   C     C_1   0.480137 0.814964 0.510865 0.020478
C20   C     C_R   0.488082 0.725192 0.509124 0.510855
C21   C     C_R   0.509250 0.491100 0.311366 0.503936
C22   C     C_R   0.488966 0.509488 0.688461 0.502758
C23   C     C_R   0.457189 0.595357 0.873808 0.067703
C24   C     C_R   0.479616 0.510868 0.763275 0.008453
C25   C     C_R   0.483508 0.436138 0.796385 -0.018145
C26   C     C_R   0.476500 0.441930 0.868131 -0.141879
C27   C     C_R   0.490715 0.351588 0.757514 0.050955
C28   C     C_R   0.555388 0.290215 0.772325 -0.086593
C29   C     C_R   0.562115 0.210614 0.735552 -0.106496
C30   C     C_R   0.504162 0.191524 0.684126 -0.080952
C31   C     C_R   0.439094 0.251853 0.669670 -0.093674
C32   C     C_R   0.432036 0.331417 0.706340 -0.073575
C33   C     C_R   0.506385 0.326439 0.084338 0.032244
C34   C     C_R   0.465361 0.589097 0.801936 -0.129575
C35   C     C_R   0.441706 0.315806 0.036373 -0.095000
C36   C     C_R   0.436950 0.238108 0.998355 -0.112351
C37   C     C_R   0.496055 0.170296 0.008420 -0.093555
C38   C     C_R   0.559880 0.180017 0.056676 -0.104127
C39   C     C_R   0.565025 0.257705 0.094660 -0.095344
C40   C     C_2   0.981472 0.590381 0.428181 0.605010
C41   C     C_2   0.380784 0.025395 0.545152 0.594554
C42   C     C_R   0.525772 0.645909 0.246230 0.078393
C43   C     C_R   0.601521 0.682483 0.253007 -0.042088
C44   C     C_R   0.605170 0.758709 0.293536 -0.085163
C45   C     C_R   0.528214 0.560112 0.131262 0.050481
C46   C     C_R   0.533405 0.798777 0.327478 -0.079630
C47   C     C_R   0.457877 0.762596 0.321091 -0.086459
C48   C     C_R   0.453927 0.686372 0.280617 -0.047718
C49   C     C_2   0.445365 0.681201 0.911176 0.588272
C50   C     C_2   0.541750 0.636554 0.096577 0.586254
C51   C     C_R   0.521914 0.564374 0.203907 -0.052080
C52   C     C_R   0.507306 0.414045 0.195975 -0.137208
C53   C     C_R   0.512607 0.408976 0.124218 -0.021353
C54   C     C_R   0.522377 0.482175 0.091642 -0.005551
H1    H     H_    0.012274 0.441365 0.547781 0.112604
H2    H     H_    0.509540 0.129973 0.655594 0.131250
H3    H     H_    0.394072 0.237075 0.630039 0.137988
H4    H     H_    0.380876 0.377282 0.694873 0.098037
H5    H     H_    0.394996 0.367564 0.028494 0.118730
H6    H     H_    0.387342 0.230440 0.961178 0.120466
H7    H     H_    0.492271 0.110171 0.978968 0.124518
H8    H     H_    0.605496 0.127386 0.064549 0.120563
H9    H     H_    0.615095 0.264550 0.131592 0.112951
H10   H     H_    0.876650 0.643588 0.385538 0.342933
H11   H     H_    0.300736 0.131109 0.558718 0.336305
H12   H     H_    0.575153 0.982873 0.463115 0.107049
H13   H     H_    0.657548 0.651775 0.227127 0.116447
H14   H     H_    0.663654 0.786679 0.298699 0.114411
H15   H     H_    0.536367 0.857751 0.358843 0.109876
H16   H     H_    0.402460 0.793536 0.347650 0.118088
H17   H     H_    0.395154 0.658766 0.276096 0.109961
H18   H     H_    0.460963 0.804303 0.910525 0.350003
H19   H     H_    0.604729 0.687279 0.024265 0.353224
H20   H     H_    0.499994 0.357668 0.220957 0.139227
H21   H     H_    0.571688 0.436178 0.987629 0.144379
H22   H     H_    0.461410 0.645804 0.775490 0.174134
H23   H     H_    0.413598 0.560056 0.012201 0.182014
H24   H     H_    0.479253 0.384693 0.893843 0.116934
H25   H     H_    0.600944 0.304279 0.811827 0.111594
H26   H     H_    0.612352 0.163754 0.746868 0.117704
O1    O     O_3   0.500000 0.500000 0.500000 -0.448217
O2    O     O_R   0.462330 0.445560 0.340470 -0.539658
O3    O     O_R   0.440930 0.559110 0.655640 -0.544979
O4    O     O_R   0.554010 0.538050 0.348260 -0.535536
O5    O     O_R   0.542730 0.457290 0.655630 -0.524826
O6    O     O_2   0.025772 0.630596 0.395801 -0.498926
O7    O     O_R   0.894669 0.601262 0.419556 -0.690228
O8    O     O_2   0.336679 0.987491 0.579729 -0.494277
O9    O     O_R   0.355560 0.109140 0.534666 -0.711983
O10   O     O_2   0.410517 0.693618 0.967375 -0.493007
O11   O     O_R   0.472711 0.749082 0.880703 -0.700708
O12   O     O_R   0.555880 0.314540 0.535300 -0.537675
O13   O     O_2   0.499912 0.703345 0.113256 -0.480371
O14   O     O_R   0.602049 0.631670 0.044388 -0.685930
O15   O     O_R   0.439840 0.689760 0.546310 -0.520077
O16   O     O_R   0.320170 0.458170 0.449830 -0.530867
O17   O     O_R   0.684110 0.537530 0.468570 -0.518442
O18   O     O_R   0.310830 0.559620 0.535340 -0.532170
O19   O     O_R   0.684890 0.444680 0.546270 -0.542258
O20   O     O_R   0.463420 0.314900 0.449800 -0.529814
O21   O     O_R   0.540870 0.680800 0.468590 -0.538132
Zn1   Zn    Zn3+2 0.569660 0.430340 0.558290 0.952162
Zn2   Zn    Zn3+2 0.437560 0.430860 0.436130 0.954415
Zn3   Zn    Zn3+2 0.568560 0.563000 0.447270 0.957876
Zn4   Zn    Zn3+2 0.424220 0.575810 0.558310 0.963240

loop_
_geom_bond_atom_site_label_1
_geom_bond_atom_site_label_2
_ccdc_geom_bond_type
C7    C10   S    
C41   O9    S    
C14   C18   S    
C19   C20   S    
C32   H4    S    
C49   O10   D    
C2    C12   S    
C7    C8    D    
C53   C54   A    
H11   O9    S    
C12   C23   A    
C26   H24   S    
O18   Zn4   S    
C13   C18   T    
C40   O7    S    
C36   C37   A    
C37   C38   A    
C52   H20   S    
C30   C31   A    
C3    C54   S    
C23   C49   S    
C45   C51   A    
C35   H5    S    
C22   O5    A    
C40   O6    D    
C28   H25   S    
C46   H15   S    
O15   Zn4   S    
C33   C35   A    
C31   C32   A    
C8    C9    S    
C7    C40   S    
C5    C52   A    
C3    H21   S    
H10   O7    S    
O12   Zn1   S    
C42   C51   S    
C4    O17   A    
H19   O14   S    
C49   O11   S    
C8    H1    S    
C44   C46   A    
O1    Zn1   S    
C33   C53   S    
O1    Zn4   S    
C1    C6    S    
C24   C25   A    
C15   C41   S    
H18   O11   S    
C50   O14   S    
C42   C48   A    
C20   O21   A    
C25   C26   A    
C30   H2    S    
O20   Zn2   S    
C24   C34   A    
O3    Zn4   S    
C12   C26   A    
C35   C36   A    
C43   C44   A    
C47   H16   S    
C29   C30   A    
C47   C48   A    
C21   O4    A    
O2    Zn2   S    
C23   C34   A    
C14   H12   S    
C33   C39   A    
C4    C11   S    
C9    C11   T    
C20   O15   A    
C45   C54   A    
C16   O12   A    
O21   Zn3   S    
O4    Zn3   S    
C22   C24   S    
C4    O19   A    
C42   C43   A    
C48   H17   S    
C52   C53   A    
O1    Zn2   S    
C15   C17   S    
C41   O8    D    
C46   C47   A    
C28   C29   A    
C27   C32   A    
C16   O20   A    
C36   H6    S    
C1    O18   A    
C6    C10   T    
C37   H7    S    
C50   O13   D    
C25   C27   S    
C39   H9    S    
C22   O3    A    
C31   H3    S    
C2    C3    D    
C13   C16   S    
C2    H23   S    
C38   C39   A    
C29   H26   S    
C45   C50   S    
C1    O16   A    
C17   C19   T    
O17   Zn3   S    
C44   H14   S    
O19   Zn1   S    
C5    C21   S    
C21   O2    A    
C43   H13   S    
O16   Zn2   S    
C27   C28   A    
C14   C15   D    
C5    C51   A    
O5    Zn1   S    
C34   H22   S    
C38   H8    S    
O1    Zn3   S    
