data_mof_unit_10811.cif
_audit_creation_date              2012-12-11T16:45:51-0500
_audit_creation_method            fapswitch 2.2
_symmetry_space_group_name_H-M    P1
_symmetry_Int_Tables_number       1
_space_group_crystal_system       triclinic
_cell_length_a                    19.755083
_cell_length_b                    17.022885
_cell_length_c                    15.323545
_cell_angle_alpha                 90.0
_cell_angle_beta                  52.61378
_cell_angle_gamma                 90.000026
_cell_volume                      4094.47608627

loop_
_atom_site_label
_atom_site_type_symbol
_atom_type_description
_atom_site_fract_x
_atom_site_fract_y
_atom_site_fract_z
_atom_type_partial_charge
C1    C     C_R   0.839737 0.673326 0.047143 -0.116854
C2    C     C_R   0.150291 0.310723 0.071088 0.160037
C3    C     C_3   0.956837 0.971560 0.838326 -0.939633
C4    C     C_R   0.349709 0.810723 0.928912 0.160038
C5    C     C_R   0.650290 0.810723 0.071089 0.160021
C6    C     C_R   0.893454 0.686056 0.302414 0.082274
C7    C     C_R   0.106542 0.686059 0.697588 0.082283
C8    C     C_R   0.393459 0.186060 0.302410 0.082285
C9    C     C_R   0.606543 0.186060 0.697589 0.082281
C10   C     C_R   0.848236 0.709801 0.488650 0.139314
C11   C     C_R   0.151716 0.709827 0.511370 0.139366
C12   C     C_R   0.348278 0.209824 0.488631 0.139361
C13   C     C_R   0.160264 0.673326 0.952856 -0.116835
C14   C     C_R   0.651748 0.209811 0.511359 0.139322
C15   C     C_R   0.877125 0.741239 0.386899 -0.038283
C16   C     C_R   0.122858 0.741251 0.613116 -0.038333
C17   C     C_R   0.377140 0.241251 0.386885 -0.038318
C18   C     C_R   0.622869 0.241246 0.613108 -0.038292
C19   C     C_R   0.374206 0.324282 0.379298 0.136973
C20   C     C_R   0.625783 0.324280 0.620691 0.136990
C21   C     C_R   0.874222 0.824274 0.379313 0.136977
C22   C     C_R   0.125797 0.824282 0.620704 0.136960
C23   C     C_R   0.315779 0.366594 0.477264 -0.264055
C24   C     C_R   0.339736 0.173326 0.047144 -0.116823
C25   C     C_R   0.684203 0.366594 0.522724 -0.264117
C26   C     C_R   0.815804 0.866591 0.477277 -0.264114
C27   C     C_R   0.184226 0.866594 0.522740 -0.264026
C28   C     C_R   0.269842 0.327843 0.579309 0.007950
C29   C     C_R   0.730156 0.327840 0.420681 0.007972
C30   C     C_R   0.769841 0.827836 0.579321 0.007977
C31   C     C_R   0.230158 0.827844 0.420693 0.007940
C32   C     C_R   0.796215 0.752689 0.583249 0.158174
C33   C     C_R   0.203745 0.752716 0.416770 0.158160
C34   C     C_R   0.296250 0.252712 0.583232 0.158160
C35   C     C_R   0.660263 0.173326 0.952857 -0.116851
C36   C     C_R   0.703769 0.252699 0.416757 0.158184
C37   C     C_3   0.745368 0.681748 0.648545 -0.513886
C38   C     C_3   0.254553 0.681764 0.351461 -0.513885
C39   C     C_3   0.245437 0.181762 0.648538 -0.513884
C40   C     C_3   0.754602 0.181754 0.351458 -0.513906
C41   C     C_R   0.850119 0.329131 0.218703 -0.145324
C42   C     C_R   0.149880 0.329130 0.781293 -0.145325
C43   C     C_R   0.350119 0.829130 0.218708 -0.145325
C44   C     C_R   0.649882 0.829133 0.781297 -0.145315
C45   C     C_3   0.802182 0.634687 0.544810 -0.506240
C46   C     C_R   0.808725 0.359797 0.323088 0.086805
C47   C     C_3   0.197732 0.634704 0.455195 -0.506280
C48   C     C_3   0.302257 0.134703 0.544804 -0.506292
C49   C     C_3   0.697790 0.134694 0.455195 -0.506247
C50   C     C_2   0.786173 0.183266 0.954910 -0.207510
C51   C     C_2   0.213827 0.183266 0.045090 -0.207470
C52   C     C_2   0.286174 0.683265 0.954908 -0.207478
C53   C     C_2   0.713827 0.683266 0.045089 -0.207498
C54   C     C_2   0.311145 0.752574 0.902586 -0.203295
C55   C     C_2   0.688855 0.752574 0.097413 -0.203332
C56   C     C_2   0.811145 0.252574 0.902586 -0.203332
C57   C     C_R   0.191271 0.359795 0.676908 0.086803
C58   C     C_2   0.188856 0.252574 0.097413 -0.203286
C59   C     C_R   0.866620 0.388272 0.895325 -0.161092
C60   C     C_R   0.133380 0.388272 0.104674 -0.161057
C61   C     C_R   0.366620 0.888272 0.895326 -0.161062
C62   C     C_R   0.633380 0.888272 0.104674 -0.161105
C63   C     C_R   0.911924 0.608081 0.300416 -0.147620
C64   C     C_R   0.088074 0.608082 0.699584 -0.147637
C65   C     C_R   0.411927 0.108083 0.300414 -0.147636
C66   C     C_R   0.588073 0.108083 0.699586 -0.147624
C67   C     C_R   0.877438 0.298320 0.990897 -0.134579
C68   C     C_R   0.308729 0.859795 0.323093 0.086806
C69   C     C_R   0.122563 0.298320 0.009102 -0.134598
C70   C     C_R   0.377437 0.798320 0.990898 -0.134596
C71   C     C_R   0.622562 0.798320 0.009103 -0.134572
C72   C     C_R   0.897986 0.698802 0.209483 -0.149514
C73   C     C_R   0.102008 0.698803 0.790521 -0.149502
C74   C     C_R   0.397991 0.198803 0.209479 -0.149506
C75   C     C_R   0.602014 0.198802 0.790518 -0.149508
C76   C     C_R   0.858705 0.420603 0.316841 -0.133630
C77   C     C_R   0.141291 0.420602 0.683158 -0.133626
C78   C     C_R   0.358709 0.920601 0.316842 -0.133625
C79   C     C_R   0.691275 0.859799 0.676913 0.086801
C80   C     C_R   0.641296 0.920604 0.683159 -0.133630
C81   C     C_R   0.829793 0.580455 0.951251 -0.156187
C82   C     C_R   0.170208 0.580455 0.048748 -0.156201
C83   C     C_R   0.329792 0.080455 0.951251 -0.156211
C84   C     C_R   0.670207 0.080455 0.048749 -0.156186
C85   C     C_R   0.788216 0.644045 0.021873 0.153476
C86   C     C_R   0.211785 0.644044 0.978125 0.153449
C87   C     C_R   0.288215 0.144044 0.021874 0.153431
C88   C     C_R   0.711784 0.144045 0.978127 0.153492
C89   C     C_3   0.429297 0.367973 0.271102 -0.447008
C90   C     C_R   0.849710 0.310723 0.928911 0.160030
C91   C     C_3   0.482045 0.432805 0.274043 -0.217691
C92   C     C_3   0.543122 0.471610 0.161720 -0.939647
C93   C     C_3   0.570680 0.367982 0.728877 -0.447054
C94   C     C_3   0.517816 0.432698 0.725969 -0.217713
C95   C     C_3   0.456942 0.471694 0.838184 -0.939877
C96   C     C_3   0.929347 0.867973 0.271126 -0.447021
C97   C     C_3   0.982220 0.932673 0.274049 -0.217705
C98   C     C_3   0.043174 0.971614 0.161806 -0.939790
C99   C     C_3   0.070707 0.867967 0.728907 -0.446960
C100  C     C_3   0.018005 0.932849 0.725953 -0.217601
H1    H     H_    0.830031 0.724271 0.095308 0.088749
H2    H     H_    0.246250 0.666268 0.287974 0.185447
H3    H     H_    0.253738 0.166263 0.712027 0.185448
H4    H     H_    0.746311 0.166238 0.287966 0.185442
H5    H     H_    0.678236 0.683762 0.677914 0.202287
H6    H     H_    0.321692 0.683743 0.322071 0.202276
H7    H     H_    0.178299 0.183745 0.677926 0.202277
H8    H     H_    0.821738 0.183757 0.322076 0.202279
H9    H     H_    0.842794 0.592143 0.549079 0.184230
H10   H     H_    0.157092 0.592187 0.450940 0.184240
H11   H     H_    0.342893 0.092182 0.549060 0.184242
H12   H     H_    0.169970 0.724270 0.904688 0.088733
H13   H     H_    0.657168 0.092156 0.450935 0.184232
H14   H     H_    0.767251 0.609946 0.515273 0.199723
H15   H     H_    0.232668 0.609930 0.484707 0.199703
H16   H     H_    0.267321 0.109933 0.515289 0.199698
H17   H     H_    0.732726 0.109946 0.484720 0.199720
H18   H     H_    0.808928 0.162080 0.999569 0.125946
H19   H     H_    0.191072 0.162080 0.000432 0.125957
H20   H     H_    0.308930 0.662079 0.999566 0.125957
H21   H     H_    0.691073 0.662081 0.000430 0.125949
H22   H     H_    0.290347 0.772805 0.855310 0.125232
H23   H     H_    0.330030 0.224270 0.095310 0.088732
H24   H     H_    0.709652 0.772805 0.144690 0.125246
H25   H     H_    0.790348 0.272805 0.855309 0.125244
H26   H     H_    0.209653 0.272805 0.144689 0.125230
H27   H     H_    0.827818 0.283657 0.193171 0.109461
H28   H     H_    0.172182 0.283656 0.806825 0.109463
H29   H     H_    0.327817 0.783657 0.193175 0.109463
H30   H     H_    0.672182 0.783657 0.806829 0.109459
H31   H     H_    0.862517 0.414951 0.834611 0.090779
H32   H     H_    0.137483 0.414951 0.165389 0.090769
H33   H     H_    0.362517 0.914951 0.834611 0.090771
H34   H     H_    0.669969 0.224272 0.904692 0.088744
H35   H     H_    0.637483 0.914951 0.165389 0.090784
H36   H     H_    0.927829 0.580037 0.349101 0.101078
H37   H     H_    0.072165 0.580039 0.650904 0.101087
H38   H     H_    0.427836 0.080040 0.349095 0.101087
H39   H     H_    0.572166 0.080040 0.650903 0.101080
H40   H     H_    0.886211 0.242702 0.016757 0.083466
H41   H     H_    0.113791 0.242702 0.983241 0.083471
H42   H     H_    0.386209 0.742702 0.016759 0.083473
H43   H     H_    0.613789 0.742702 0.983244 0.083465
H44   H     H_    0.894752 0.754510 0.178610 0.089040
H45   H     H_    0.302788 0.427711 0.473123 0.133163
H46   H     H_    0.105226 0.754511 0.821407 0.089031
H47   H     H_    0.394768 0.254510 0.178596 0.089029
H48   H     H_    0.605250 0.254508 0.821393 0.089034
H49   H     H_    0.845424 0.457570 0.382925 0.095823
H50   H     H_    0.154569 0.457569 0.617075 0.095814
H51   H     H_    0.345432 0.957569 0.382924 0.095812
H52   H     H_    0.654578 0.957570 0.617074 0.095826
H53   H     H_    0.808834 0.546163 0.912312 0.098924
H54   H     H_    0.191167 0.546162 0.087687 0.098926
H55   H     H_    0.308834 0.046162 0.912313 0.098931
H56   H     H_    0.697177 0.427718 0.526864 0.133199
H57   H     H_    0.691166 0.046162 0.087687 0.098926
H58   H     H_    0.588924 0.427741 0.099760 0.260854
H59   H     H_    0.507059 0.498202 0.135003 0.259262
H60   H     H_    0.579602 0.518658 0.166725 0.256403
H61   H     H_    0.439406 0.478837 0.334487 0.193120
H62   H     H_    0.519688 0.407188 0.299088 0.200617
H63   H     H_    0.475459 0.327241 0.204082 0.196420
H64   H     H_    0.388102 0.394013 0.251921 0.184214
H65   H     H_    0.411336 0.427883 0.900446 0.260870
H66   H     H_    0.493191 0.498575 0.864436 0.259293
H67   H     H_    0.802843 0.927719 0.473135 0.133199
H68   H     H_    0.420242 0.518537 0.833267 0.256465
H69   H     H_    0.560369 0.478647 0.665287 0.193208
H70   H     H_    0.480008 0.406927 0.701269 0.200614
H71   H     H_    0.524583 0.327248 0.795934 0.196330
H72   H     H_    0.611876 0.394122 0.747990 0.184351
H73   H     H_    0.088748 0.927759 0.099599 0.260869
H74   H     H_    0.006986 0.998538 0.135486 0.259265
H75   H     H_    0.079913 0.018418 0.166723 0.256450
H76   H     H_    0.939673 0.978656 0.334669 0.193186
H77   H     H_    0.019966 0.906898 0.298843 0.200603
H78   H     H_    0.197221 0.927710 0.526880 0.133149
H79   H     H_    0.975436 0.827230 0.204076 0.196340
H80   H     H_    0.888167 0.894132 0.251995 0.184323
H81   H     H_    0.910956 0.927662 0.900148 0.260851
H82   H     H_    0.992813 0.998020 0.865254 0.259257
H83   H     H_    0.920451 0.018694 0.833290 0.256394
H84   H     H_    0.060678 0.978925 0.665612 0.193058
H85   H     H_    0.980434 0.907297 0.700755 0.200600
H86   H     H_    0.024518 0.827233 0.795906 0.196454
H87   H     H_    0.111898 0.893967 0.748123 0.184148
H88   H     H_    0.753648 0.666225 0.712046 0.185437
N1    N     N_R   0.908660 0.628630 0.995840 -0.045432
N2    N     N_R   0.096530 0.421430 0.063580 -0.037318
N3    N     N_R   0.403470 0.921430 0.936420 -0.037318
N4    N     N_R   0.596530 0.921430 0.063580 -0.037312
N5    N     N_R   0.927500 0.575670 0.211370 -0.037887
N6    N     N_R   0.072500 0.575670 0.788630 -0.037888
N7    N     N_R   0.427500 0.075670 0.211370 -0.037888
N8    N     N_R   0.572500 0.075670 0.788630 -0.037887
N9    N     N_R   0.908660 0.365680 0.995820 -0.042913
N10   N     N_R   0.091340 0.365680 0.004180 -0.042915
N11   N     N_R   0.408660 0.865680 0.995820 -0.042915
N12   N     N_R   0.091340 0.628630 0.004160 -0.045433
N13   N     N_R   0.591340 0.865680 0.004180 -0.042913
N14   N     N_R   0.922310 0.631420 0.151980 -0.037343
N15   N     N_R   0.077690 0.631420 0.848020 -0.037345
N16   N     N_R   0.422310 0.131420 0.151980 -0.037346
N17   N     N_R   0.577690 0.131420 0.848020 -0.037344
N18   N     N_R   0.927500 0.426330 0.211360 -0.039691
N19   N     N_R   0.072500 0.426330 0.788640 -0.039690
N20   N     N_R   0.427500 0.926330 0.211360 -0.039689
N21   N     N_R   0.572500 0.926330 0.788640 -0.039692
N22   N     N_R   0.903470 0.570760 0.936440 -0.040220
N23   N     N_R   0.408660 0.128630 0.995840 -0.045433
N24   N     N_R   0.096530 0.570760 0.063560 -0.040218
N25   N     N_R   0.403470 0.070760 0.936440 -0.040216
N26   N     N_R   0.596530 0.070760 0.063560 -0.040221
N27   N     N_R   0.591340 0.128630 0.004160 -0.045433
N28   N     N_R   0.922310 0.368460 0.151950 -0.040822
N29   N     N_R   0.077690 0.368460 0.848050 -0.040821
N30   N     N_R   0.422310 0.868460 0.151950 -0.040821
N31   N     N_R   0.577690 0.868460 0.848050 -0.040823
N32   N     N_R   0.903470 0.421430 0.936420 -0.037313
Ni1   Ni    Ni4+2 0.000000 0.630300 0.000000 0.203320
Ni2   Ni    Ni4+2 0.500000 0.130300 0.000000 0.203320
Ni3   Ni    Ni4+2 0.000000 0.369700 0.000000 0.209176
Ni4   Ni    Ni4+2 0.500000 0.869700 0.000000 0.209176
Ni5   Ni    Ni4+2 0.988090 0.497570 0.863760 0.208609
Ni6   Ni    Ni4+2 0.011910 0.497570 0.136240 0.208609
Ni7   Ni    Ni4+2 0.488090 0.997570 0.863760 0.208609
Ni8   Ni    Ni4+2 0.511910 0.997570 0.136240 0.208610

loop_
_geom_bond_atom_site_label_1
_geom_bond_atom_site_label_2
_ccdc_geom_bond_type
C24   C87   A    
N29   Ni3   S    
C83   C87   A    
C21   C26   A    
N27   Ni2   S    
C93   H72   S    
C93   C94   S    
C13   N12   A    
C75   N17   A    
C41   H27   S    
C11   C47   S    
N32   Ni5   S    
C27   H78   S    
C12   C48   S    
C42   N29   A    
C95   H68   S    
C60   H32   S    
C46   C76   A    
C97   C98   S    
C61   H33   S    
C7    C73   A    
C28   C57   S    
C47   H15   S    
C23   H45   S    
C29   C36   A    
C59   H31   S    
N12   N24   A    
C74   N16   A    
N7    Ni8   S    
C92   H59   S    
C19   C89   S    
N12   Ni1   S    
N6    Ni5   S    
C71   H43   S    
C68   C78   A    
N3    N11   A    
N5    Ni6   S    
C13   H12   S    
C59   N32   A    
C77   N19   A    
C94   H69   S    
C14   C36   A    
C98   H74   S    
C45   H9    S    
C37   H88   S    
C83   H55   S    
C20   C25   A    
C69   H41   S    
C40   C49   S    
C95   H65   S    
N17   Ni2   S    
C81   H53   S    
C42   C57   A    
C92   H58   S    
C11   C16   A    
N8    N17   A    
N3    Ni7   S    
C14   C18   A    
C9    C66   A    
C6    C15   S    
N4    Ni8   S    
C3    C100  S    
N19   Ni5   S    
C49   H17   S    
C66   H39   S    
C76   N18   A    
C43   C68   A    
C64   N6    A    
C13   C86   A    
N18   Ni6   S    
C51   H19   S    
C41   C46   A    
C31   C33   A    
C91   H62   S    
C89   C91   S    
C2    C69   A    
N26   Ni8   S    
C89   H64   S    
C18   C20   A    
N2    N10   A    
C50   C88   S    
C40   H8    S    
N24   Ni6   S    
C56   C90   S    
C81   N22   A    
N31   Ni4   S    
N8    Ni7   S    
C28   C34   A    
C8    C65   A    
C97   H76   S    
N2    Ni6   S    
C26   C30   A    
C25   H56   S    
C25   C29   A    
N14   Ni1   S    
N20   Ni8   S    
C44   N31   A    
C45   H14   S    
C35   H34   S    
C99   H87   S    
C83   N25   A    
C24   N23   A    
C52   C54   D    
C78   H51   S    
N1    Ni1   S    
C82   N24   A    
C64   H37   S    
C53   C55   D    
C1    C85   A    
C31   C68   S    
C26   H67   S    
C4    C70   A    
C70   H42   S    
N19   N29   A    
C27   C31   A    
C34   C39   S    
N21   N31   A    
C57   C77   A    
C74   H47   S    
C43   H29   S    
C51   C87   S    
C91   C92   S    
C37   C45   S    
C41   N28   A    
N26   N27   A    
C62   N4    A    
N7    N16   A    
C20   C93   S    
N9    Ni3   S    
C6    C72   A    
N23   Ni2   S    
C4    C61   A    
C24   H23   S    
C50   C56   D    
N5    N14   A    
C59   C90   A    
C62   H35   S    
C38   H6    S    
C44   H30   S    
C19   C23   A    
C37   H5    S    
N25   Ni7   S    
C40   H4    S    
C6    C63   A    
C73   N15   A    
C35   C88   A    
C98   H73   S    
C97   H77   S    
C99   C100  S    
C36   C40   S    
N4    N13   A    
C96   C97   S    
C10   C45   S    
C8    C74   A    
C49   H13   S    
C51   C58   D    
C72   H44   S    
C32   C37   S    
C96   H80   S    
C39   H3    S    
C67   H40   S    
C3    H81   S    
C38   C47   S    
C30   C79   S    
C52   H20   S    
C60   N2    A    
C7    C16   S    
N23   N25   A    
C58   H26   S    
C22   C27   A    
C69   N10   A    
N22   Ni5   S    
C43   N30   A    
C23   C28   A    
C65   H38   S    
C12   C34   A    
N9    N32   A    
C95   H66   S    
C1    H1    S    
C14   C49   S    
C84   N26   A    
C72   N14   A    
N18   N28   A    
C80   H52   S    
C55   H24   S    
C93   H71   S    
C16   C22   A    
C22   C99   S    
C4    C54   S    
C50   H18   S    
N16   Ni2   S    
C5    C55   S    
C44   C79   A    
C84   C88   A    
C38   H2    S    
C67   N9    A    
C77   H50   S    
C39   H7    S    
C66   N8    A    
C84   H57   S    
C2    C58   S    
N30   Ni4   S    
C21   C96   S    
C42   H28   S    
C75   H48   S    
C47   H10   S    
C9    C75   A    
C63   N5    A    
C29   C46   S    
C8    C17   S    
C48   H16   S    
C73   H46   S    
C10   C15   A    
C80   N21   A    
C63   H36   S    
N15   Ni1   S    
C52   C86   S    
C100  H85   S    
N28   Ni3   S    
C5    C71   A    
C82   C86   A    
C94   H70   S    
C12   C17   A    
C30   C32   A    
C98   H75   S    
C92   H60   S    
C3    H83   S    
C76   H49   S    
N6    N15   A    
C17   C19   A    
C5    C62   A    
N10   Ni3   S    
C2    C60   A    
C67   C90   A    
C96   H79   S    
C54   H22   S    
C94   C95   S    
C100  H84   S    
C3    H82   S    
C78   N20   A    
C7    C64   A    
N1    N22   A    
C53   H21   S    
C79   C80   A    
C82   H54   S    
C10   C32   A    
C9    C18   S    
C15   C21   A    
C48   H11   S    
C56   H25   S    
C11   C33   A    
C61   N3    A    
C70   N11   A    
C71   N13   A    
C91   H61   S    
C33   C38   S    
C53   C85   S    
N11   Ni4   S    
N21   Ni7   S    
N13   Ni4   S    
C35   N27   A    
C89   H63   S    
C99   H86   S    
C81   C85   A    
C39   C48   S    
C65   N7    A    
N20   N30   A    
C1    N1    A    
