data_mof_unit_24587.cif
_audit_creation_date              2012-12-10T20:24:51-0500
_audit_creation_method            fapswitch 2.2
_symmetry_space_group_name_H-M    P1
_symmetry_Int_Tables_number       1
_space_group_crystal_system       triclinic
_cell_length_a                    10.741877
_cell_length_b                    19.099973
_cell_length_c                    18.395231
_cell_angle_alpha                 91.797039
_cell_angle_beta                  91.020845
_cell_angle_gamma                 90.452544
_cell_volume                      3771.55147922

loop_
_atom_site_label
_atom_site_type_symbol
_atom_type_description
_atom_site_fract_x
_atom_site_fract_y
_atom_site_fract_z
_atom_type_partial_charge
C1    C     C_R   0.499020 0.364756 0.498837 0.943433
C2    C     C_R   0.600839 0.188390 0.555865 -0.142148
C3    C     C_R   0.572579 0.852470 0.517989 0.004167
C4    C     C_R   0.581836 0.147723 0.492465 0.047753
C5    C     C_R   0.509213 0.821513 0.575623 0.388275
C6    C     C_R   0.532533 0.177131 0.428852 0.339658
C7    C     C_R   0.467332 0.751306 0.566305 0.322126
C8    C     C_R   0.486559 0.246228 0.433158 0.230370
C9    C     C_R   0.510427 0.711024 0.505607 -0.228631
C10   C     C_R   0.514767 0.288426 0.496336 -0.222919
C11   C     C_R   0.467743 0.964317 0.501663 0.725013
C12   C     C_R   0.497919 0.634937 0.501302 0.955756
C13   C     C_R   0.696276 0.036312 0.510477 0.735487
C14   C     C_R   0.470743 0.036134 0.495548 -0.262875
C15   C     C_R   0.693385 0.963780 0.516608 -0.271882
C16   C     C_R   0.259786 0.501556 0.499240 0.913117
C17   C     C_R   0.740325 0.499538 0.500891 0.861329
C18   C     C_R   0.584599 0.072145 0.499043 -0.097521
C19   C     C_R   0.578841 0.928123 0.512910 -0.100471
C20   C     C_R   0.580501 0.541750 0.729236 0.807790
C21   C     C_R   0.407876 0.467629 0.270049 0.822548
C22   C     C_R   0.579988 0.541988 0.805409 -0.367353
C23   C     C_R   0.872696 0.501122 0.502819 -0.079060
C24   C     C_R   0.407830 0.469259 0.193963 -0.372813
C25   C     C_R   0.494010 0.500296 0.841500 -0.150203
C26   C     C_R   0.502333 0.505159 0.158373 -0.157536
C27   C     C_R   0.409533 0.458095 0.799061 0.409964
C28   C     C_R   0.594802 0.540868 0.201479 0.415613
C29   C     C_R   0.415337 0.459017 0.722696 -0.152591
C30   C     C_R   0.591206 0.536853 0.277797 -0.138950
C31   C     C_R   0.398548 0.532805 0.962118 -0.037027
C32   C     C_R   0.597515 0.473206 0.037506 -0.032109
C33   C     C_R   0.400838 0.533947 0.038541 -0.149450
C34   C     C_R   0.127490 0.503309 0.498116 -0.085234
C35   C     C_R   0.595503 0.472338 0.961140 -0.146797
C36   C     C_R   0.500942 0.504715 0.077088 0.183307
C37   C     C_R   0.495588 0.501670 0.922670 0.178490
C38   C     C_R   0.246602 0.658027 0.330552 -0.088868
C39   C     C_R   0.790885 0.349384 0.688809 -0.110656
C40   C     C_R   0.190315 0.625372 0.388414 -0.142215
C41   C     C_R   0.833139 0.379730 0.625559 -0.169045
C42   C     C_R   0.116278 0.564908 0.376429 -0.030593
C43   C     C_R   0.886973 0.447037 0.628625 -0.014774
C44   C     C_R   0.096188 0.538453 0.304069 0.445509
C45   C     C_R   0.941727 0.474887 0.561792 0.043176
C46   C     C_R   0.897930 0.484004 0.696602 0.451021
C47   C     C_R   0.151737 0.572888 0.246421 -0.185864
C48   C     C_R   0.853233 0.452987 0.759294 -0.179368
C49   C     C_R   0.227395 0.631799 0.259670 -0.209745
C50   C     C_R   0.799624 0.386224 0.755326 -0.188931
C51   C     C_R   0.931118 0.531151 0.444046 -0.101911
C52   C     C_R   0.069006 0.475142 0.557722 -0.140689
C53   C     C_R   0.058928 0.531928 0.440131 0.036462
C54   C     C_R   0.580452 0.742337 0.451902 -0.247863
C55   C     C_R   0.570189 0.258421 0.557184 -0.259709
C56   C     C_R   0.608424 0.812892 0.457165 -0.162120
F1    F     F_    0.356774 0.929821 0.495789 -0.604514
F2    F     F_    0.806800 0.071264 0.514353 -0.603348
F3    F     F_    0.660436 0.584187 0.694995 -0.635991
F4    F     F_    0.314317 0.434299 0.303296 -0.595644
H1    H     H_    0.270942 0.657250 0.214804 0.181955
H2    H     H_    0.673933 0.448575 0.065756 0.191307
H3    H     H_    0.324900 0.558150 0.067730 0.152698
H4    H     H_    0.671199 0.447924 0.931911 0.150739
H5    H     H_    0.304808 0.703941 0.340729 0.173160
H6    H     H_    0.753153 0.296710 0.686710 0.156800
H7    H     H_    0.204956 0.647128 0.442852 0.195092
H8    H     H_    0.826634 0.350155 0.574386 0.163509
H9    H     H_    0.137529 0.553677 0.190875 0.190389
H10   H     H_    0.861112 0.480208 0.811705 0.190599
H11   H     H_    0.876934 0.554657 0.401008 0.173803
H12   H     H_    0.766372 0.362614 0.804144 0.178090
H13   H     H_    0.122681 0.452838 0.601764 0.175057
H14   H     H_    0.613702 0.712103 0.405436 0.199621
H15   H     H_    0.587360 0.289041 0.606725 0.189219
H16   H     H_    0.656277 0.837166 0.412959 0.190268
H17   H     H_    0.636217 0.165272 0.605099 0.191165
H18   H     H_    0.211184 0.634854 0.615185 0.432848
H19   H     H_    0.236112 0.305315 0.444260 0.336516
H20   H     H_    0.169513 0.322035 0.800320 0.400554
H21   H     H_    0.851790 0.666667 0.204858 0.396378
H22   H     H_    0.097491 0.398004 0.359975 0.412981
H23   H     H_    0.384211 0.063933 0.487609 0.216023
H24   H     H_    0.860194 0.619954 0.625746 0.391933
H25   H     H_    0.471368 0.848557 0.772643 0.401844
H26   H     H_    0.644029 0.041654 0.301436 0.395874
H27   H     H_    0.779288 0.935505 0.524695 0.219098
H28   H     H_    0.645463 0.575203 0.836164 0.227580
H29   H     H_    0.334187 0.442482 0.162873 0.231926
H30   H     H_    0.351526 0.427285 0.689315 0.206476
H31   H     H_    0.660514 0.564137 0.311558 0.210082
H32   H     H_    0.321292 0.556506 0.933702 0.188910
N1    N     N_R   0.500020 0.499980 0.689440 -0.173606
N2    N     N_R   0.499980 0.500020 0.310560 -0.181010
O1    O     O_R   0.500010 0.398180 0.560840 -0.647733
O2    O     O_2   0.267702 0.772614 0.653009 -0.161806
O3    O     O_3   0.263036 0.656656 0.578005 -0.599649
O4    O     O_2   0.446025 0.310874 0.308101 -0.172125
O5    O     O_2   0.301654 0.215631 0.334143 -0.173818
O6    O     O_3   0.278429 0.332239 0.406586 -0.525855
O7    O     O_2   0.354349 0.366122 0.901362 -0.258846
O8    O     O_2   0.191959 0.448481 0.865781 -0.276175
O9    O     O_3   0.240766 0.344641 0.776594 -0.555792
O10   O     O_2   0.808882 0.548282 0.129818 -0.262181
O11   O     O_2   0.652948 0.637775 0.104922 -0.266583
O12   O     O_R   0.499990 0.601820 0.439160 -0.656090
O13   O     O_3   0.776710 0.647166 0.227598 -0.563219
O14   O     O_2   0.871904 0.484679 0.270698 -0.256028
O15   O     O_2   0.049431 0.427266 0.214065 -0.215399
O16   O     O_3   0.008011 0.405270 0.349950 -0.494221
O17   O     O_2   0.919824 0.607317 0.770618 -0.219899
O18   O     O_2   0.108137 0.556584 0.719316 -0.263062
O19   O     O_3   0.951392 0.614507 0.631386 -0.520728
O20   O     O_2   0.592592 0.924063 0.669264 -0.288941
O21   O     O_2   0.367141 0.908054 0.656202 -0.201558
O22   O     O_3   0.493277 0.818031 0.730342 -0.450532
O23   O     O_R   0.499950 0.398180 0.439210 -0.520076
O24   O     O_2   0.416526 0.085395 0.336153 -0.244052
O25   O     O_2   0.548265 0.174605 0.281886 -0.173638
O26   O     O_3   0.656322 0.072155 0.345585 -0.528329
O27   O     O_R   0.500050 0.601820 0.560790 -0.521288
O28   O     O_R   0.316790 0.500010 0.560810 -0.618400
O29   O     O_R   0.683210 0.499990 0.439190 -0.617210
O30   O     O_R   0.316730 0.500000 0.439190 -0.569438
O31   O     O_R   0.683270 0.500000 0.560810 -0.601063
O32   O     O_2   0.415310 0.681508 0.686943 -0.213756
S1    S     S_3+6 0.351952 0.716206 0.624255 0.132067
S2    S     S_3+6 0.377170 0.275422 0.367231 0.148463
S3    S     S_3+6 0.297012 0.403788 0.838702 0.044168
S4    S     S_3+6 0.710464 0.594070 0.162964 0.050006
S5    S     S_3+6 0.004300 0.462725 0.282674 0.100597
S6    S     S_3+6 0.971213 0.567298 0.706345 0.083632
S7    S     S_3+6 0.489697 0.870701 0.658808 0.115252
S8    S     S_3+6 0.535078 0.127358 0.345136 0.110447
Zn1   Zn    Zn3+2 0.500040 0.500000 0.581210 1.043988
Zn2   Zn    Zn3+2 0.499960 0.500000 0.418790 1.058049

loop_
_geom_bond_atom_site_label_1
_geom_bond_atom_site_label_2
_ccdc_geom_bond_type
C12   O12   A    
C20   N1    A    
H21   O13   S    
O32   S1    D    
C23   C45   A    
O19   S6    S    
C27   C29   A    
C14   C18   A    
C2    C4    A    
O8    S3    D    
O3    S1    S    
C24   H29   S    
C39   C41   A    
C38   C49   A    
C44   S5    S    
C5    S7    S    
C11   C19   A    
H24   O19   S    
C51   H11   S    
C13   C18   A    
C56   H16   S    
C32   C36   A    
C35   C37   A    
C24   C26   A    
C2    C55   A    
C42   C53   S    
C46   S6    S    
C8    C10   A    
C11   C14   A    
C21   N2    A    
C33   C36   A    
C16   O28   A    
C47   H9    S    
O14   S5    D    
C50   H12   S    
C25   C37   S    
C54   H14   S    
C17   O29   A    
C12   O27   A    
C22   C25   A    
O15   S5    D    
N2    Zn2   S    
C31   C33   A    
C3    C19   S    
C35   H4    S    
C22   H28   S    
O26   S8    S    
O24   S8    D    
C44   C47   A    
C1    O1    A    
C4    C18   S    
O31   Zn1   S    
C48   C50   A    
C38   C40   A    
O10   S4    D    
C41   C43   A    
C42   C44   A    
C14   H23   S    
O13   S4    S    
C47   C49   A    
C29   H30   S    
C43   C46   A    
C8    S2    S    
C41   H8    S    
C46   C48   A    
C54   C56   A    
O25   S8    D    
C49   H1    S    
O30   Zn2   S    
H20   O9    S    
C32   C35   A    
H19   O6    S    
C21   F4    S    
C4    C6    A    
C52   H13   S    
C5    C7    A    
C30   H31   S    
C6    C8    A    
O22   S7    S    
O21   S7    D    
C45   C52   A    
C3    C5    A    
C40   H7    S    
O18   S6    D    
C31   C37   A    
O2    S1    D    
C51   C53   A    
C15   C19   A    
O9    S3    S    
C3    C56   A    
C23   C51   A    
C38   H5    S    
C33   H3    S    
C16   C34   S    
H18   O3    S    
O1    Zn1   S    
O16   S5    S    
C17   C23   S    
O27   Zn1   S    
C20   F3    S    
C10   C55   A    
C43   C45   S    
O11   S4    D    
C26   C36   S    
C20   C22   A    
C13   C15   A    
C27   S3    S    
C39   H6    S    
H22   O16   S    
C15   H27   S    
C7    C9    A    
O6    S2    S    
C34   C52   A    
H25   O22   S    
C1    C10   S    
C48   H10   S    
C40   C42   A    
N1    Zn1   S    
O5    S2    D    
C13   F2    S    
C25   C27   A    
C26   C28   A    
O29   Zn2   S    
C28   C30   A    
C16   O30   A    
C55   H15   S    
C30   N2    A    
C2    H17   S    
C11   F1    S    
C29   N1    A    
C17   O31   A    
O4    S2    D    
O20   S7    D    
C28   S4    S    
C9    C12   S    
O28   Zn1   S    
C32   H2    S    
O17   S6    D    
C39   C50   A    
C34   C53   A    
C6    S8    S    
C31   H32   S    
C21   C24   A    
H26   O26   S    
C9    C54   A    
C7    S1    S    
C1    O23   A    
O23   Zn2   S    
O12   Zn2   S    
O7    S3    D    
