data_mof_unit_38408.cif
_audit_creation_date              2012-12-10T20:49:45-0500
_audit_creation_method            fapswitch 2.2
_symmetry_space_group_name_H-M    P1
_symmetry_Int_Tables_number       1
_space_group_crystal_system       triclinic
_cell_length_a                    8.10439
_cell_length_b                    8.932349
_cell_length_c                    16.906145
_cell_angle_alpha                 90.286479
_cell_angle_beta                  84.570008
_cell_angle_gamma                 90.03219
_cell_volume                      1218.34958813

loop_
_atom_site_label
_atom_site_type_symbol
_atom_type_description
_atom_site_fract_x
_atom_site_fract_y
_atom_site_fract_z
_atom_type_partial_charge
C1    C     C_R   0.500024 0.782026 0.500055 0.970937
C2    C     C_R   0.499887 0.217985 0.500630 0.975863
C3    C     C_1   0.500009 0.934818 0.500358 -0.170386
C4    C     C_1   0.499923 0.065192 0.500576 -0.158111
C5    C     C_R   0.476366 0.503630 0.653250 0.916256
C6    C     C_R   0.523571 0.490309 0.346922 0.887623
C7    C     C_R   0.459931 0.492549 0.739031 -0.100162
C8    C     C_R   0.542512 0.448661 0.263165 -0.119716
C9    C     C_R   0.576195 0.560160 0.785192 -0.054244
C10   C     C_R   0.429765 0.350142 0.230250 -0.040433
C11   C     C_R   0.575643 0.518152 0.864473 -0.195797
C12   C     C_R   0.456529 0.311939 0.150292 -0.197814
C13   C     C_R   0.459749 0.413870 0.897586 0.168199
C14   C     C_R   0.590608 0.372156 0.102669 0.169534
C15   C     C_R   0.336730 0.358101 0.853303 -0.147054
C16   C     C_R   0.707149 0.461400 0.136327 -0.135980
C17   C     C_R   0.337419 0.396408 0.774066 -0.185184
C18   C     C_R   0.683299 0.499427 0.216249 -0.163975
C19   C     C_2   0.457358 0.372265 0.980637 -0.213560
C20   C     C_2   0.597418 0.362108 0.016370 -0.216802
H1    H     H_    0.243662 0.281220 0.879392 0.141914
H2    H     H_    0.811665 0.508161 0.099915 0.138079
H3    H     H_    0.371140 0.236060 0.124905 0.152250
H4    H     H_    0.662477 0.570223 0.901094 0.165392
H5    H     H_    0.772639 0.572036 0.241018 0.167000
H6    H     H_    0.247071 0.344978 0.739141 0.165215
H7    H     H_    0.717315 0.372908 0.982179 0.157796
H8    H     H_    0.336423 0.363586 0.013916 0.159815
N1    N     N_1   0.926360 0.500000 0.499990 -0.025068
N2    N     N_1   0.073640 0.500000 0.500010 -0.025250
O1    O     O_R   0.363150 0.714660 0.500000 -0.617102
O2    O     O_R   0.636850 0.285340 0.500000 -0.624654
O3    O     O_R   0.636850 0.714660 0.500000 -0.605712
O4    O     O_R   0.363150 0.285340 0.500000 -0.599910
O5    O     O_R   0.346950 0.500000 0.615800 -0.623694
O6    O     O_R   0.653050 0.500000 0.384200 -0.614301
O7    O     O_R   0.620700 0.500000 0.615800 -0.605829
O8    O     O_R   0.379300 0.500000 0.384200 -0.604517
Zn1   Zn    Zn3+2 0.317220 0.500000 0.500010 1.019472
Zn2   Zn    Zn3+2 0.682780 0.500000 0.499990 1.020987
C21   C     C_2   0.694681 0.677399 0.753364 0.921323
O9    O     O_2   0.827030 0.693746 0.781648 -0.628704
O10   O     O_R   0.653186 0.772344 0.692748 -0.808767
H9    H     H_    0.743667 0.847590 0.676526 0.346237
C22   C     C_2   0.286637 0.280171 0.276885 0.922144
O11   O     O_2   0.149207 0.285537 0.252729 -0.630504
O12   O     O_R   0.310103 0.201584 0.346042 -0.800181
H10   H     H_    0.203473 0.156454 0.371717 0.347373

loop_
_geom_bond_atom_site_label_1
_geom_bond_atom_site_label_2
_ccdc_geom_bond_type
C2    C4    S    
O10   H9    S    
C6    O8    A    
C15   C17   A    
N1    N2    T    
C20   H7    S    
C5    O7    A    
C11   C13   A    
C21   O9    D    
C21   O10   S    
O5    Zn1   S    
C19   C20   D    
O1    Zn1   S    
C1    O1    A    
C16   H2    S    
C2    O4    A    
C10   C22   S    
O2    Zn2   S    
C1    O3    A    
C22   O11   D    
C19   H8    S    
C9    C11   A    
C12   H3    S    
C18   H5    S    
C10   C12   A    
C17   H6    S    
C5    O5    A    
N1    Zn2   S    
C16   C18   A    
C6    O6    A    
N2    Zn1   S    
O7    Zn2   S    
C5    C7    S    
C13   C15   A    
O8    Zn1   S    
C14   C16   A    
C15   H1    S    
O3    Zn2   S    
C13   C19   S    
C3    C4    T    
O12   H10   S    
C14   C20   S    
C11   H4    S    
O6    Zn2   S    
C2    O2    A    
C22   O12   S    
C7    C9    A    
C6    C8    S    
C1    C3    S    
C9    C21   S    
C8    C10   A    
C8    C18   A    
O4    Zn1   S    
C12   C14   A    
C7    C17   A    
