data_mof_unit_35117.cif
_audit_creation_date              2012-12-10T19:01:22-0500
_audit_creation_method            fapswitch 2.2
_symmetry_space_group_name_H-M    P1
_symmetry_Int_Tables_number       1
_space_group_crystal_system       triclinic
_cell_length_a                    9.555457
_cell_length_b                    10.834738
_cell_length_c                    15.492592
_cell_angle_alpha                 89.886018
_cell_angle_beta                  74.44825
_cell_angle_gamma                 90.438044
_cell_volume                      1545.17969721

loop_
_atom_site_label
_atom_site_type_symbol
_atom_type_description
_atom_site_fract_x
_atom_site_fract_y
_atom_site_fract_z
_atom_type_partial_charge
C1    C     C_R   0.998557 0.262428 0.502087 0.804341
C2    C     C_R   0.671588 0.478020 0.906049 0.094350
C3    C     C_R   0.770148 0.435883 0.953434 0.165573
C4    C     C_R   0.521261 0.489719 0.951301 0.069452
C5    C     C_R   0.473967 0.468878 0.045552 0.066308
C6    C     C_R   0.576519 0.427468 0.090166 -0.224377
C7    C     C_R   0.721158 0.410508 0.044630 -0.238093
C8    C     C_R   0.416218 0.518508 0.905088 -0.216806
C9    C     C_R   0.270975 0.532434 0.950050 -0.238774
C10   C     C_R   0.224370 0.519014 0.042598 0.167599
C11   C     C_R   0.325149 0.488300 0.091642 0.092919
C12   C     C_R   0.918319 0.498206 0.672024 0.800203
C13   C     C_R   0.077332 0.536683 0.086734 -0.213459
C14   C     C_R   0.028806 0.526287 0.179483 -0.194561
C15   C     C_R   0.273683 0.481583 0.185499 -0.258908
C16   C     C_R   0.115621 0.065159 0.518347 0.110051
C17   C     C_R   0.993115 0.129488 0.511700 -0.177637
C18   C     C_R   0.863627 0.063438 0.517798 -0.180391
C19   C     C_R   0.864517 0.934708 0.517287 -0.203612
C20   C     C_R   0.994929 0.871048 0.510562 -0.097046
C21   C     C_R   0.116814 0.938022 0.517545 0.045482
C22   C     C_3   0.270438 0.934787 0.461219 -0.533427
C23   C     C_R   0.999583 0.737783 0.501529 0.812185
C24   C     C_3   0.268915 0.074687 0.462438 0.471519
C25   C     C_R   0.607188 0.527396 0.423717 0.262439
C26   C     C_R   0.542135 0.460298 0.572579 -0.058410
C27   C     C_R   0.393501 0.460734 0.572685 -0.016859
C28   C     C_R   0.460020 0.526243 0.423456 0.268759
C29   C     C_3   0.477682 0.642635 0.370311 -0.513579
C30   C     C_3   0.635741 0.645111 0.371798 -0.504131
C31   C     C_R   0.081801 0.499858 0.327877 0.791046
C32   C     C_R   0.872806 0.485630 0.769856 -0.045378
C33   C     C_R   0.127355 0.501288 0.229487 -0.047392
C34   C     C_R   0.917125 0.418298 0.908813 -0.215494
C35   C     C_R   0.968155 0.442531 0.817418 -0.191864
C36   C     C_R   0.727388 0.506700 0.814693 -0.248422
Cu1   Cu    Cu3+1 0.140670 0.499980 0.500000 0.964485
Cu2   Cu    Cu3+1 0.859330 0.500020 0.500000 0.950144
H1    H     H_    0.795436 0.377376 0.081351 0.149843
H2    H     H_    0.000036 0.560340 0.049570 0.144507
H3    H     H_    0.763844 0.110494 0.518228 0.194411
H4    H     H_    0.765059 0.885878 0.517594 0.169630
H5    H     H_    0.344461 0.894717 0.498101 0.226853
H6    H     H_    0.279934 0.896241 0.393441 0.151314
H7    H     H_    0.281094 0.118656 0.395877 0.065563
H8    H     H_    0.570534 0.429079 0.631904 0.142361
H9    H     H_    0.312139 0.430490 0.632006 0.137181
H10   H     H_    0.463165 0.627999 0.302252 0.197286
H11   H     H_    0.345968 0.464217 0.226525 0.145928
H12   H     H_    0.413623 0.718722 0.408439 0.217009
H13   H     H_    0.711547 0.633230 0.304358 0.190666
H14   H     H_    0.662864 0.723004 0.411237 0.215024
H15   H     H_    0.915176 0.540788 0.211981 0.145857
H16   H     H_    0.194652 0.555089 0.911890 0.149784
H17   H     H_    0.992079 0.383414 0.944353 0.143566
H18   H     H_    0.080941 0.424747 0.783717 0.148690
H19   H     H_    0.660233 0.546093 0.776262 0.144443
H20   H     H_    0.548449 0.403493 0.160179 0.142409
H21   H     H_    0.441349 0.528081 0.833396 0.137348
N1    N     N_R   0.648210 0.500930 0.499430 -0.190856
N2    N     N_R   0.352300 0.500890 0.499430 -0.188270
O1    O     O_R   0.118810 0.319640 0.500000 -0.554512
O2    O     O_R   0.881230 0.319680 0.499990 -0.574800
O3    O     O_R   0.055580 0.499970 0.629840 -0.591484
O4    O     O_R   0.818000 0.500010 0.629830 -0.593852
O5    O     O_R   0.118770 0.680320 0.500010 -0.574581
O6    O     O_R   0.881190 0.680360 0.500000 -0.588479
O7    O     O_R   0.182000 0.499990 0.370170 -0.588736
O8    O     O_R   0.944420 0.500030 0.370160 -0.582311
F1    F     F_    0.359055 0.123827 0.510439 -0.650030

loop_
_geom_bond_atom_site_label_1
_geom_bond_atom_site_label_2
_ccdc_geom_bond_type
C8    C9    A    
C2    C4    A    
C30   H13   S    
C19   H4    S    
C16   C21   A    
C12   C32   S    
C25   N1    A    
C9    C10   A    
C6    H20   S    
Cu1   N2    S    
C19   C20   A    
C20   C23   S    
C4    C8    A    
Cu1   O5    S    
Cu1   O3    S    
C14   C33   A    
C31   C33   S    
Cu1   O1    S    
Cu2   O8    S    
C24   F1    S    
C34   H17   S    
C16   C24   S    
C13   C14   A    
C28   N2    A    
C25   C28   A    
C5    C6    A    
C26   C27   A    
C29   C30   S    
C26   N1    A    
Cu2   N1    S    
C24   H7    S    
C1    O2    A    
C23   O5    A    
C30   H14   S    
C28   C29   S    
Cu1   Cu2   S    
C5    C11   A    
C6    C7    A    
C3    C7    A    
C29   H12   S    
C15   H11   S    
C8    H21   S    
C31   O7    A    
C12   O3    A    
Cu2   O2    S    
C16   C17   A    
C10   C11   A    
C26   H8    S    
C29   H10   S    
C27   H9    S    
Cu2   O6    S    
Cu1   O7    S    
C32   C36   A    
C31   O8    A    
C14   H15   S    
C2    C36   A    
C20   C21   A    
C36   H19   S    
C1    O1    A    
C17   C18   A    
C34   C35   A    
C12   O4    A    
C18   H3    S    
C23   O6    A    
C25   C30   S    
C7    H1    S    
C18   C19   A    
C13   H2    S    
C2    C3    A    
C9    H16   S    
C27   N2    A    
C3    C34   A    
C35   H18   S    
C21   C22   S    
Cu2   O4    S    
C11   C15   A    
C15   C33   A    
C1    C17   S    
C22   H6    S    
C32   C35   A    
C22   H5    S    
C22   C24   S    
C4    C5    A    
C10   C13   A    
