data_mof_unit_17245.cif
_audit_creation_date              2012-12-10T19:45:47-0500
_audit_creation_method            fapswitch 2.2
_symmetry_space_group_name_H-M    P1
_symmetry_Int_Tables_number       1
_space_group_crystal_system       triclinic
_cell_length_a                    10.860817
_cell_length_b                    14.674257
_cell_length_c                    14.673771
_cell_angle_alpha                 65.484436
_cell_angle_beta                  103.408106
_cell_angle_gamma                 102.742944
_cell_volume                      2049.26236334

loop_
_atom_site_label
_atom_site_type_symbol
_atom_type_description
_atom_site_fract_x
_atom_site_fract_y
_atom_site_fract_z
_atom_type_partial_charge
C1    C     C_R   0.478532 0.119453 0.312196 0.809952
C2    C     C_R   0.623343 0.782520 0.971198 -0.141422
C3    C     C_R   0.399929 0.150263 0.129131 -0.122314
C4    C     C_R   0.600074 0.849737 0.870868 -0.122315
C5    C     C_R   0.505409 0.290066 0.178429 -0.187309
C6    C     C_R   0.494590 0.709935 0.821571 -0.187309
C7    C     C_R   0.480920 0.360053 0.078194 0.096958
C8    C     C_R   0.519081 0.639947 0.921805 0.096959
C9    C     C_R   0.414012 0.321861 0.003234 0.131038
C10   C     C_R   0.585991 0.678139 0.996764 0.131039
C11   C     C_R   0.517478 0.466532 0.051035 0.073413
C12   C     C_R   0.521468 0.880547 0.687804 0.809953
C13   C     C_R   0.482524 0.533469 0.948964 0.073412
C14   C     C_R   0.412958 0.491608 0.877491 -0.138540
C15   C     C_R   0.587046 0.508393 0.122507 -0.138539
C16   C     C_R   0.262885 0.999271 0.502656 0.797151
C17   C     C_R   0.737115 0.000729 0.497344 0.797151
C18   C     C_R   0.381742 0.388064 0.903960 -0.203741
C19   C     C_R   0.618262 0.611936 0.096038 -0.203741
C20   C     C_R   0.722974 0.290014 0.660480 -0.266439
C21   C     C_R   0.277026 0.709986 0.339519 -0.266436
C22   C     C_R   0.688589 0.207681 0.631726 0.099602
C23   C     C_R   0.870355 0.000514 0.495306 -0.080502
C24   C     C_R   0.311411 0.792319 0.368273 0.099604
C25   C     C_R   0.513979 0.282457 0.513619 0.097876
C26   C     C_R   0.486022 0.717543 0.486381 0.097875
C27   C     C_R   0.551083 0.372996 0.532135 -0.004250
C28   C     C_R   0.448918 0.627004 0.467865 -0.004251
C29   C     C_R   0.652602 0.371561 0.612703 0.068341
C30   C     C_R   0.347399 0.628439 0.387296 0.068339
C31   C     C_R   0.486702 0.461032 0.479639 -0.068193
C32   C     C_R   0.513299 0.538968 0.520361 -0.068193
C33   C     C_R   0.602102 0.524365 0.612137 0.331480
C34   C     C_R   0.129645 0.999486 0.504694 -0.080502
C35   C     C_R   0.397900 0.475636 0.387862 0.331480
C36   C     C_R   0.676676 0.446816 0.651122 -0.208767
C37   C     C_R   0.323326 0.553184 0.348877 -0.208767
C38   C     C_R   0.348376 0.117294 0.749617 0.426851
C39   C     C_R   0.651621 0.882701 0.250387 0.426849
C40   C     C_R   0.265287 0.062636 0.695621 -0.147757
C41   C     C_R   0.734710 0.937361 0.304382 -0.147755
C42   C     C_R   0.183638 0.112539 0.606920 0.061822
C43   C     C_R   0.816362 0.887459 0.393081 0.061822
C44   C     C_R   0.184429 0.217249 0.574527 -0.154961
C45   C     C_R   0.907449 0.944872 0.449581 0.030271
C46   C     C_R   0.815574 0.782750 0.425475 -0.154961
C47   C     C_R   0.266607 0.271310 0.629225 -0.226813
C48   C     C_R   0.733395 0.728688 0.370778 -0.226813
C49   C     C_R   0.348921 0.221540 0.716386 -0.176436
C50   C     C_R   0.651079 0.778456 0.283619 -0.176437
C51   C     C_R   0.963180 0.055128 0.544351 -0.229471
C52   C     C_R   0.036820 0.944872 0.455649 -0.229472
C53   C     C_R   0.092551 0.055128 0.550420 0.030270
C54   C     C_R   0.462518 0.186666 0.204604 -0.079392
C55   C     C_R   0.537483 0.813334 0.795396 -0.079389
C56   C     C_R   0.376661 0.217480 0.028801 -0.141423
Cl1   Cl    Cl    0.611782 0.585668 0.695243 -0.708464
Cl2   Cl    Cl    0.388223 0.414333 0.304756 -0.708466
Cl3   Cl    Cl    0.451320 0.055182 0.859395 -0.600115
Cl4   Cl    Cl    0.548672 0.944812 0.140611 -0.600115
Cu1   Cu    Cu3+1 0.466270 0.918260 0.475690 0.963959
Cu2   Cu    Cu3+1 0.533730 0.081740 0.524310 0.963959
H1    H     H_    0.413144 0.264035 0.757873 0.171348
H2    H     H_    0.425324 0.269136 0.467377 0.193696
H3    H     H_    0.257706 0.855572 0.331497 0.125505
H4    H     H_    0.742294 0.144427 0.668503 0.125504
H5    H     H_    0.802241 0.288944 0.721242 0.147190
H6    H     H_    0.197760 0.711056 0.278758 0.147190
H7    H     H_    0.264504 0.981739 0.722323 0.141191
H8    H     H_    0.735491 0.018257 0.277679 0.141191
H9    H     H_    0.121556 0.256940 0.506817 0.155992
H10   H     H_    0.878449 0.743060 0.493184 0.155992
H11   H     H_    0.267068 0.351977 0.603673 0.165133
H12   H     H_    0.586855 0.735960 0.242133 0.171351
H13   H     H_    0.732937 0.648020 0.396330 0.165134
H14   H     H_    0.935108 0.096380 0.581030 0.158526
H15   H     H_    0.064892 0.903620 0.418970 0.158526
H16   H     H_    0.329204 0.359689 0.846381 0.141663
H17   H     H_    0.670802 0.640311 0.153616 0.141664
H18   H     H_    0.445196 0.686134 0.761086 0.176968
H19   H     H_    0.554799 0.313868 0.238916 0.176974
H20   H     H_    0.634113 0.929546 0.852036 0.194213
H21   H     H_    0.365890 0.070454 0.147962 0.194217
H22   H     H_    0.326202 0.188120 0.971503 0.163119
H23   H     H_    0.673803 0.811880 0.028495 0.163118
H24   H     H_    0.379604 0.536250 0.799726 0.163725
H25   H     H_    0.620402 0.463751 0.200271 0.163722
H26   H     H_    0.747359 0.440230 0.718488 0.186373
H27   H     H_    0.252644 0.559770 0.281511 0.186373
H28   H     H_    0.574677 0.730865 0.532622 0.193697
N1    N     N_R   0.584450 0.204570 0.560790 -0.200129
N2    N     N_R   0.415550 0.795430 0.439210 -0.200130
O1    O     O_R   0.455540 0.022090 0.338120 -0.580229
O2    O     O_R   0.544460 0.977910 0.661880 -0.580231
O3    O     O_R   0.512510 0.160150 0.379180 -0.571771
O4    O     O_R   0.487490 0.839850 0.620820 -0.571770
O5    O     O_R   0.291160 0.930970 0.479480 -0.598392
O6    O     O_R   0.708840 0.069030 0.520520 -0.598392
O7    O     O_R   0.348130 0.069020 0.520540 -0.577954
O8    O     O_R   0.651870 0.930980 0.479460 -0.577955

loop_
_geom_bond_atom_site_label_1
_geom_bond_atom_site_label_2
_ccdc_geom_bond_type
C8    C13   A    
C49   H1    S    
C27   C29   A    
C14   C18   A    
C20   H5    S    
C2    C4    A    
C6    C55   A    
Cu1   O4    S    
C39   C41   A    
C38   C49   A    
C36   H26   S    
C7    C11   A    
C29   C36   A    
C17   C23   S    
C2    H23   S    
C35   Cl2   S    
C23   C45   A    
C35   C37   A    
C50   H12   S    
C42   C53   S    
C3    C54   A    
Cu1   O1    S    
C16   O5    A    
C26   N2    A    
C33   C36   A    
C44   H9    S    
C22   H4    S    
C16   C34   S    
Cu2   O6    S    
C11   C15   A    
C23   C51   A    
C22   N1    A    
C17   O6    A    
C46   H10   S    
C44   C47   A    
C1    O3    A    
C40   C42   A    
C13   C14   A    
C41   C43   A    
C48   H13   S    
C12   O2    A    
C42   C44   A    
C24   N2    A    
C43   C46   A    
C56   H22   S    
C20   C29   A    
C46   C48   A    
C25   N1    A    
C40   H7    S    
C27   C31   A    
C5    C54   A    
C28   C32   A    
C51   H14   S    
C14   H24   S    
C47   C49   A    
C5    C7    A    
C6    C8    A    
C45   C52   A    
C38   Cl3   S    
C30   C37   A    
C51   C53   A    
C25   H2    S    
C15   C19   A    
C1    C54   S    
C5    H19   S    
C3    C56   A    
C6    H18   S    
C31   C32   A    
C10   C19   A    
C18   H16   S    
Cu2   N1    S    
C9    C56   A    
C19   H17   S    
C43   C45   S    
C47   H11   S    
C24   H3    S    
C8    C10   A    
C20   C22   A    
Cu2   O2    S    
C4    C55   A    
C3    H21   S    
C31   C35   A    
Cu1   O8    S    
C26   H28   S    
C52   H15   S    
C2    C10   A    
C15   H25   S    
C7    C9    A    
C33   Cl1   S    
C34   C52   A    
Cu1   O5    S    
Cu1   N2    S    
C16   O7    A    
C25   C27   A    
C21   C30   A    
C26   C28   A    
C37   H27   S    
C32   C33   A    
C28   C30   A    
C21   H6    S    
C38   C40   A    
C11   C13   A    
C39   Cl4   S    
C48   C50   A    
Cu1   Cu2   S    
C17   O8    A    
C12   C55   S    
Cu2   O7    S    
C9    C18   A    
C39   C50   A    
C4    H20   S    
C34   C53   A    
C1    O1    A    
C21   C24   A    
C12   O4    A    
Cu2   O3    S    
C41   H8    S    
