data_mof_unit_44025.cif
_audit_creation_date              2012-12-11T16:50:49-0500
_audit_creation_method            fapswitch 2.2
_symmetry_space_group_name_H-M    P1
_symmetry_Int_Tables_number       1
_space_group_crystal_system       triclinic
_cell_length_a                    6.923717
_cell_length_b                    28.985022
_cell_length_c                    31.935334
_cell_angle_alpha                 100.894293
_cell_angle_beta                  89.62527
_cell_angle_gamma                 90.513293
_cell_volume                      6293.07984484

loop_
_atom_site_label
_atom_site_type_symbol
_atom_type_description
_atom_site_fract_x
_atom_site_fract_y
_atom_site_fract_z
_atom_type_partial_charge
O1    O     O_R   0.494350 0.453170 0.452520 -0.547895
O2    O     O_R   0.820980 0.455850 0.538220 -0.523644
O3    O     O_R   0.994300 0.546830 0.547480 -0.520178
C1    C     C_R   0.650630 0.444256 0.550433 0.826697
O4    O     O_R   0.823860 0.447590 0.452270 -0.518701
O5    O     O_R   0.997200 0.538510 0.460920 -0.513724
C2    C     C_R   0.654841 0.433441 0.437496 0.795355
O6    O     O_R   0.491440 0.461490 0.539080 -0.517764
O7    O     O_3   0.661790 0.529840 0.502940 -0.358524
V1    V     V_3+5 0.935470 0.494460 0.499450 1.717912
O8    O     O_R   0.327090 0.544150 0.461780 -0.531664
C3    C     C_R   0.158688 0.554831 0.448669 0.771879
O9    O     O_R   0.324210 0.552410 0.547730 -0.549945
C4    C     C_R   0.155409 0.564848 0.563664 0.834800
V2    V     V_3+5 0.435840 0.505540 0.500550 1.670866
O10   O     O_3   0.159650 0.470160 0.497060 -0.352671
C5    C     C_R   0.099514 0.908001 0.859420 -0.226491
H1    H     H_    0.132527 0.944117 0.857361 0.131918
C6    C     C_R   0.109354 0.873341 0.822391 -0.105644
H2    H     H_    0.149256 0.883452 0.792522 0.143222
C7    C     C_R   0.066387 0.826186 0.823717 0.054150
C8    C     C_R   0.017465 0.814407 0.863254 -0.076462
H3    H     H_    0.991691 0.777925 0.864950 0.208771
C9    C     C_R   0.005145 0.849043 0.900638 0.431406
C10   C     C_R   0.045600 0.896524 0.898687 -0.162986
C11   C     C_R   0.929607 0.756069 0.771619 0.386842
C12   C     C_R   0.951588 0.720686 0.735292 -0.095021
H4    H     H_    0.835767 0.695444 0.726251 0.178066
C13   C     C_R   0.121424 0.717386 0.710659 0.122810
C14   C     C_R   0.268259 0.750979 0.722345 0.018060
H5    H     H_    0.401003 0.749028 0.703985 0.162820
C15   C     C_R   0.247429 0.786447 0.758588 -0.140643
H6    H     H_    0.364780 0.811302 0.767241 0.173749
C16   C     C_R   0.079913 0.789139 0.784193 -0.003244
C17   C     C_R   0.157350 0.686601 0.631844 0.398371
C18   C     C_R   0.166563 0.649449 0.596887 -0.222982
H7    H     H_    0.180886 0.657081 0.565061 0.197947
C19   C     C_R   0.147221 0.602822 0.602178 -0.284913
C20   C     C_R   0.125034 0.593020 0.643841 0.276561
C21   C     C_R   0.145974 0.630318 0.679843 0.314436
C22   C     C_R   0.145911 0.677633 0.673695 -0.191336
C23   C     C_R   0.082211 0.662830 0.288706 0.780093
N1    N     N_R   0.111679 0.682998 0.330687 -0.527563
C24   C     C_R   0.112697 0.730890 0.343369 0.696036
C25   C     C_R   0.088126 0.760278 0.313378 -0.085464
C26   C     C_R   0.076422 0.740271 0.269733 -0.051409
C27   C     C_R   0.077158 0.690769 0.256721 -0.148064
C28   C     C_R   0.078053 0.809223 0.326199 -0.135835
C29   C     C_R   0.055678 0.838595 0.296513 0.416423
C30   C     C_R   0.048927 0.819259 0.252220 -0.137893
C31   C     C_R   0.063872 0.769910 0.239122 -0.052280
C32   C     C_R   0.065938 0.750031 0.195364 -0.077822
C33   C     C_R   0.071157 0.701058 0.182560 -0.139127
C34   C     C_R   0.073645 0.671458 0.212394 0.410647
C35   C     C_R   0.028758 0.846973 0.220285 0.773672
N2    N     N_R   0.050031 0.827303 0.177958 -0.550442
C36   C     C_R   0.065456 0.779651 0.165161 0.663110
O11   O     O_2   0.055236 0.615973 0.278363 -0.409219
O12   O     O_2   0.138901 0.750122 0.384842 -0.486429
H8    H     H_    0.086658 0.825079 0.359702 0.211272
O13   O     O_2   0.984858 0.892881 0.231021 -0.417646
O14   O     O_2   0.080827 0.760925 0.123262 -0.491743
H9    H     H_    0.072446 0.685329 0.148964 0.213212
C37   C     C_R   0.895032 0.854307 0.117798 -0.026543
H10   H     H_    0.777019 0.830030 0.119717 0.196320
C38   C     C_R   0.888323 0.883158 0.087337 -0.125665
H11   H     H_    0.765108 0.880446 0.066267 0.184522
C39   C     C_R   0.039363 0.914870 0.083925 -0.148368
C40   C     C_R   0.197676 0.916966 0.111594 -0.223103
H12   H     H_    0.314848 0.941353 0.109243 0.184387
C41   C     C_R   0.205057 0.888527 0.142724 0.482556
C42   C     C_R   0.050515 0.857028 0.146204 0.220227
C43   C     C_R   0.003218 0.655067 0.395242 -0.071509
H13   H     H_    0.889969 0.681095 0.399006 0.217296
C44   C     C_R   0.014330 0.624519 0.424092 0.340799
C45   C     C_R   0.150359 0.587721 0.417843 -0.292490
C46   C     C_R   0.278178 0.583182 0.382158 0.259450
C47   C     C_R   0.286308 0.619378 0.357623 0.399938
C48   C     C_R   0.136552 0.652919 0.361827 0.123860
C49   C     C_R   0.511622 0.221317 0.835229 0.584400
N3    N     N_R   0.583156 0.176525 0.825119 -0.560122
C50   C     C_R   0.663078 0.160098 0.785701 0.580141
C51   C     C_R   0.672522 0.188867 0.754727 -0.033634
C52   C     C_R   0.598299 0.234737 0.764615 -0.006602
C53   C     C_R   0.517470 0.251246 0.805202 -0.035180
C54   C     C_R   0.753074 0.172787 0.714096 -0.126300
C55   C     C_R   0.758661 0.201720 0.683663 -0.087789
C56   C     C_R   0.683971 0.247481 0.693095 -0.057288
C57   C     C_R   0.604414 0.264122 0.733809 -0.016772
C58   C     C_R   0.530724 0.310062 0.743775 -0.045452
C59   C     C_R   0.451367 0.326254 0.784478 -0.108760
C60   C     C_R   0.444579 0.297193 0.814787 -0.122087
C61   C     C_R   0.685942 0.277071 0.662785 0.733139
N4    N     N_R   0.611220 0.321490 0.672762 -0.542635
C62   C     C_R   0.537227 0.338538 0.712579 0.673097
O15   O     O_2   0.436325 0.237054 0.874337 -0.509885
O16   O     O_2   0.731123 0.115858 0.776244 -0.515457
H14   H     H_    0.811563 0.137711 0.705603 0.181972
H15   H     H_    0.821217 0.188040 0.652680 0.192733
O17   O     O_2   0.761489 0.261564 0.623669 -0.446303
O18   O     O_2   0.468000 0.382679 0.721761 -0.474526
H16   H     H_    0.393462 0.361386 0.793013 0.190246
H17   H     H_    0.381727 0.310863 0.845740 0.184623
C63   C     C_R   0.769270 0.382520 0.641250 -0.043937
H18   H     H_    0.882455 0.384139 0.664750 0.191785
C64   C     C_R   0.781573 0.411399 0.611093 -0.098259
H19   H     H_    0.904932 0.434653 0.611990 0.237514
C65   C     C_R   0.637246 0.410581 0.580372 -0.182039
C66   C     C_R   0.482809 0.377743 0.578827 0.251982
C67   C     C_R   0.468301 0.348509 0.609906 0.358127
C68   C     C_R   0.614421 0.351227 0.641215 0.197659
C69   C     C_R   0.392660 0.132649 0.870743 -0.077933
H20   H     H_    0.260776 0.144853 0.858578 0.125467
C70   C     C_R   0.381796 0.103102 0.900697 -0.195472
H21   H     H_    0.240667 0.093250 0.911042 0.125286
C71   C     C_R   0.550873 0.086294 0.916799 -0.049582
C72   C     C_R   0.730997 0.100008 0.902160 -0.195331
H22   H     H_    0.864171 0.087836 0.913776 0.124796
C73   C     C_R   0.741525 0.129636 0.872248 -0.077494
H23   H     H_    0.881513 0.139845 0.861562 0.123676
C74   C     C_R   0.572494 0.146160 0.856225 0.373256
C75   C     C_R   0.704366 0.105069 0.131828 0.384351
C76   C     C_R   0.709701 0.140945 0.167931 -0.149152
H24   H     H_    0.832158 0.143234 0.189194 0.156320
C77   C     C_R   0.560766 0.173929 0.176611 0.044506
C78   C     C_R   0.404268 0.170369 0.148409 -0.110134
H25   H     H_    0.286124 0.195003 0.154576 0.135847
C79   C     C_R   0.397156 0.134603 0.112241 -0.165777
H26   H     H_    0.274339 0.132973 0.091161 0.160655
C80   C     C_R   0.547138 0.101701 0.103075 -0.134426
C81   C     C_R   0.522827 0.258339 0.212435 -0.175305
H27   H     H_    0.479133 0.266697 0.182242 0.165010
C82   C     C_R   0.537892 0.294584 0.248199 0.407356
C83   C     C_R   0.599020 0.284629 0.287681 -0.004219
C84   C     C_R   0.645994 0.238181 0.290128 -0.185261
H28   H     H_    0.692212 0.229576 0.320055 0.163059
C85   C     C_R   0.631823 0.202288 0.254279 -0.122260
H29   H     H_    0.667513 0.166789 0.257365 0.156772
C86   C     C_R   0.570119 0.211941 0.215027 0.026016
C87   C     C_R   0.784843 0.327585 0.350604 -0.137228
H30   H     H_    0.906325 0.304681 0.340783 0.152384
C88   C     C_R   0.800224 0.362524 0.387439 0.381203
C89   C     C_R   0.643921 0.393440 0.400356 -0.138730
C90   C     C_R   0.471287 0.385597 0.377009 -0.075515
H31   H     H_    0.345790 0.406552 0.386830 0.184240
C91   C     C_R   0.456364 0.350382 0.340762 -0.009037
H32   H     H_    0.320308 0.345296 0.323888 0.166118
C92   C     C_R   0.614507 0.321830 0.326531 0.042722
O19   O     O_R   0.699170 0.038480 0.960880 -0.551917
O20   O     O_R   0.366800 0.052460 0.047690 -0.539485
O21   O     O_R   0.193520 0.961530 0.039110 -0.536448
C93   C     C_R   0.535844 0.064402 0.064071 0.748065
O22   O     O_R   0.369630 0.044100 0.961740 -0.554203
O23   O     O_R   0.196370 0.953120 0.952550 -0.534758
C94   C     C_R   0.539271 0.054281 0.948197 0.674031
O24   O     O_R   0.696320 0.046890 0.047450 -0.514947
O25   O     O_3   0.528890 0.970170 0.997080 -0.351809
V3    V     V_3+5 0.255190 0.005530 0.000540 1.514470
O26   O     O_R   0.866460 0.947530 0.952310 -0.525187
C95   C     C_R   0.035462 0.934581 0.936867 0.777544
O27   O     O_R   0.863630 0.955880 0.038270 -0.522234
C96   C     C_R   0.031662 0.946050 0.051990 0.853787
V4    V     V_3+5 0.754830 0.994440 0.999470 1.579387
O28   O     O_3   0.031000 0.029830 0.002920 -0.379711
S1    S     S_3+6 0.046330 0.535470 0.648743 0.080499
O29   O     O_2   0.198421 0.500604 0.630464 -0.321161
O30   O     O_2   0.001272 0.529919 0.693569 -0.212874
O31   O     O_3   0.842908 0.523371 0.620249 -0.526142
H33   H     H_    0.749414 0.547459 0.633655 0.339198
S2    S     S_3+6 0.197338 0.618699 0.731534 0.133074
O32   O     O_2   0.010572 0.612549 0.754196 -0.260676
O33   O     O_2   0.316002 0.574906 0.727755 -0.226537
O34   O     O_3   0.323962 0.663118 0.760690 -0.483773
H34   H     H_    0.322859 0.656615 0.790044 0.402834
Cl1   Cl    Cl    0.048668 0.899402 0.317555 -0.446612
Cl2   Cl    Cl    0.083157 0.610696 0.191210 -0.410535
S3    S     S_3+6 0.411326 0.892343 0.175810 0.036086
O35   O     O_2   0.474933 0.843841 0.179568 -0.356674
O36   O     O_2   0.573029 0.917214 0.157389 -0.326730
O37   O     O_3   0.358311 0.922986 0.224573 -0.430431
H35   H     H_    0.470980 0.918751 0.242391 0.405197
Cl3   Cl    Cl    0.851653 0.633700 0.467546 -0.561662
S4    S     S_3+6 0.393232 0.528256 0.363339 0.158572
O38   O     O_2   0.459399 0.523434 0.317861 -0.175118
O39   O     O_2   0.564996 0.523130 0.390591 -0.321840
O40   O     O_3   0.233290 0.484585 0.364989 -0.471596
H36   H     H_    0.235648 0.479083 0.394551 0.305957
S5    S     S_3+6 0.492995 0.627164 0.326012 0.107554
O41   O     O_2   0.527715 0.678650 0.327060 -0.356221
O42   O     O_2   0.668510 0.607052 0.343118 -0.277454
O43   O     O_3   0.458200 0.600088 0.275201 -0.405789
H37   H     H_    0.573380 0.608366 0.259511 0.400888
Cl4   Cl    Cl    0.320532 0.370230 0.535376 -0.511076
S6    S     S_3+6 0.275666 0.306852 0.608433 0.113027
O44   O     O_2   0.228373 0.298409 0.652350 -0.317192
O45   O     O_2   0.095227 0.323154 0.589996 -0.269906
O46   O     O_3   0.344693 0.255736 0.578127 -0.434850
H38   H     H_    0.373060 0.263316 0.549737 0.376187
Cl5   Cl    Cl    0.895299 0.064371 0.125702 -0.626990
S7    S     S_3+6 0.949327 0.831861 0.949668 0.044217
O47   O     O_2   0.765047 0.854852 0.967492 -0.323832
O48   O     O_2   0.925862 0.779393 0.943531 -0.275917
O49   O     O_3   0.129954 0.849298 0.984128 -0.511017
H39   H     H_    0.103160 0.833734 0.008642 0.369760
Cl6   Cl    Cl    0.490277 0.352314 0.241393 -0.495850
Cl7   Cl    Cl    0.013114 0.363314 0.417470 -0.613159
Cl8   Cl    Cl    0.707744 0.758693 0.799237 -0.605008
Cl9   Cl    Cl    0.157629 0.744278 0.621727 -0.541004

loop_
_geom_bond_atom_site_label_1
_geom_bond_atom_site_label_2
_ccdc_geom_bond_type
S6    O45   D    
C35   N2    A    
C21   C22   A    
S1    O29   D    
C12   C13   A    
C33   H9    S    
C76   H24   S    
C43   H13   S    
C38   C39   A    
C17   C18   A    
C29   Cl1   S    
C1    O6    A    
C79   H26   S    
C87   C92   A    
C49   C53   A    
C69   C70   A    
O27   C96   A    
C84   H28   S    
C33   C34   A    
C77   C86   S    
C85   C86   A    
C11   C12   A    
O25   V3    S    
C64   C65   A    
S5    O43   S    
C64   H19   S    
C8    C9    A    
C7    C8    A    
C18   H7    S    
C6    C7    A    
C87   C88   A    
O23   V3    S    
C72   C73   A    
O5    C3    A    
C14   H5    S    
C76   C77   A    
S6    O46   S    
S2    O32   D    
O46   H38   S    
C24   O12   S    
C82   Cl6   S    
V2    O10   S    
N4    C68   S    
C65   C66   A    
S5    O42   D    
C34   Cl2   S    
O22   V3    S    
C40   C41   A    
C67   C68   A    
C63   H18   S    
C71   C94   S    
C60   H17   S    
O1    C2    A    
C56   C61   A    
O8    V2    S    
C52   C53   A    
C11   C16   A    
V4    O28   S    
O24   V4    S    
S7    O47   D    
N2    C42   S    
C67   S6    S    
C66   Cl4   S    
O19   V4    S    
C75   Cl5   S    
C49   O15   S    
O7    V1    S    
O25   V4    S    
C91   C92   A    
V3    O28   S    
O21   C96   A    
C88   Cl7   S    
C38   H11   S    
S1    O30   D    
C84   C85   A    
O9    C4    A    
C43   C44   A    
C23   O11   S    
C40   H12   S    
C54   H14   S    
C21   S2    S    
C69   H20   S    
O27   V4    S    
C53   C60   A    
C28   H8    S    
C55   H15   S    
C45   C46   A    
C73   C74   A    
C19   C20   A    
C88   C89   A    
O43   H37   S    
O21   V3    S    
C93   O24   A    
C58   C62   A    
C9    C10   A    
C90   C91   A    
S4    O40   S    
C57   C58   A    
C59   C60   A    
O4    C2    A    
C54   C55   A    
C39   C40   A    
C7    C16   S    
S3    O36   D    
O34   H34   S    
C26   C31   A    
C50   C51   A    
N3    C50   A    
C31   C32   A    
N3    C74   S    
S5    O41   D    
C37   C38   A    
C20   S1    S    
O2    C1    A    
C44   C45   A    
S4    O38   D    
O23   C95   A    
C13   C14   A    
C4    C19   S    
S4    O39   D    
C1    C65   S    
O26   C95   A    
O8    C3    A    
S3    O37   S    
C10   C95   S    
C5    H1    S    
C43   C48   A    
C30   C31   A    
C61   N4    A    
C32   C33   A    
C87   H30   S    
C61   O17   S    
C83   C84   A    
O3    C4    A    
C27   C34   A    
O1    V2    S    
O31   H33   S    
S3    O35   D    
O6    V2    S    
O9    V2    S    
N1    C24   A    
C80   C93   S    
C82   C83   A    
C50   O16   S    
O20   C93   A    
C46   S4    S    
C51   C52   A    
O22   C94   A    
C52   C57   A    
C36   O14   S    
C59   H16   S    
C81   H27   S    
O2    V1    S    
C20   C21   A    
C24   C25   A    
C91   H32   S    
C25   C28   A    
O4    V1    S    
N2    C36   A    
C26   C27   A    
C28   C29   A    
C78   C79   A    
O20   V3    S    
C13   C22   S    
C8    H3    S    
C2    C89   S    
C49   N3    A    
C81   C82   A    
C11   Cl8   S    
C79   C80   A    
O5    V1    S    
C63   C68   A    
C70   C71   A    
C73   H23   S    
C70   H21   S    
C63   C64   A    
C39   C96   S    
S1    O31   S    
C83   C92   S    
C85   H29   S    
C62   O18   S    
C30   C35   A    
S7    O49   S    
C90   H31   S    
C5    C10   A    
C15   H6    S    
C41   S3    S    
C6    H2    S    
C3    C45   S    
O19   C94   A    
C69   C74   A    
O3    V1    S    
V1    O10   S    
C72   H22   S    
C37   H10   S    
C14   C15   A    
C47   C48   A    
C58   C59   A    
C77   C78   A    
S2    O33   D    
C78   H25   S    
C35   O13   S    
C18   C19   A    
C5    C6    A    
C71   C72   A    
S6    O44   D    
O26   V4    S    
C23   C27   A    
C37   C42   A    
O7    V2    S    
N4    C62   A    
C17   C22   A    
C81   C86   A    
C32   C36   A    
C25   C26   A    
C17   Cl9   S    
C41   C42   A    
C51   C54   A    
C47   S5    S    
C56   C57   A    
C9    S7    S    
C55   C56   A    
S7    O48   D    
C29   C30   A    
C23   N1    A    
C12   H4    S    
C75   C76   A    
C46   C47   A    
O49   H39   S    
O40   H36   S    
C66   C67   A    
C44   Cl3   S    
N1    C48   S    
C75   C80   A    
O37   H35   S    
C89   C90   A    
C15   C16   A    
S2    O34   S    
