data_mof_unit_9485.cif
_audit_creation_date              2012-12-10T17:48:40-0500
_audit_creation_method            fapswitch 2.2
_symmetry_space_group_name_H-M    P1
_symmetry_Int_Tables_number       1
_space_group_crystal_system       triclinic
_cell_length_a                    15.728981
_cell_length_b                    10.576911
_cell_length_c                    9.961577
_cell_angle_alpha                 87.792619
_cell_angle_beta                  90.171696
_cell_angle_gamma                 90.663495
_cell_volume                      1655.90194646

loop_
_atom_site_label
_atom_site_type_symbol
_atom_type_description
_atom_site_fract_x
_atom_site_fract_y
_atom_site_fract_z
_atom_type_partial_charge
C1    C     C_R   0.500646 0.260798 0.501748 0.847224
C2    C     C_R   0.736617 0.066884 0.553896 -0.133873
C3    C     C_R   0.736896 0.934567 0.552682 0.179630
C4    C     C_R   0.338608 0.499436 0.499809 0.887878
C5    C     C_R   0.660711 0.869052 0.530508 -0.174954
C6    C     C_R   0.583417 0.934516 0.512735 0.061109
C7    C     C_R   0.583400 0.066593 0.515834 0.138626
C8    C     C_R   0.504780 0.128408 0.503372 -0.045964
C9    C     C_R   0.428589 0.064249 0.482496 -0.164468
C10   C     C_R   0.428849 0.935247 0.476809 -0.118608
C11   C     C_R   0.505221 0.871767 0.493038 -0.085990
C12   C     C_3   0.950588 0.566796 0.611496 -0.512293
C13   C     C_R   0.397193 0.324127 0.139428 -0.191386
C14   C     C_R   0.358684 0.227539 0.067551 0.441413
C15   C     C_R   0.388856 0.203178 0.939182 -0.315249
C16   C     C_R   0.500398 0.739232 0.497718 0.855593
C17   C     C_R   0.455583 0.277206 0.884628 0.366357
C18   C     C_R   0.466944 0.398479 0.934357 0.018612
C19   C     C_R   0.455040 0.408724 0.075028 0.035955
C20   C     C_R   0.539476 0.593436 0.066015 0.153633
C21   C     C_R   0.535958 0.595386 0.923471 -0.017059
C22   C     C_R   0.661424 0.500400 0.499877 0.858959
C23   C     C_3   0.917003 0.506526 0.480623 0.134216
C24   C     C_3   0.047291 0.547746 0.624887 -0.119256
C25   C     C_3   0.049226 0.374041 0.459692 -0.418784
C26   C     C_3   0.951945 0.367939 0.481555 -0.092047
C27   C     C_1   0.750225 0.502216 0.497878 -0.140764
C28   C     C_3   0.083269 0.509259 0.485660 0.032446
C29   C     C_3   0.949955 0.589604 0.353690 0.378594
C30   C     C_3   0.050517 0.603174 0.370460 0.231850
C31   C     C_1   0.825398 0.504110 0.490629 0.003751
C32   C     C_1   0.174722 0.504890 0.493016 0.045091
C33   C     C_1   0.249894 0.501496 0.498093 -0.088078
C34   C     C_R   0.660906 0.132465 0.534280 -0.101517
H1    H     H_    0.919028 0.522665 0.702060 0.203177
H2    H     H_    0.371781 0.114584 0.894547 0.213856
H3    H     H_    0.565333 0.673041 0.866116 0.168231
H4    H     H_    0.065725 0.347127 0.356459 0.276968
H5    H     H_    0.079688 0.303085 0.529425 0.164062
H6    H     H_    0.939920 0.322613 0.582943 0.146844
H7    H     H_    0.062170 0.699187 0.407633 0.084068
H8    H     H_    0.088772 0.736632 0.612695 0.200023
H9    H     H_    0.151023 0.639103 0.707590 0.206340
H10   H     H_    0.896173 0.592959 0.989833 0.380275
H11   H     H_    0.865381 0.927047 0.585523 0.189009
H12   H     H_    0.935251 0.669156 0.610727 0.222605
H13   H     H_    0.807558 0.812205 0.663766 0.198633
H14   H     H_    0.622321 0.660982 0.203112 0.238830
H15   H     H_    0.537632 0.756233 0.164825 0.240057
H16   H     H_    0.199248 0.131775 0.317086 0.379309
H17   H     H_    0.601526 0.228800 0.068030 0.358297
H18   H     H_    0.938435 0.198306 0.390164 0.192044
H19   H     H_    0.847222 0.274257 0.408070 0.197059
H20   H     H_    0.108589 0.695457 0.019103 0.391929
H21   H     H_    0.848344 0.713638 0.339457 0.231296
H22   H     H_    0.940552 0.775517 0.282599 0.252242
H23   H     H_    0.369100 0.114378 0.470681 0.168841
H24   H     H_    0.663313 0.234498 0.536177 0.138902
H25   H     H_    0.794848 0.119257 0.571395 0.120735
H26   H     H_    0.662564 0.766995 0.528461 0.123375
H27   H     H_    0.369407 0.884474 0.462346 0.169056
H28   H     H_    0.057521 0.467300 0.698721 0.207394
H29   H     H_    0.379206 0.333253 0.241992 0.234883
N1    N     N_R   0.499210 0.498800 0.142780 -0.115492
N2    N     N_R   0.499180 0.498720 0.857170 -0.121280
N3    N     N_3   0.088151 0.659732 0.681378 -0.422769
N4    N     N_3   0.813878 0.865079 0.573417 -0.467757
N5    N     N_3   0.582859 0.696039 0.126524 -0.424278
N6    N     N_3   0.911098 0.288009 0.382431 -0.326231
N7    N     N_3   0.913709 0.717234 0.358787 -0.498496
O1    O     O_R   0.500000 0.316780 0.614690 -0.572137
O2    O     O_2   0.824546 0.472310 0.209290 -0.305013
O3    O     O_3   0.911552 0.637240 0.072477 -0.501344
O4    O     O_2   0.213518 0.097238 0.044969 -0.252970
O5    O     O_2   0.324356 0.005455 0.190624 -0.283955
O6    O     O_3   0.239436 0.195588 0.277585 -0.579539
O7    O     O_2   0.533192 0.070654 0.798636 -0.284827
O8    O     O_2   0.619397 0.266353 0.802421 -0.290414
O9    O     O_3   0.583570 0.148442 0.027967 -0.507608
O10   O     O_2   0.199951 0.672011 0.253571 -0.289393
O11   O     O_2   0.132676 0.482030 0.168866 -0.233932
O12   O     O_R   0.499990 0.316750 0.385360 -0.636566
O13   O     O_3   0.071104 0.702515 0.098136 -0.471794
O14   O     O_R   0.377150 0.500020 0.614720 -0.628199
O15   O     O_R   0.377140 0.499990 0.385380 -0.591832
O16   O     O_R   0.500010 0.683250 0.614640 -0.614153
O17   O     O_R   0.500000 0.683220 0.385310 -0.631315
O18   O     O_R   0.622860 0.500010 0.614620 -0.586500
O19   O     O_R   0.622850 0.499980 0.385280 -0.612687
O20   O     O_2   0.969804 0.418389 0.151839 -0.221604
S1    S     S_3+6 0.913775 0.523315 0.194911 0.071182
S2    S     S_3+6 0.282196 0.126399 0.144726 0.046143
S3    S     S_3+6 0.550275 0.189729 0.871884 0.051252
S4    S     S_3+6 0.116075 0.611325 0.219736 0.077540
Zn1   Zn    Zn3+2 0.500010 0.500020 0.653130 1.004314
Zn2   Zn    Zn3+2 0.499990 0.499980 0.346870 0.972664

loop_
_geom_bond_atom_site_label_1
_geom_bond_atom_site_label_2
_ccdc_geom_bond_type
H15   N5    S    
C1    C8    S    
H19   N6    S    
C7    C8    A    
C25   C28   S    
C12   C23   S    
C1    O1    A    
C23   C29   S    
O9    S3    S    
C5    C6    A    
O15   Zn2   S    
O1    Zn1   S    
O8    S3    D    
C18   C19   A    
C23   C26   S    
O4    S2    D    
H18   N6    S    
C8    C9    A    
C4    O14   A    
H11   N4    S    
C16   O17   A    
C30   H7    S    
C22   O18   A    
C9    C10   A    
C24   N3    S    
C2    C34   A    
O18   Zn1   S    
C13   C14   A    
C16   O16   A    
H13   N4    S    
H20   O13   S    
O12   Zn2   S    
C13   C19   A    
C27   C31   T    
C28   C32   S    
O3    S1    S    
C12   H12   S    
O16   Zn1   S    
C6    C11   A    
O2    S1    D    
C2    H25   S    
C4    O15   A    
C1    O12   A    
O13   S4    S    
C18   N2    A    
O14   Zn1   S    
C23   C31   S    
C20   N1    A    
C29   C30   S    
H16   O6    S    
C25   H4    S    
C11   C16   S    
C13   H29   S    
C19   N1    A    
O17   Zn2   S    
C17   C18   A    
H14   N5    S    
C12   H1    S    
C14   S2    S    
O5    S2    D    
O6    S2    S    
H22   N7    S    
C22   C27   S    
C7    C34   A    
C10   H27   S    
C17   S3    S    
O10   S4    D    
C15   H2    S    
C29   S1    S    
C34   H24   S    
C29   N7    S    
C15   C17   A    
C4    C33   S    
C24   H28   S    
C5    H26   S    
C21   N2    A    
C20   N5    S    
C3    N4    S    
C24   C28   S    
C3    C5    A    
C6    C7    A    
C12   C24   S    
C32   C33   T    
O19   Zn2   S    
C28   C30   S    
C2    C3    A    
C25   C26   S    
C30   S4    S    
C25   H5    S    
O11   S4    D    
C26   H6    S    
O20   S1    D    
H9    N3    S    
O7    S3    D    
C22   O19   A    
N1    Zn2   S    
C9    H23   S    
H10   O3    S    
H17   O9    S    
H21   N7    S    
C10   C11   A    
N2    Zn1   S    
C21   H3    S    
C20   C21   A    
H8    N3    S    
C26   N6    S    
C14   C15   A    
