data_mof_unit_62018.cif
_audit_creation_date              2012-12-10T21:32:49-0500
_audit_creation_method            fapswitch 2.2
_symmetry_space_group_name_H-M    P1
_symmetry_Int_Tables_number       1
_space_group_crystal_system       triclinic
_cell_length_a                    11.549406
_cell_length_b                    16.12617
_cell_length_c                    16.952114
_cell_angle_alpha                 87.947983
_cell_angle_beta                  90.17784
_cell_angle_gamma                 92.210173
_cell_volume                      3152.91536314

loop_
_atom_site_label
_atom_site_type_symbol
_atom_type_description
_atom_site_fract_x
_atom_site_fract_y
_atom_site_fract_z
_atom_type_partial_charge
C1    C     C_R   0.501250 0.489011 0.652654 0.867427
C2    C     C_R   0.498754 0.510989 0.347346 0.867426
C3    C     C_R   0.487155 0.405518 0.777860 -0.222952
C4    C     C_R   0.512913 0.594480 0.222141 -0.222952
C5    C     C_R   0.452856 0.763273 0.456392 -0.120805
C6    C     C_R   0.547141 0.236727 0.543609 -0.120804
C7    C     C_R   0.455695 0.850421 0.458690 -0.274419
C8    C     C_R   0.544302 0.149579 0.541311 -0.274418
C9    C     C_R   0.521608 0.890966 0.517186 0.284220
C10   C     C_R   0.478392 0.109034 0.482814 0.284220
C11   C     C_R   0.583240 0.841657 0.571081 -0.413221
C12   C     C_R   0.416763 0.158343 0.428917 -0.413221
C13   C     C_R   0.580753 0.754388 0.565778 0.610747
C14   C     C_R   0.419250 0.245612 0.434220 0.610744
C15   C     C_R   0.718257 0.499775 0.499928 0.900623
C16   C     C_R   0.281743 0.500225 0.500072 0.900624
C17   C     C_1   0.838599 0.499424 0.499895 -0.203600
C18   C     C_1   0.161401 0.500576 0.500105 -0.203602
C19   C     C_1   0.940709 0.499710 0.499955 -0.003567
C20   C     C_1   0.059290 0.500290 0.500044 -0.003567
C21   C     C_R   0.507814 0.482283 0.737947 -0.034742
C22   C     C_R   0.492228 0.517717 0.262052 -0.034745
C23   C     C_R   0.535897 0.553392 0.780050 -0.223743
C24   C     C_R   0.464174 0.446605 0.219944 -0.223739
C25   C     C_R   0.539120 0.548629 0.861396 -0.173109
C26   C     C_R   0.461004 0.451364 0.138597 -0.173107
C27   C     C_R   0.512736 0.472459 0.901770 0.331247
C28   C     C_R   0.487409 0.527534 0.098227 0.331248
C29   C     C_R   0.489999 0.400826 0.859731 -0.193160
C30   C     C_R   0.510120 0.599168 0.140269 -0.193160
H1    H     H_    0.439584 0.395312 0.107465 0.151375
H2    H     H_    0.560558 0.604680 0.892526 0.151374
H3    H     H_    0.471247 0.341895 0.890618 0.139221
H4    H     H_    0.528885 0.658099 0.109384 0.139222
H5    H     H_    0.466723 0.349727 0.746057 0.161904
H6    H     H_    0.533325 0.650271 0.253947 0.161906
H7    H     H_    0.598698 0.267500 0.588077 0.157785
H8    H     H_    0.401297 0.732500 0.411926 0.157785
H9    H     H_    0.593867 0.114790 0.584507 0.165951
H10   H     H_    0.406128 0.885209 0.415496 0.165951
N1    N     N_2   0.505950 0.466000 0.984522 -0.207222
N2    N     N_2   0.494214 0.533993 0.015476 -0.207218
N3    N     N_R   0.513820 0.716920 0.509720 -0.120295
N4    N     N_R   0.486180 0.283080 0.490280 -0.120296
N5    N     N_2   0.528306 0.979539 0.524927 -0.170367
N6    N     N_2   0.471694 0.020460 0.475073 -0.170367
O1    O     O_R   0.495050 0.422540 0.612660 -0.639471
O2    O     O_R   0.504950 0.577460 0.387340 -0.639472
O3    O     O_R   0.503930 0.561840 0.618900 -0.569314
O4    O     O_R   0.496070 0.438160 0.381100 -0.569310
O5    O     O_R   0.661110 0.430350 0.496870 -0.614192
O6    O     O_R   0.338890 0.569650 0.503130 -0.614191
O7    O     O_R   0.669990 0.569650 0.503110 -0.600659
O8    O     O_R   0.330010 0.430350 0.496890 -0.600661
Zn1   Zn    Zn3+2 0.494070 0.406980 0.495830 0.978189
Zn2   Zn    Zn3+2 0.505930 0.593020 0.504170 0.978189
H11   H     H_    0.445350 0.387075 0.249641 0.209260
H12   H     H_    0.554704 0.612923 0.750350 0.209273
H13   H     H_    0.632123 0.871073 0.617721 0.155790
H14   H     H_    0.367882 0.128927 0.382277 0.155790
O9    O     O_3   0.636943 0.705542 0.621271 -0.603670
C31   C     C_3   0.758000 0.718614 0.613479 0.085751
H15   H     H_    0.785959 0.781653 0.632315 0.127823
H16   H     H_    0.786358 0.710583 0.551491 0.150019
C32   C     C_3   0.818171 0.655330 0.666422 -0.797761
H17   H     H_    0.790761 0.591357 0.650392 0.254880
H18   H     H_    0.913561 0.663335 0.659452 0.208683
H19   H     H_    0.795352 0.664060 0.729105 0.245359
O10   O     O_3   0.363063 0.294458 0.378726 -0.603664
C33   C     C_3   0.242006 0.281388 0.386515 0.085756
H20   H     H_    0.213647 0.289418 0.448503 0.150017
H21   H     H_    0.214046 0.218349 0.367679 0.127822
C34   C     C_3   0.181838 0.344673 0.333573 -0.797751
H22   H     H_    0.204660 0.335944 0.270889 0.245362
H23   H     H_    0.086448 0.336669 0.340540 0.208679
H24   H     H_    0.209248 0.408646 0.349604 0.254876

loop_
_geom_bond_atom_site_label_1
_geom_bond_atom_site_label_2
_ccdc_geom_bond_type
O4    Zn1   S    
C2    C22   S    
C23   H12   S    
C31   H16   S    
C7    H10   S    
C4    H6    S    
C1    C21   S    
C33   H20   S    
C8    H9    S    
C15   O5    A    
C25   C27   A    
O3    Zn2   S    
C4    C22   A    
N1    N2    D    
C27   N1    S    
C26   C28   A    
C19   C20   S    
C3    H5    S    
C32   H19   S    
C33   C34   S    
C28   C30   A    
C5    N3    A    
C6    H7    S    
C5    C7    A    
C26   H1    S    
C16   O8    A    
C6    N4    A    
C5    H8    S    
C9    N5    S    
C34   H23   S    
N4    Zn1   S    
C3    C29   A    
C31   H15   S    
C10   C12   A    
C25   H2    S    
C11   H13   S    
C15   O7    A    
C16   C18   S    
C17   C19   T    
C12   C14   A    
O5    Zn1   S    
O10   C33   S    
C9    C11   A    
C21   C23   A    
O9    C31   S    
C14   O10   S    
C22   C24   A    
C3    C21   A    
C11   C13   A    
C27   C29   A    
C30   H4    S    
C10   N6    S    
C12   H14   S    
C7    C9    A    
N3    Zn2   S    
C13   N3    A    
C23   C25   A    
C13   O9    S    
C34   H24   S    
C18   C20   T    
C14   N4    A    
C32   H17   S    
C34   H22   S    
O7    Zn2   S    
C28   N2    S    
C16   O6    A    
O2    Zn2   S    
O1    Zn1   S    
O8    Zn1   S    
C1    O1    A    
C6    C8    A    
C2    O4    A    
C31   C32   S    
C2    O2    A    
C15   C17   S    
C1    O3    A    
C24   H11   S    
C33   H21   S    
C8    C10   A    
C4    C30   A    
O6    Zn2   S    
C29   H3    S    
C24   C26   A    
N5    N6    D    
C32   H18   S    
