data_mof_unit_41847.cif
_audit_creation_date              2012-12-10T20:30:09-0500
_audit_creation_method            fapswitch 2.2
_symmetry_space_group_name_H-M    P1
_symmetry_Int_Tables_number       1
_space_group_crystal_system       triclinic
_cell_length_a                    9.864363
_cell_length_b                    10.677856
_cell_length_c                    13.118511
_cell_angle_alpha                 90.036078
_cell_angle_beta                  69.933847
_cell_angle_gamma                 89.960458
_cell_volume                      1297.89734314

loop_
_atom_site_label
_atom_site_type_symbol
_atom_type_description
_atom_site_fract_x
_atom_site_fract_y
_atom_site_fract_z
_atom_type_partial_charge
C1    C     C_R   0.501347 0.740080 0.496890 0.887233
C2    C     C_R   0.429739 0.473446 0.985097 0.051470
C3    C     C_R   0.458616 0.438751 0.876312 0.084752
C4    C     C_R   0.540264 0.457179 0.029698 0.106372
C5    C     C_R   0.666182 0.387371 0.973019 0.162506
C6    C     C_R   0.681746 0.336453 0.871883 -0.269103
C7    C     C_R   0.579212 0.361738 0.823910 -0.199300
C8    C     C_R   0.530097 0.511143 0.128456 -0.250344
C9    C     C_R   0.752861 0.412320 0.123780 -0.141298
C10   C     C_R   0.367222 0.484066 0.822325 -0.219213
C11   C     C_R   0.385397 0.936294 0.481220 0.140981
C12   C     C_R   0.419874 0.493532 0.704204 0.888380
C13   C     C_R   0.508485 0.871477 0.479827 -0.109115
C14   C     C_R   0.639826 0.935140 0.457671 -0.221131
C15   C     C_R   0.639976 0.064660 0.457423 -0.229155
C16   C     C_R   0.508779 0.128613 0.479364 -0.103033
C17   C     C_R   0.385573 0.064038 0.480884 0.133487
C18   C     C_3   0.234477 0.071681 0.559435 -0.478421
C19   C     C_3   0.234424 0.929737 0.560036 -0.492559
C20   C     C_R   0.905951 0.594049 0.550227 0.211199
C21   C     C_R   0.954540 0.413831 0.442054 -0.148320
C22   C     C_R   0.098531 0.413809 0.442053 -0.132334
C23   C     C_R   0.501586 0.259961 0.496617 0.869907
C24   C     C_R   0.048375 0.593763 0.550477 0.206379
C25   C     C_3   0.000368 0.625833 0.668093 -0.514587
C26   C     C_3   0.846754 0.627343 0.667699 -0.481658
C27   C     C_R   0.580138 0.499355 0.295655 0.866875
C28   C     C_R   0.773238 0.367779 0.019560 -0.174669
C29   C     C_R   0.628439 0.481093 0.179064 -0.064023
C30   C     C_R   0.232504 0.535739 0.881785 -0.206992
C31   C     C_R   0.191639 0.550573 0.993578 0.505736
C32   C     C_R   0.291609 0.522632 0.044896 -0.329969
H1    H     H_    0.829879 0.388030 0.162803 0.153228
H2    H     H_    0.739824 0.113599 0.447673 0.165540
H3    H     H_    0.228146 0.113579 0.638599 0.204015
H4    H     H_    0.159023 0.112431 0.521946 0.201603
H5    H     H_    0.228586 0.889138 0.639489 0.201041
H6    H     H_    0.158644 0.888370 0.523169 0.203675
H7    H     H_    0.920800 0.342827 0.396974 0.140704
H8    H     H_    0.173435 0.342750 0.396972 0.150104
H9    H     H_    0.038863 0.719508 0.682827 0.199734
H10   H     H_    0.778776 0.552265 0.718464 0.237138
H11   H     H_    0.797145 0.722161 0.681098 0.200184
H12   H     H_    0.160178 0.567993 0.841171 0.170643
H13   H     H_    0.257700 0.536617 0.131512 0.132159
H14   H     H_    0.594984 0.319744 0.745593 0.173067
H15   H     H_    0.739606 0.886017 0.448056 0.170486
N1    N     N_R   0.856940 0.500860 0.500710 -0.103315
N2    N     N_R   0.142580 0.500820 0.500710 -0.102776
O1    O     O_R   0.385310 0.683210 0.499990 -0.612447
O2    O     O_R   0.614650 0.683240 0.500000 -0.617599
O3    O     O_R   0.328390 0.499940 0.653610 -0.614096
O4    O     O_R   0.557730 0.499980 0.653620 -0.611259
O5    O     O_R   0.385350 0.316760 0.500000 -0.616192
O6    O     O_R   0.614690 0.316790 0.500010 -0.631922
O7    O     O_R   0.442270 0.500020 0.346380 -0.615406
O8    O     O_R   0.671610 0.500060 0.346390 -0.614522
Zn1   Zn    Zn3+2 0.346870 0.499980 0.499990 0.937284
Zn2   Zn    Zn3+2 0.653130 0.500020 0.500010 0.934183
H16   H     H_    0.020800 0.548786 0.717927 0.216552
H17   H     H_    0.774707 0.279407 0.828751 0.151559
H18   H     H_    0.869221 0.313782 0.977369 0.138296
H19   H     H_    0.442396 0.573438 0.170361 0.154141
O9    O     O_3   0.056249 0.597929 0.049495 -0.772186
H20   H     H_    0.043368 0.602541 0.127773 0.326331

loop_
_geom_bond_atom_site_label_1
_geom_bond_atom_site_label_2
_ccdc_geom_bond_type
C2    C4    A    
C23   O6    A    
C6    C7    A    
C25   H16   S    
O6    Zn2   S    
C27   C29   S    
C5    C28   A    
C11   C13   A    
C1    O1    A    
C10   C30   A    
C15   H2    S    
C12   O4    A    
C21   H7    S    
C9    C29   A    
C30   C31   A    
C4    C8    A    
C21   N1    A    
C22   H8    S    
O9    H20   S    
C27   O8    A    
C14   C15   A    
C17   C18   S    
O4    Zn2   S    
C3    C10   A    
C21   C22   A    
C9    H1    S    
C1    O2    A    
C30   H12   S    
C18   H3    S    
C20   N1    A    
C10   C12   S    
N1    Zn2   S    
C22   N2    A    
C8    C29   A    
C6    H17   S    
C19   H6    S    
O7    Zn1   S    
C26   H11   S    
C2    C3    A    
C16   C23   S    
C3    C7    A    
O5    Zn1   S    
C5    C6    A    
O3    Zn1   S    
O8    Zn2   S    
C1    C13   S    
C8    H19   S    
C15   C16   A    
O1    Zn1   S    
C7    H14   S    
C4    C5    A    
O2    Zn2   S    
C24   C25   S    
C26   H10   S    
C23   O5    A    
C2    C32   A    
C18   C19   S    
C32   H13   S    
C25   H9    S    
C24   N2    A    
C27   O7    A    
C11   C19   S    
C19   H5    S    
C12   O3    A    
C25   C26   S    
C13   C14   A    
C14   H15   S    
C18   H4    S    
C31   O9    S    
C31   C32   A    
C11   C17   A    
N2    Zn1   S    
C20   C24   A    
C9    C28   A    
C16   C17   A    
C20   C26   S    
C28   H18   S    
