data_mof_unit_43117.cif
_audit_creation_date              2013-03-05T16:13:43-0500
_audit_creation_method            fapswitch 2.2
_symmetry_space_group_name_H-M    P1
_symmetry_Int_Tables_number       1
_space_group_crystal_system       triclinic
_cell_length_a                    10.664992
_cell_length_b                    9.868857
_cell_length_c                    8.909394
_cell_angle_alpha                 90.056898
_cell_angle_beta                  90.316995
_cell_angle_gamma                 90.244915
_cell_volume                      937.70172773

loop_
_atom_site_label
_atom_site_type_symbol
_atom_site_description
_atom_site_fract_x
_atom_site_fract_y
_atom_site_fract_z
_atom_type_partial_charge
O1    O     O_R   0.316770 0.614620 0.499990 -0.607804
O2    O     O_R   0.683230 0.385380 0.500010 -0.607771
O3    O     O_R   0.683230 0.614620 0.500010 -0.599416
O4    O     O_R   0.316770 0.385380 0.499990 -0.598993
C1    C     C_R   0.260377 0.499658 0.499085 1.012670
C2    C     C_R   0.739623 0.500338 0.500958 1.014257
O5    O     O_R   0.500010 0.614640 0.285340 -0.598086
O6    O     O_R   0.499990 0.385360 0.714660 -0.598038
O7    O     O_R   0.499990 0.614640 0.714660 -0.628171
O8    O     O_R   0.500010 0.385360 0.285340 -0.628194
C3    C     C_R   0.500378 0.499949 0.218694 0.990764
C4    C     C_R   0.499554 0.500050 0.781305 0.989831
Zn1   Zn    Zn3+2 0.500000 0.653120 0.500000 1.046004
Zn2   Zn    Zn3+2 0.500000 0.346880 0.500000 1.046221
C5    C     C_1   0.500116 0.499924 0.065387 -0.049492
C6    C     C_1   0.499779 0.500074 0.934611 -0.049898
C7    C     C_R   0.065473 0.424921 0.609669 0.215281
C8    C     C_R   0.934536 0.575070 0.390359 0.214941
C9    C     C_R   0.935833 0.426689 0.612507 0.208523
C10   C     C_R   0.064180 0.573336 0.387586 0.209039
C11   C     C_R   0.872094 0.501405 0.502121 -0.350704
C12   C     C_R   0.127909 0.498576 0.497920 -0.350561
C13   C     C_R   0.580830 0.072308 0.589995 -0.015289
C14   C     C_R   0.419176 0.927693 0.410000 -0.015263
C15   C     C_R   0.419139 0.071393 0.410041 -0.010650
C16   C     C_R   0.580863 0.928607 0.589958 -0.011230
H1    H     H_    0.645461 0.126938 0.662115 0.181865
H2    H     H_    0.354558 0.873064 0.337868 0.182216
H3    H     H_    0.354403 0.125288 0.338015 0.161144
H4    H     H_    0.645599 0.874712 0.661983 0.161097
N1    N     N_R   0.500000 0.857200 0.500000 -0.102547
N2    N     N_R   0.500000 0.142800 0.500000 -0.102446
N3    N     N_R   0.133915 0.357545 0.726568 0.249001
O9    O     O_R   0.153285 0.227712 0.718496 -0.301430
O10   O     O_R   0.188628 0.428121 0.831673 -0.351406
N4    N     N_R   0.866108 0.642408 0.273399 0.249053
O11   O     O_R   0.809247 0.571673 0.170019 -0.353614
O12   O     O_R   0.848883 0.772712 0.279924 -0.300239
N5    N     N_R   0.869513 0.359878 0.731696 0.235908
O13   O     O_R   0.791584 0.427433 0.814654 -0.376902
O14   O     O_R   0.890161 0.232852 0.761281 -0.309371
N6    N     N_R   0.130527 0.640013 0.268352 0.236130
O15   O     O_R   0.111072 0.767485 0.239868 -0.310006
O16   O     O_R   0.207898 0.572181 0.184914 -0.376422

loop_
_geom_bond_atom_site_label_1
_geom_bond_atom_site_label_2
_geom_bond_distance
_ccdc_geom_bond_type
C10   N6    1.438018 S    
N6    O16   1.300832 A    
C13   H1    1.081616 S    
C8    C11   1.402898 A    
C7    C12   1.402739 A    
O3    Zn1   1.992335 S    
O6    C4    1.277664 A    
O3    C2    1.280452 A    
C13   N2    1.366956 A    
C15   N2    1.367010 A    
N4    O12   1.301073 A    
N3    O9    1.300707 A    
C14   N1    1.366949 A    
C16   N1    1.367014 A    
N5    O14   1.300715 A    
O5    C3    1.277668 A    
O2    C2    1.281794 A    
C9    N5    1.438181 S    
O1    C1    1.281822 A    
C3    C5    1.365861 S    
C7    N3    1.434145 S    
N4    O11   1.300887 A    
N3    O10   1.300643 A    
C10   C12   1.403902 A    
C16   H4    1.081788 S    
C8    C10   1.383182 A    
O4    Zn2   1.992336 S    
O2    Zn2   1.989146 S    
O7    C4    1.277799 A    
O1    Zn1   1.989147 S    
O8    C3    1.277794 A    
C5    C6    1.165120 T    
C4    C6    1.365857 S    
O5    Zn1   1.949460 S    
C14   C15   1.418155 A    
C15   H3    1.081788 S    
N6    O15   1.300884 A    
C13   C16   1.418164 A    
Zn2   N2    2.014036 S    
N5    O13   1.300788 A    
O7    Zn1   1.950199 S    
C7    C9    1.383159 A    
O6    Zn2   1.949460 S    
C9    C11   1.404050 A    
C2    C11   1.412771 S    
C8    N4    1.434286 S    
Zn1   N1    2.014036 S    
C1    C12   1.412744 S    
C14   H2    1.081587 S    
O8    Zn2   1.950199 S    
O4    C1    1.280412 A    
