data_mof_unit_66222.cif
_audit_creation_date              2012-12-10T18:21:24-0500
_audit_creation_method            fapswitch 2.2
_symmetry_space_group_name_H-M    P1
_symmetry_Int_Tables_number       1
_space_group_crystal_system       triclinic
_cell_length_a                    23.374438
_cell_length_b                    23.374438
_cell_length_c                    43.462885
_cell_angle_alpha                 90.000017
_cell_angle_beta                  90.000017
_cell_angle_gamma                 90.0
_cell_volume                      23746.5709911

loop_
_atom_site_label
_atom_site_type_symbol
_atom_type_description
_atom_site_fract_x
_atom_site_fract_y
_atom_site_fract_z
_atom_type_partial_charge
C1    C     C_R   0.000000 0.500000 0.869213 0.021818
C2    C     C_R   0.009406 0.449219 0.081930 -0.117017
C3    C     C_1   0.731289 0.231289 0.750000 0.000026
C4    C     C_1   0.768726 0.731274 0.250000 -0.002979
C5    C     C_1   0.231289 0.268711 0.750000 0.000026
C6    C     C_1   0.731274 0.231274 0.250000 -0.002980
C7    C     C_1   0.268711 0.768710 0.750000 0.000026
C8    C     C_R   0.000000 0.500000 0.934505 -0.063643
C9    C     C_R   0.000000 0.500000 0.065495 -0.063643
C10   C     C_R   0.500000 0.000000 0.934505 -0.063643
C11   C     C_R   0.500000 0.000000 0.065495 -0.063643
C12   C     C_R   0.500000 0.000000 0.434505 -0.063643
C13   C     C_R   0.449219 0.009406 0.918070 -0.117017
C14   C     C_R   0.500000 1.000000 0.565495 -0.063643
C15   C     C_R   0.000000 0.500000 0.434505 -0.063643
C16   C     C_R   0.000000 0.500000 0.565495 -0.063643
C17   C     C_R   0.011394 0.550924 0.885844 0.220216
C18   C     C_R   0.011395 0.449076 0.114156 0.220216
C19   C     C_R   0.449076 0.011395 0.885844 0.220216
C20   C     C_R   0.550924 0.011394 0.114156 0.220215
C21   C     C_R   0.988605 0.449076 0.885844 0.220215
C22   C     C_R   0.988605 0.550924 0.114156 0.220216
C23   C     C_R   0.550924 0.988605 0.885844 0.220216
C24   C     C_R   0.550781 0.009406 0.081930 -0.117017
C25   C     C_R   0.449076 0.988606 0.114156 0.220216
C26   C     C_R   0.511394 0.050924 0.385844 0.220216
C27   C     C_R   0.511395 0.949076 0.614156 0.220216
C28   C     C_R   0.949076 0.511394 0.385844 0.220216
C29   C     C_R   0.050924 0.511394 0.614156 0.220215
C30   C     C_R   0.488606 0.949076 0.385844 0.220215
C31   C     C_R   0.488605 0.050924 0.614156 0.220216
C32   C     C_R   0.050924 0.488605 0.385844 0.220216
C33   C     C_R   0.949076 0.488606 0.614156 0.220216
C34   C     C_3   0.080521 0.606081 0.863057 0.034007
C35   C     C_R   0.990594 0.449219 0.918070 -0.117017
C36   C     C_3   0.113441 0.639237 0.887765 -0.278137
C37   C     C_3   0.175216 0.649918 0.877964 -0.475977
C38   C     C_3   0.080521 0.393920 0.136942 0.034007
C39   C     C_3   0.113441 0.360763 0.112235 -0.278138
C40   C     C_3   0.175216 0.350083 0.122036 -0.475977
C41   C     C_3   0.393920 0.080521 0.863057 0.034007
C42   C     C_3   0.360763 0.113441 0.887765 -0.278138
C43   C     C_3   0.350083 0.175216 0.877964 -0.475977
C44   C     C_3   0.606081 0.080521 0.136942 0.034007
C45   C     C_3   0.639237 0.113440 0.112235 -0.278138
C46   C     C_R   0.990593 0.550781 0.081930 -0.117017
C47   C     C_3   0.649918 0.175216 0.122036 -0.475977
C48   C     C_3   0.919479 0.393919 0.863057 0.034007
C49   C     C_3   0.886559 0.360763 0.887765 -0.278138
C50   C     C_3   0.824784 0.350082 0.877964 -0.475977
C51   C     C_3   0.919479 0.606080 0.136942 0.034007
C52   C     C_3   0.886559 0.639237 0.112235 -0.278138
C53   C     C_3   0.824784 0.649917 0.122036 -0.475977
C54   C     C_3   0.606080 0.919479 0.863057 0.034007
C55   C     C_3   0.639236 0.886559 0.887765 -0.278138
C56   C     C_3   0.649917 0.824784 0.877964 -0.475977
C57   C     C_R   0.550781 0.990593 0.918070 -0.117017
C58   C     C_3   0.393919 0.919479 0.136942 0.034008
C59   C     C_3   0.360763 0.886559 0.112235 -0.278137
C60   C     C_3   0.350082 0.824784 0.122036 -0.475977
C61   C     C_3   0.580521 0.106081 0.363057 0.034008
C62   C     C_3   0.613441 0.139237 0.387765 -0.278137
C63   C     C_3   0.675216 0.149918 0.377964 -0.475977
C64   C     C_3   0.580521 0.893920 0.636942 0.034007
C65   C     C_3   0.613441 0.860763 0.612235 -0.278138
C66   C     C_3   0.675216 0.850083 0.622036 -0.475977
C67   C     C_3   0.893920 0.580521 0.363057 0.034007
C68   C     C_R   0.449219 0.990594 0.081930 -0.117016
C69   C     C_3   0.860763 0.613441 0.387765 -0.278138
C70   C     C_3   0.850083 0.675216 0.377964 -0.475977
C71   C     C_3   0.106080 0.580521 0.636942 0.034007
C72   C     C_3   0.139237 0.613440 0.612235 -0.278138
C73   C     C_3   0.149918 0.675216 0.622036 -0.475977
C74   C     C_3   0.419479 0.893919 0.363057 0.034007
C75   C     C_3   0.386559 0.860763 0.387765 -0.278138
C76   C     C_3   0.324784 0.850082 0.377964 -0.475977
C77   C     C_3   0.419479 0.106080 0.636942 0.034007
C78   C     C_3   0.386559 0.139237 0.612235 -0.278138
C79   C     C_R   0.509406 0.050781 0.418070 -0.117017
C80   C     C_3   0.324784 0.149917 0.622036 -0.475977
C81   C     C_3   0.106080 0.419479 0.363057 0.034007
C82   C     C_3   0.139236 0.386559 0.387765 -0.278138
C83   C     C_3   0.149917 0.324784 0.377964 -0.475977
C84   C     C_3   0.893919 0.419479 0.636942 0.034007
C85   C     C_3   0.860763 0.386559 0.612235 -0.278137
C86   C     C_3   0.850082 0.324784 0.622036 -0.475977
C87   C     C_R   0.509406 0.949219 0.581930 -0.117017
C88   C     C_R   0.949219 0.509406 0.418070 -0.117017
C89   C     C_R   0.000000 0.500000 0.130787 0.021818
C90   C     C_R   0.050781 0.509406 0.581930 -0.117017
C91   C     C_R   0.490594 0.949219 0.418070 -0.117017
C92   C     C_R   0.490593 0.050781 0.581930 -0.117017
C93   C     C_R   0.050781 0.490593 0.418070 -0.117017
C94   C     C_R   0.949219 0.490594 0.581930 -0.117016
C95   C     C_R   0.500000 1.000000 0.531331 0.348716
C96   C     C_R   0.500000 0.000000 0.468669 0.348716
C97   C     C_R   0.000000 0.500000 0.531331 0.348716
C98   C     C_R   0.000000 0.500000 0.468669 0.348716
C99   C     C_R   0.000000 0.500000 0.031331 0.348716
C100  C     C_R   0.500000 0.000000 0.869213 0.021818
C101  C     C_R   0.000000 0.500000 0.968669 0.348716
C102  C     C_R   0.500000 1.000000 0.031331 0.348716
C103  C     C_R   0.500000 0.000000 0.968669 0.348716
C104  C     C_R   0.000000 0.500000 0.665053 0.527957
C105  C     C_R   0.000000 0.500000 0.334947 0.527957
C106  C     C_R   0.500000 0.000000 0.665053 0.527956
C107  C     C_R   0.500000 0.000000 0.334947 0.527957
C108  C     C_R   0.500000 1.000000 0.165053 0.527957
C109  C     C_R   0.500000 0.000000 0.834947 0.527957
C110  C     C_R   0.000000 0.500000 0.165053 0.527956
C111  C     C_R   0.500000 0.000000 0.130787 0.021818
C112  C     C_R   0.000000 0.500000 0.834947 0.527957
C113  C     C_R   0.895471 0.604529 0.750000 0.496589
C114  C     C_R   0.104526 0.395474 0.250000 0.485390
C115  C     C_R   0.395471 0.895471 0.750000 0.496589
C116  C     C_R   0.604526 0.104526 0.250000 0.485389
C117  C     C_R   0.104529 0.395471 0.750000 0.496589
C118  C     C_R   0.895474 0.604526 0.250000 0.485389
C119  C     C_R   0.604529 0.104529 0.750000 0.496589
C120  C     C_R   0.395474 0.895474 0.250000 0.485390
C121  C     C_R   0.895471 0.395471 0.250000 0.496589
C122  C     C_R   0.500000 0.000000 0.369213 0.021818
C123  C     C_R   0.104526 0.604526 0.750000 0.485389
C124  C     C_R   0.395471 0.104529 0.250000 0.496589
C125  C     C_R   0.604526 0.895474 0.750000 0.485390
C126  C     C_R   0.104529 0.604529 0.250000 0.496589
C127  C     C_R   0.895474 0.395474 0.750000 0.485390
C128  C     C_R   0.604529 0.895471 0.250000 0.496589
C129  C     C_R   0.395474 0.104526 0.750000 0.485389
C130  C     C_1   0.149565 0.649565 0.750000 -0.023879
C131  C     C_1   0.850425 0.350425 0.250000 -0.007356
C132  C     C_1   0.350435 0.149565 0.750000 -0.023879
C133  C     C_R   0.500000 1.000000 0.630787 0.021818
C134  C     C_1   0.649575 0.850425 0.250000 -0.007356
C135  C     C_1   0.850435 0.350435 0.750000 -0.023879
C136  C     C_1   0.149575 0.649575 0.250000 -0.007356
C137  C     C_1   0.649565 0.850435 0.750000 -0.023879
C138  C     C_1   0.350425 0.149575 0.250000 -0.007356
C139  C     C_1   0.149565 0.350435 0.250000 -0.023879
C140  C     C_1   0.850425 0.649575 0.750000 -0.007356
C141  C     C_1   0.350435 0.850435 0.250000 -0.023879
C142  C     C_1   0.649575 0.149575 0.750000 -0.007356
C143  C     C_1   0.850435 0.649565 0.250000 -0.023879
C144  C     C_R   0.000000 0.500000 0.369213 0.021818
C145  C     C_1   0.149574 0.350425 0.750000 -0.007356
C146  C     C_1   0.649565 0.149565 0.250000 -0.023879
C147  C     C_1   0.350425 0.850425 0.750000 -0.007356
C148  C     C_1   0.187000 0.687000 0.750000 -0.043456
C149  C     C_1   0.812987 0.312987 0.250000 -0.032849
C150  C     C_1   0.313000 0.187000 0.750000 -0.043456
C151  C     C_1   0.687013 0.812987 0.250000 -0.032849
C152  C     C_1   0.813000 0.313000 0.750000 -0.043456
C153  C     C_1   0.187013 0.687013 0.250000 -0.032849
C154  C     C_1   0.687000 0.813000 0.750000 -0.043456
C155  C     C_R   0.000000 0.500000 0.630787 0.021818
C156  C     C_1   0.312987 0.187013 0.250000 -0.032849
C157  C     C_1   0.187000 0.313000 0.250000 -0.043456
C158  C     C_1   0.812987 0.687013 0.750000 -0.032849
C159  C     C_1   0.313000 0.813000 0.250000 -0.043456
C160  C     C_1   0.687013 0.187013 0.750000 -0.032849
C161  C     C_1   0.813000 0.687000 0.250000 -0.043456
C162  C     C_1   0.187013 0.312987 0.750000 -0.032849
C163  C     C_1   0.687000 0.187000 0.250000 -0.043456
C164  C     C_1   0.312987 0.812987 0.750000 -0.032849
C165  C     C_1   0.231274 0.731274 0.750000 -0.002980
C166  C     C_R   0.009406 0.550781 0.918070 -0.117017
C167  C     C_1   0.768710 0.268710 0.250000 0.000026
C168  C     C_1   0.268726 0.231274 0.750000 -0.002979
C169  C     C_1   0.731289 0.768710 0.250000 0.000026
C170  C     C_1   0.768726 0.268726 0.750000 -0.002980
C171  C     C_1   0.231289 0.731289 0.250000 0.000026
C172  C     C_1   0.731274 0.768726 0.750000 -0.002979
C173  C     C_1   0.268711 0.231289 0.250000 0.000026
C174  C     C_1   0.231274 0.268726 0.250000 -0.002979
C175  C     C_1   0.768710 0.731289 0.750000 0.000026
C176  C     C_1   0.268726 0.768726 0.250000 -0.002980
H1    H     H_    0.016509 0.590619 0.930201 0.156231
H2    H     H_    0.516509 0.909381 0.569799 0.156231
H3    H     H_    0.175731 0.676466 0.643489 0.154624
H4    H     H_    0.416562 0.869954 0.341030 0.174724
H5    H     H_    0.398730 0.936277 0.358859 0.108755
H6    H     H_    0.407928 0.819004 0.391964 0.184426
H7    H     H_    0.386437 0.885471 0.409589 0.160060
H8    H     H_    0.302374 0.891353 0.374039 0.151489
H9    H     H_    0.302010 0.826260 0.396363 0.158637
H10   H     H_    0.323534 0.824269 0.356511 0.154624
H11   H     H_    0.416561 0.130045 0.658970 0.174724
H12   H     H_    0.398730 0.063723 0.641141 0.108755
H13   H     H_    0.909381 0.516509 0.430201 0.156231
H14   H     H_    0.407927 0.180996 0.608036 0.184426
H15   H     H_    0.386436 0.114528 0.590411 0.160060
H16   H     H_    0.302374 0.108646 0.625961 0.151489
H17   H     H_    0.302009 0.173739 0.603637 0.158637
H18   H     H_    0.323533 0.175731 0.643488 0.154624
H19   H     H_    0.130045 0.416561 0.341030 0.174724
H20   H     H_    0.063723 0.398730 0.358859 0.108755
H21   H     H_    0.180996 0.407927 0.391964 0.184425
H22   H     H_    0.114528 0.386436 0.409589 0.160060
H23   H     H_    0.108646 0.302374 0.374039 0.151489
H24   H     H_    0.090619 0.516509 0.569799 0.156231
H25   H     H_    0.173738 0.302009 0.396363 0.158637
H26   H     H_    0.175731 0.323533 0.356512 0.154624
H27   H     H_    0.869954 0.416562 0.658969 0.174724
H28   H     H_    0.936277 0.398730 0.641141 0.108755
H29   H     H_    0.819004 0.407927 0.608036 0.184425
H30   H     H_    0.885472 0.386436 0.590411 0.160060
H31   H     H_    0.891354 0.302374 0.625961 0.151489
H32   H     H_    0.826261 0.302010 0.603637 0.158637
H33   H     H_    0.824269 0.323534 0.643488 0.154623
H34   H     H_    0.483491 0.909381 0.430201 0.156231
H35   H     H_    0.483491 0.090619 0.569799 0.156231
H36   H     H_    0.090619 0.483491 0.430201 0.156231
H37   H     H_    0.909381 0.483491 0.569799 0.156231
H38   H     H_    0.083438 0.630046 0.841030 0.174724
H39   H     H_    0.101270 0.563723 0.858859 0.108755
H40   H     H_    0.092073 0.680996 0.891964 0.184425
H41   H     H_    0.016509 0.409381 0.069799 0.156231
H42   H     H_    0.113563 0.614528 0.909589 0.160060
H43   H     H_    0.197626 0.608646 0.874039 0.151489
H44   H     H_    0.197990 0.673739 0.896363 0.158637
H45   H     H_    0.176466 0.675731 0.856512 0.154623
H46   H     H_    0.083438 0.369955 0.158970 0.174724
H47   H     H_    0.101270 0.436277 0.141141 0.108755
H48   H     H_    0.092073 0.319004 0.108036 0.184425
H49   H     H_    0.113564 0.385472 0.090411 0.160060
H50   H     H_    0.197626 0.391354 0.125961 0.151489
H51   H     H_    0.197991 0.326261 0.103637 0.158637
H52   H     H_    0.409381 0.016509 0.930201 0.156231
H53   H     H_    0.176467 0.324269 0.143488 0.154624
H54   H     H_    0.369955 0.083438 0.841030 0.174724
H55   H     H_    0.436277 0.101270 0.858859 0.108755
H56   H     H_    0.319004 0.092073 0.891964 0.184426
H57   H     H_    0.385472 0.113564 0.909589 0.160060
H58   H     H_    0.391354 0.197626 0.874039 0.151489
H59   H     H_    0.326261 0.197991 0.896363 0.158637
H60   H     H_    0.324269 0.176467 0.856512 0.154624
H61   H     H_    0.630045 0.083438 0.158970 0.174724
H62   H     H_    0.563723 0.101270 0.141141 0.108755
H63   H     H_    0.590619 0.016509 0.069799 0.156231
H64   H     H_    0.680996 0.092072 0.108036 0.184426
H65   H     H_    0.614529 0.113563 0.090411 0.160060
H66   H     H_    0.608647 0.197626 0.125961 0.151489
H67   H     H_    0.673740 0.197990 0.103637 0.158637
H68   H     H_    0.675731 0.176466 0.143488 0.154624
H69   H     H_    0.916562 0.369955 0.841030 0.174724
H70   H     H_    0.898730 0.436277 0.858859 0.108755
H71   H     H_    0.907928 0.319004 0.891964 0.184426
H72   H     H_    0.886437 0.385471 0.909589 0.160060
H73   H     H_    0.802374 0.391353 0.874039 0.151489
H74   H     H_    0.983491 0.409381 0.930201 0.156231
H75   H     H_    0.802010 0.326260 0.896363 0.158637
H76   H     H_    0.823534 0.324269 0.856511 0.154624
H77   H     H_    0.916561 0.630045 0.158970 0.174724
H78   H     H_    0.898730 0.563723 0.141141 0.108755
H79   H     H_    0.907927 0.680996 0.108036 0.184426
H80   H     H_    0.886436 0.614528 0.090411 0.160060
H81   H     H_    0.802374 0.608646 0.125961 0.151489
H82   H     H_    0.802009 0.673739 0.103637 0.158637
H83   H     H_    0.823533 0.675731 0.143488 0.154624
H84   H     H_    0.630045 0.916561 0.841030 0.174724
H85   H     H_    0.983491 0.590619 0.069799 0.156231
H86   H     H_    0.563723 0.898730 0.858859 0.108755
H87   H     H_    0.680996 0.907927 0.891964 0.184426
H88   H     H_    0.614528 0.886436 0.909589 0.160060
H89   H     H_    0.608646 0.802374 0.874039 0.151489
H90   H     H_    0.673738 0.802009 0.896363 0.158637
H91   H     H_    0.675731 0.823533 0.856511 0.154624
H92   H     H_    0.369954 0.916562 0.158970 0.174724
H93   H     H_    0.436277 0.898730 0.141141 0.108755
H94   H     H_    0.319004 0.907927 0.108036 0.184425
H95   H     H_    0.385472 0.886436 0.090411 0.160060
H96   H     H_    0.590619 0.983491 0.930201 0.156231
H97   H     H_    0.391354 0.802374 0.125961 0.151490
H98   H     H_    0.326261 0.802010 0.103637 0.158637
H99   H     H_    0.324269 0.823534 0.143488 0.154623
H100  H     H_    0.583438 0.130046 0.341030 0.174724
H101  H     H_    0.601270 0.063723 0.358859 0.108755
H102  H     H_    0.592073 0.180996 0.391964 0.184425
H103  H     H_    0.613564 0.114528 0.409589 0.160060
H104  H     H_    0.697626 0.108646 0.374039 0.151489
H105  H     H_    0.697990 0.173739 0.396363 0.158637
H106  H     H_    0.676466 0.175731 0.356512 0.154623
H107  H     H_    0.409381 0.983491 0.069799 0.156231
H108  H     H_    0.583438 0.869954 0.658970 0.174724
H109  H     H_    0.601270 0.936277 0.641141 0.108755
H110  H     H_    0.592073 0.819004 0.608036 0.184425
H111  H     H_    0.613564 0.885472 0.590411 0.160060
H112  H     H_    0.697626 0.891354 0.625961 0.151489
H113  H     H_    0.697991 0.826262 0.603637 0.158637
H114  H     H_    0.676467 0.824269 0.643488 0.154624
H115  H     H_    0.869955 0.583438 0.341030 0.174724
H116  H     H_    0.936277 0.601270 0.358859 0.108755
H117  H     H_    0.819004 0.592073 0.391964 0.184426
H118  H     H_    0.516509 0.090619 0.430201 0.156231
H119  H     H_    0.885472 0.613564 0.409589 0.160060
H120  H     H_    0.891354 0.697626 0.374039 0.151489
H121  H     H_    0.826261 0.697991 0.396363 0.158637
H122  H     H_    0.824269 0.676467 0.356512 0.154624
H123  H     H_    0.130045 0.583438 0.658970 0.174724
H124  H     H_    0.063723 0.601270 0.641141 0.108755
H125  H     H_    0.180996 0.592072 0.608036 0.184426
H126  H     H_    0.114529 0.613563 0.590411 0.160060
H127  H     H_    0.108647 0.697626 0.625961 0.151489
H128  H     H_    0.173740 0.697990 0.603637 0.158637
N1    N     N_R   0.999947 0.450066 0.984672 -0.229135
N2    N     N_R   0.499947 0.049934 0.515328 -0.229135
N3    N     N_R   0.049934 0.499947 0.484672 -0.229135
N4    N     N_R   0.950066 0.499947 0.515328 -0.229135
N5    N     N_R   0.500052 0.049934 0.484672 -0.229135
N6    N     N_R   0.500053 0.950066 0.515328 -0.229135
N7    N     N_R   0.950066 0.500053 0.484672 -0.229135
N8    N     N_R   0.049934 0.500052 0.515328 -0.229135
N9    N     N_R   0.999947 0.549934 0.015328 -0.229135
N10   N     N_R   0.549934 0.999947 0.984672 -0.229135
N11   N     N_R   0.450066 0.999947 0.015328 -0.229135
N12   N     N_R   0.000052 0.549934 0.984672 -0.229135
N13   N     N_R   0.000053 0.450066 0.015328 -0.229135
N14   N     N_R   0.450066 0.000053 0.984672 -0.229135
N15   N     N_R   0.549934 0.000052 0.015328 -0.229135
N16   N     N_R   0.499948 0.950066 0.484672 -0.229135
O1    O     O_3   0.000000 0.500000 0.750000 -0.405317
O2    O     O_R   0.044070 0.500000 0.319300 -0.509773
O3    O     O_R   0.500000 0.955930 0.680700 -0.509773
O4    O     O_R   0.500000 0.044070 0.319300 -0.509773
O5    O     O_R   0.544070 1.000000 0.180700 -0.509773
O6    O     O_R   0.455930 0.000000 0.819300 -0.509773
O7    O     O_R   1.000000 0.544070 0.180700 -0.509773
O8    O     O_R   0.000000 0.455930 0.819300 -0.509773
O9    O     O_R   0.455930 1.000000 0.180700 -0.509773
O10   O     O_R   0.544070 0.000000 0.819300 -0.509773
O11   O     O_R   0.000000 0.455930 0.180700 -0.509773
O12   O     O_3   0.000000 0.500000 0.250000 -0.405317
O13   O     O_R   0.000000 0.544070 0.819300 -0.509773
O14   O     O_R   0.893970 0.561970 0.731850 -0.522254
O15   O     O_R   0.106030 0.438030 0.268150 -0.534088
O16   O     O_R   0.438030 0.893970 0.731850 -0.522255
O17   O     O_R   0.561970 0.106030 0.268150 -0.534088
O18   O     O_R   0.106030 0.438030 0.731850 -0.522255
O19   O     O_R   0.893970 0.561970 0.268150 -0.534088
O20   O     O_R   0.561970 0.106030 0.731850 -0.522254
O21   O     O_R   0.438030 0.893970 0.268150 -0.534088
O22   O     O_R   0.893970 0.438030 0.268150 -0.522254
O23   O     O_3   0.500000 0.000000 0.750000 -0.405317
O24   O     O_R   0.106030 0.561970 0.731850 -0.534088
O25   O     O_R   0.438030 0.106030 0.268150 -0.522255
O26   O     O_R   0.561970 0.893970 0.731850 -0.534088
O27   O     O_R   0.106030 0.561970 0.268150 -0.522255
O28   O     O_R   0.893970 0.438030 0.731850 -0.534088
O29   O     O_R   0.561970 0.893970 0.268150 -0.522255
O30   O     O_R   0.438030 0.106030 0.731850 -0.534088
O31   O     O_R   0.393970 0.061970 0.231850 -0.522254
O32   O     O_R   0.606030 0.938030 0.768150 -0.534088
O33   O     O_R   0.938030 0.393970 0.231850 -0.522255
O34   O     O_3   0.500000 0.000000 0.250000 -0.405317
O35   O     O_R   0.061970 0.606030 0.768150 -0.534088
O36   O     O_R   0.606030 0.938030 0.231850 -0.522255
O37   O     O_R   0.393970 0.061970 0.768150 -0.534088
O38   O     O_R   0.061970 0.606030 0.231850 -0.522254
O39   O     O_R   0.938030 0.393970 0.768150 -0.534088
O40   O     O_R   0.393970 0.938030 0.768150 -0.522254
O41   O     O_R   0.606030 0.061970 0.231850 -0.534088
O42   O     O_R   0.938030 0.606030 0.768150 -0.522255
O43   O     O_R   0.061970 0.393970 0.231850 -0.534088
O44   O     O_R   0.606030 0.061970 0.768150 -0.522255
O45   O     O_R   0.044070 0.500000 0.680700 -0.509773
O46   O     O_R   0.393970 0.938030 0.231850 -0.534088
O47   O     O_R   0.061970 0.393970 0.768150 -0.522255
O48   O     O_R   0.938030 0.606030 0.231850 -0.534088
O49   O     O_3   0.021804 0.602154 0.870899 -0.544713
O50   O     O_3   0.021805 0.397846 0.129101 -0.544713
O51   O     O_3   0.397846 0.021805 0.870899 -0.544712
O52   O     O_3   0.602154 0.021804 0.129101 -0.544712
O53   O     O_3   0.978196 0.397846 0.870899 -0.544712
O54   O     O_3   0.978195 0.602154 0.129101 -0.544712
O55   O     O_3   0.602154 0.978195 0.870899 -0.544713
O56   O     O_R   0.955930 0.500000 0.319300 -0.509773
O57   O     O_3   0.397846 0.978196 0.129101 -0.544713
O58   O     O_3   0.521804 0.102154 0.370899 -0.544713
O59   O     O_3   0.521805 0.897846 0.629101 -0.544713
O60   O     O_3   0.897846 0.521805 0.370899 -0.544712
O61   O     O_3   0.102154 0.521804 0.629101 -0.544712
O62   O     O_3   0.478196 0.897846 0.370899 -0.544712
O63   O     O_3   0.478195 0.102154 0.629101 -0.544712
O64   O     O_3   0.102154 0.478195 0.370899 -0.544713
O65   O     O_3   0.897846 0.478196 0.629101 -0.544713
O66   O     O_R   0.500000 0.044070 0.680700 -0.509773
O67   O     O_R   0.500000 0.955930 0.319300 -0.509773
O68   O     O_R   0.955930 0.500000 0.680700 -0.509773
Zn1   Zn    Zn3+2 0.000000 0.562910 0.775990 0.956090
Zn2   Zn    Zn3+2 0.500000 0.937090 0.724010 0.956090
Zn3   Zn    Zn3+2 0.937090 0.500000 0.275990 0.956090
Zn4   Zn    Zn3+2 0.062910 0.500000 0.724010 0.956090
Zn5   Zn    Zn3+2 0.500000 0.937090 0.275990 0.956090
Zn6   Zn    Zn3+2 0.500000 0.062910 0.724010 0.956090
Zn7   Zn    Zn3+2 0.062910 0.500000 0.275990 0.956090
Zn8   Zn    Zn3+2 0.937090 0.500000 0.724010 0.956090
Zn9   Zn    Zn3+2 0.000000 0.437090 0.224010 0.956090
Zn10  Zn    Zn3+2 0.437090 1.000000 0.775990 0.956090
Zn11  Zn    Zn3+2 0.562910 0.000000 0.224010 0.956090
Zn12  Zn    Zn3+2 0.000000 0.437090 0.775990 0.956090
Zn13  Zn    Zn3+2 0.000000 0.562910 0.224010 0.956090
Zn14  Zn    Zn3+2 0.562910 1.000000 0.775990 0.956090
Zn15  Zn    Zn3+2 0.437090 0.000000 0.224010 0.956090
Zn16  Zn    Zn3+2 0.500000 0.062910 0.275990 0.956090

loop_
_geom_bond_atom_site_label_1
_geom_bond_atom_site_label_2
_ccdc_geom_bond_type
C116  O41   A    
C60   H99   S    
O34   Zn11  S    
C132  C150  T    
C14   C95   S    
C12   C91   A    
C74   H5    S    
C103  N10   A    
C82   H22   S    
C34   H39   S    
O38   Zn13  S    
C63   H104  S    
C67   H115  S    
C54   H84   S    
O35   Zn1   S    
C33   O65   S    
C56   H91   S    
C58   O57   S    
C48   H70   S    
O1    Zn8   S    
C112  O8    A    
C106  C133  S    
O2    Zn7   S    
C30   C122  A    
C48   O53   S    
C28   C144  A    
O19   Zn3   S    
N4    N7    A    
C96   N5    A    
C29   C155  A    
C68   H107  S    
O12   Zn9   S    
C32   O64   S    
C127  O39   A    
C126  C136  S    
C9    C46   A    
C148  C165  S    
C80   H16   S    
C91   H34   S    
C112  O13   A    
C45   C47   S    
C88   H13   S    
C156  C173  S    
C51   C52   S    
C102  N15   A    
C114  O15   A    
C60   H97   S    
C72   C73   S    
C26   O58   S    
C123  O24   A    
O36   Zn11  S    
C44   H62   S    
C8    C35   A    
C38   H47   S    
C75   C76   S    
C95   N6    A    
C10   C57   A    
O67   Zn5   S    
C20   C111  A    
C152  C170  S    
C150  C168  S    
C67   O60   S    
C18   O50   S    
C73   H128  S    
O31   Zn15  S    
C166  H1    S    
C109  O6    A    
O12   Zn13  S    
C105  O2    A    
O30   Zn6   S    
C39   H48   S    
C131  C149  T    
O5    Zn11  S    
O28   Zn8   S    
O21   Zn5   S    
C84   O65   S    
C50   H76   S    
C97   N4    A    
C53   H82   S    
C98   N3    A    
C18   C89   A    
C78   H15   S    
C110  O11   A    
C43   H58   S    
O14   Zn8   S    
C86   H31   S    
O41   Zn11  S    
C21   C35   A    
O68   Zn8   S    
C16   C94   A    
C108  C111  S    
C65   H111  S    
C33   C94   A    
C66   H112  S    
C37   H45   S    
C64   C65   S    
C136  C153  T    
C119  O20   A    
C134  C151  T    
C22   C89   A    
O18   Zn4   S    
C69   C70   S    
C71   H123  S    
C32   C144  A    
C49   H72   S    
C129  O37   A    
C6    C163  S    
C139  C157  T    
C27   O59   S    
C4    C161  S    
C37   H44   S    
C51   H78   S    
C143  C161  T    
O1    Zn1   S    
C4    C169  T    
C61   O58   S    
O25   Zn16  S    
O15   Zn7   S    
C114  O43   A    
C86   H33   S    
C19   O51   S    
O39   Zn12  S    
C96   N16   A    
C85   H29   S    
C85   C86   S    
C60   H98   S    
C36   C37   S    
C52   H79   S    
C127  O28   A    
C72   H126  S    
C17   C166  A    
C1    C112  S    
C47   H68   S    
O26   Zn2   S    
C78   C80   S    
C101  N1    A    
C135  C152  T    
N3    N8    A    
C99   N13   A    
C140  C158  T    
C141  C159  T    
O42   Zn1   S    
C64   O59   S    
C56   H90   S    
C124  O31   A    
C157  C174  S    
C23   C100  A    
O20   Zn6   S    
C103  N14   A    
O45   Zn4   S    
C40   H50   S    
O13   Zn1   S    
C83   H26   S    
C126  O38   A    
O44   Zn14  S    
O6    Zn10  S    
C154  C172  S    
C55   H88   S    
C41   H55   S    
C118  C143  S    
C104  O68   A    
C39   C40   S    
O1    Zn12  S    
C71   O61   S    
C89   C110  S    
C35   H74   S    
C30   O62   S    
C59   C60   S    
C128  C134  S    
C81   H19   S    
C64   H108  S    
O33   Zn9   S    
C126  O27   A    
C27   C87   A    
O47   Zn12  S    
C159  C176  S    
C123  C130  S    
C104  O45   A    
O27   Zn7   S    
C62   H103  S    
O46   Zn15  S    
C51   O54   S    
C11   C68   A    
N10   N15   A    
O8    Zn12  S    
C54   C55   S    
N11   N14   A    
C61   H101  S    
C120  C141  S    
C47   H66   S    
C33   C155  A    
C171  C176  T    
C1    C17   A    
C151  C169  S    
C43   H60   S    
C71   C72   S    
C43   H59   S    
C36   H40   S    
C116  C146  S    
C84   H28   S    
C113  O42   A    
C61   H100  S    
C147  C164  T    
C34   C36   S    
C104  C155  S    
C61   C62   S    
C123  O35   A    
C25   C111  A    
C158  C175  S    
C100  C109  S    
C41   H54   S    
C97   N8    A    
C107  O67   A    
C49   C50   S    
C98   N7    A    
C20   O52   S    
C77   H12   S    
C110  O7    A    
C2    C9    A    
C76   H9    S    
C63   H106  S    
C15   C88   A    
C42   H56   S    
C64   H109  S    
C55   C56   S    
C16   C90   A    
C106  O3    A    
O23   Zn14  S    
C41   C42   S    
C149  C167  S    
C121  O22   A    
C105  C144  S    
C77   C78   S    
C52   C53   S    
C46   H85   S    
C80   H17   S    
C124  C138  S    
C10   C103  S    
C127  C135  S    
C42   H57   S    
O34   Zn15  S    
C12   C79   A    
C115  C147  S    
O48   Zn13  S    
C117  C145  S    
C5    C168  T    
C29   C90   A    
C120  O21   A    
C66   H113  S    
C73   H127  S    
C116  O17   A    
O43   Zn9   S    
C8    C101  S    
C31   C133  A    
C128  O36   A    
C129  C132  S    
C7    C165  T    
C44   H61   S    
O23   Zn2   S    
C74   O62   S    
C25   C68   A    
C117  O18   A    
N2    N5    A    
C53   H81   S    
C13   C19   A    
C27   C133  A    
C99   N9    A    
C84   C85   S    
C44   O52   S    
C82   H21   S    
C34   H38   S    
C86   H32   S    
C30   C91   A    
C125  C137  S    
C58   C59   S    
C115  O16   A    
C25   O57   S    
C67   H116  S    
C59   H94   S    
C65   H110  S    
C128  O29   A    
C48   H69   S    
C101  N12   A    
C102  N11   A    
C93   H36   S    
C17   O49   S    
C49   H71   S    
C24   H63   S    
C84   H27   S    
C48   C49   S    
O7    Zn13  S    
C38   O50   S    
C69   H117  S    
C15   C98   S    
C42   C43   S    
C37   H43   S    
O23   Zn6   S    
C36   H42   S    
O66   Zn6   S    
C44   C45   S    
C94   H37   S    
C21   O53   S    
C120  O46   A    
C15   C93   A    
C19   C100  A    
C3    C170  T    
O32   Zn14  S    
C7    C164  S    
C26   C79   A    
C77   O63   S    
O56   Zn3   S    
C5    C162  S    
C38   H46   S    
C52   H80   S    
C81   O64   S    
C87   H2    S    
C47   H67   S    
C38   C39   S    
N6    N16   A    
C107  C122  S    
C137  C154  T    
C11   C102  S    
C39   H49   S    
C82   C83   S    
C125  O32   A    
C58   H92   S    
C108  O5    A    
C119  C142  S    
C12   C96   S    
C26   C122  A    
C54   O55   S    
C50   H75   S    
C1    C21   A    
C53   H83   S    
C2    C18   A    
C78   H14   S    
C83   H25   S    
C75   H7    S    
C113  O14   A    
C13   H52   S    
C81   C82   S    
C173  C174  T    
C58   H93   S    
C62   C63   S    
O9    Zn15  S    
C55   H87   S    
C107  O4    A    
C14   C87   A    
C79   H118  S    
C16   C97   S    
C90   H24   S    
C145  C162  T    
C11   C24   A    
O16   Zn2   S    
C117  O47   A    
C22   O54   S    
C106  O66   A    
C71   H124  S    
O11   Zn9   S    
C70   H121  S    
C20   C24   A    
C28   C88   A    
C2    H41   S    
C69   H119  S    
C108  O9    A    
C70   H120  S    
C95   N2    A    
O4    Zn16  S    
C9    C99   S    
C115  O40   A    
C121  C131  S    
C109  O10   A    
O12   Zn3   S    
C85   H30   S    
N1    N13   A    
C74   C75   S    
O34   Zn5   S    
C130  C148  T    
C54   H86   S    
O3    Zn2   S    
C121  O33   A    
O24   Zn4   S    
C124  O25   A    
N9    N12   A    
C57   H96   S    
C129  O30   A    
C67   C69   S    
C29   O61   S    
O37   Zn10  S    
C31   O63   S    
O17   Zn16  S    
C125  O26   A    
C153  C171  S    
C28   O60   S    
C70   H122  S    
C113  C140  S    
C59   H95   S    
C114  C139  S    
C34   O49   S    
C56   H89   S    
C14   C92   A    
C50   H73   S    
C8    C166  A    
C23   C57   A    
C65   C66   S    
C23   O55   S    
C3    C160  S    
C77   H11   S    
O40   Zn10  S    
C83   H23   S    
C45   H65   S    
C119  O44   A    
C76   H10   S    
C63   H105  S    
C172  C175  T    
O12   Zn7   S    
C138  C156  T    
C6    C167  T    
C22   C46   A    
O10   Zn14  S    
C142  C160  T    
C118  O19   A    
C10   C13   A    
C105  O56   A    
C80   H18   S    
C146  C163  T    
C40   H51   S    
C40   H53   S    
C45   H64   S    
C72   H125  S    
C81   H20   S    
C75   H6    S    
O34   Zn16  S    
C41   O51   S    
C32   C93   A    
O23   Zn10  S    
O1    Zn4   S    
C73   H3    S    
O22   Zn3   S    
C74   H4    S    
C66   H114  S    
C31   C92   A    
C118  O48   A    
O29   Zn5   S    
C92   H35   S    
C62   H102  S    
C76   H8    S    
C51   H77   S    
