data_mof_unit_6685.cif
_audit_creation_date              2013-03-05T15:58:46-0500
_audit_creation_method            fapswitch 2.2
_symmetry_space_group_name_H-M    P1
_symmetry_Int_Tables_number       1
_space_group_crystal_system       triclinic
_cell_length_a                    12.585046
_cell_length_b                    13.11011
_cell_length_c                    13.649009
_cell_angle_alpha                 92.884695
_cell_angle_beta                  95.325708
_cell_angle_gamma                 96.420103
_cell_volume                      2223.98757719

loop_
_atom_site_label
_atom_site_type_symbol
_atom_site_description
_atom_site_fract_x
_atom_site_fract_y
_atom_site_fract_z
_atom_type_partial_charge
O1    O     O_R   0.631100 0.627590 0.523760 -0.629464
O2    O     O_R   0.455900 0.662370 0.491970 -0.575766
C1    C     C_R   0.559483 0.691217 0.510791 0.889338
O3    O     O_R   0.600200 0.480080 0.377830 -0.637286
O4    O     O_R   0.425000 0.514870 0.346040 -0.556140
C2    C     C_R   0.518047 0.497035 0.318417 0.889522
Zn1   Zn    Zn3+2 0.616980 0.476780 0.521230 0.987904
Zn2   Zn    Zn3+2 0.383020 0.523220 0.478770 0.993730
O5    O     O_R   0.544100 0.337630 0.508030 -0.571453
O6    O     O_R   0.368900 0.372410 0.476240 -0.623394
O7    O     O_R   0.575000 0.485130 0.653960 -0.555949
O8    O     O_R   0.399800 0.519920 0.622170 -0.641819
C3    C     C_R   0.440617 0.308920 0.489920 0.883978
C4    C     C_R   0.481664 0.501702 0.681393 0.886969
C5    C     C_1   0.466935 0.496233 0.781384 -0.158518
C6    C     C_2   0.451509 0.485408 0.969344 0.273737
C7    C     C_2   0.544126 0.508582 0.029035 0.021864
C8    C     C_1   0.540527 0.503285 0.132302 0.114600
C9    C     C_1   0.456384 0.490684 0.866393 -0.054104
C10   C     C_1   0.531995 0.499592 0.217937 -0.116815
C11   C     C_R   0.289774 0.069748 0.566128 0.183068
H1    H     H_    0.251836 0.224377 0.547021 0.161227
H2    H     H_    0.324508 0.905439 0.670471 0.146998
C12   C     C_R   0.403591 0.200932 0.493894 -0.080535
C13   C     C_R   0.679712 0.824158 0.446580 -0.313379
C14   C     C_R   0.679276 0.910436 0.390886 0.325019
C15   C     C_R   0.590693 0.967898 0.391494 0.067439
C16   C     C_R   0.525127 0.958307 0.472111 0.037225
C17   C     C_R   0.530207 0.873081 0.531057 0.081739
C18   C     C_R   0.453322 0.029088 0.495017 0.066677
C19   C     C_R   0.369916 0.002811 0.555545 0.128892
C20   C     C_R   0.378112 0.919096 0.614050 -0.250292
C21   C     C_R   0.464631 0.861314 0.610409 0.182322
C22   C     C_R   0.473313 0.130663 0.471922 -0.197418
C23   C     C_R   0.307517 0.169130 0.533228 -0.222057
C24   C     C_R   0.597006 0.799449 0.505799 -0.152798
H3    H     H_    0.549966 0.158442 0.447646 0.181006
H4    H     H_    0.737040 0.770054 0.434727 0.200410
C25   C     C_R   0.900987 0.357274 0.645285 -0.010170
H5    H     H_    0.113681 0.388268 0.704985 0.183758
N1    N     N_R   0.773270 0.445590 0.549770 -0.172006
C26   C     C_R   0.206491 0.598606 0.363783 0.439876
C27   C     C_R   0.104178 0.581882 0.313313 -0.310736
C28   C     C_R   0.020244 0.525884 0.354459 0.122565
C29   C     C_R   0.037625 0.502521 0.455219 -0.014639
C30   C     C_R   0.144762 0.515997 0.501538 0.108574
C31   C     C_R   0.955431 0.464042 0.512339 -0.013834
C32   C     C_R   0.982941 0.408347 0.595658 0.054562
C33   C     C_R   0.091157 0.417256 0.634267 -0.317502
C34   C     C_R   0.162428 0.493923 0.601320 0.215447
C35   C     C_R   0.850050 0.488841 0.497083 -0.129610
C36   C     C_R   0.794425 0.375717 0.618115 0.422477
N2    N     N_R   0.227520 0.553880 0.450750 -0.185857
H6    H     H_    0.829239 0.547426 0.448787 0.159154
H7    H     H_    0.091406 0.609979 0.240324 0.195842
C37   C     C_3   0.650847 0.543204 0.988743 -0.406564
C38   C     C_3   0.748819 0.553084 0.065377 -0.838907
H8    H     H_    0.741787 0.612840 0.124325 0.273603
H9    H     H_    0.756415 0.478191 0.098379 0.257792
H10   H     H_    0.822698 0.575778 0.029316 0.259023
H11   H     H_    0.664972 0.486722 0.929189 0.249274
H12   H     H_    0.645760 0.618820 0.956310 0.215618
C39   C     C_3   0.490780 0.797124 0.697633 -0.447169
C40   C     C_3   0.601539 0.833846 0.751080 -0.821515
H13   H     H_    0.665948 0.821382 0.703066 0.259317
H14   H     H_    0.607126 0.916878 0.774282 0.278307
H15   H     H_    0.614546 0.789828 0.817729 0.247280
H16   H     H_    0.431633 0.802839 0.752664 0.213960
H17   H     H_    0.485686 0.714592 0.675559 0.205604
N3    N     N_R   0.708040 0.321755 0.662642 0.225967
O9    O     O_R   0.687412 0.352588 0.750177 -0.419639
O10   O     O_R   0.671656 0.228579 0.629054 -0.421030
C41   C     C_3   0.925584 0.285354 0.726448 -0.383271
C42   C     C_3   0.943763 0.342380 0.828291 -0.756861
H18   H     H_    0.010201 0.405992 0.831615 0.255599
H19   H     H_    0.870211 0.375143 0.846959 0.283088
H20   H     H_    0.964661 0.287935 0.884772 0.259306
H21   H     H_    0.859355 0.221995 0.726774 0.252360
H22   H     H_    0.997062 0.246247 0.712449 0.199335
N4    N     N_R   0.288008 0.664398 0.323998 0.227616
O11   O     O_R   0.300670 0.653997 0.230661 -0.357654
O12   O     O_R   0.324729 0.751217 0.372046 -0.420814
C43   C     C_3   0.921984 0.483519 0.284344 -0.405241
C44   C     C_3   0.903296 0.366065 0.279559 -0.753114
H23   H     H_    0.977171 0.333333 0.261049 0.271241
H24   H     H_    0.880073 0.337447 0.350509 0.264205
H25   H     H_    0.837194 0.338517 0.221434 0.243698
H26   H     H_    0.848328 0.516608 0.300717 0.202578
H27   H     H_    0.933851 0.505543 0.208164 0.215831
C45   C     C_3   0.202732 0.579273 0.680770 -0.353734
C46   C     C_3   0.223917 0.686567 0.643123 -0.870294
H28   H     H_    0.292129 0.691019 0.597283 0.298747
H29   H     H_    0.151147 0.706715 0.599405 0.252667
H30   H     H_    0.243337 0.743187 0.707149 0.236170
H31   H     H_    0.140022 0.585048 0.732662 0.206759
H32   H     H_    0.273052 0.560239 0.727648 0.228986
N5    N     N_R   0.348676 0.452380 0.003873 0.210264
O13   O     O_R   0.274335 0.398392 0.944050 -0.400906
O14   O     O_R   0.322862 0.487682 0.088128 -0.347845
C47   C     C_3   0.188463 0.040211 0.615346 -0.443160
C48   C     C_3   0.115261 0.954398 0.554718 -0.784683
H33   H     H_    0.090588 0.980356 0.480648 0.284747
H34   H     H_    0.156682 0.884644 0.545761 0.260211
H35   H     H_    0.042080 0.934094 0.592545 0.249904
H36   H     H_    0.208462 0.016934 0.691253 0.207453
H37   H     H_    0.142092 0.107072 0.623264 0.211542
C49   C     C_3   0.554176 0.016299 0.295923 -0.402357
C50   C     C_3   0.439755 0.973084 0.255157 -0.758478
H38   H     H_    0.432425 0.887763 0.247360 0.301466
H39   H     H_    0.379837 0.997124 0.303529 0.270103
H40   H     H_    0.420873 0.002317 0.181336 0.245729
H41   H     H_    0.561851 0.101140 0.302986 0.205734
H42   H     H_    0.605262 0.998279 0.236830 0.251273
N6    N     N_R   0.763647 0.933944 0.328344 0.200788
O15   O     O_R   0.818742 0.862370 0.297830 -0.400778
O16   O     O_R   0.795014 0.029155 0.312397 -0.403510

loop_
_geom_bond_atom_site_label_1
_geom_bond_atom_site_label_2
_geom_bond_distance
_ccdc_geom_bond_type
C26   N4    1.429684 S    
C48   H33   1.110994 S    
C22   H3    1.079788 S    
C41   C42   1.530240 S    
C44   H25   1.110556 S    
C28   C43   1.525367 S    
N5    O13   1.301890 A    
C45   C46   1.525803 S    
C45   H31   1.114435 S    
C29   C30   1.423415 A    
C37   C38   1.530460 S    
C5    C9    1.184957 T    
H1    C23   1.084138 S    
C11   C19   1.421431 A    
C17   C24   1.399716 A    
C14   C15   1.413957 A    
C42   H19   1.108121 S    
C16   C17   1.413051 A    
C44   H24   1.108418 S    
C26   N2    1.367227 A    
C18   C19   1.418356 A    
O7    C4    1.302960 A    
C6    N5    1.446681 S    
C38   H9    1.110672 S    
H5    C33   1.080128 S    
C17   C21   1.425557 A    
C50   H38   1.110918 S    
C49   H41   1.104190 S    
O5    C3    1.311533 A    
C49   H42   1.109394 S    
C34   C45   1.527776 S    
C39   H17   1.101675 S    
C6    C7    1.354353 D    
C42   H20   1.110259 S    
C31   C32   1.418915 A    
C41   H21   1.109478 S    
N3    O9    1.300275 A    
N1    C36   1.369177 A    
Zn2   O8    1.952231 S    
Zn1   N1    2.059460 S    
C25   C36   1.408449 A    
C48   H34   1.109114 S    
O3    Zn1   1.952229 S    
N5    O14   1.300634 A    
N6    O15   1.301727 A    
C29   C31   1.415959 A    
C41   H22   1.110745 S    
C43   H27   1.111864 S    
C12   C23   1.397958 A    
C42   H18   1.108982 S    
C18   C22   1.384937 A    
C40   H15   1.110709 S    
C44   H23   1.110968 S    
N4    O12   1.300055 A    
C46   H28   1.106341 S    
C11   C47   1.517105 S    
C38   H10   1.110444 S    
C31   C35   1.399958 A    
C13   C14   1.394440 A    
C12   C22   1.382146 A    
C3    C12   1.445438 S    
O1    C1    1.301115 A    
C40   H14   1.110963 S    
Zn1   O7    1.934881 S    
C27   C28   1.395834 A    
C14   N6    1.439686 S    
C13   H4    1.083690 S    
C46   H29   1.110439 S    
C43   C44   1.528621 S    
C4    C5    1.398558 S    
C15   C49   1.533850 S    
C21   C39   1.524433 S    
C7    C8    1.419357 S    
C47   H36   1.109269 S    
C7    C37   1.529137 S    
C27   H7    1.083722 S    
C32   C33   1.403957 A    
O8    C4    1.300681 A    
C48   H35   1.110365 S    
C37   H12   1.111712 S    
O3    C2    1.299946 A    
C26   C27   1.391954 A    
C49   C50   1.530108 S    
C28   C29   1.426390 A    
Zn1   O5    1.940034 S    
C39   H16   1.111063 S    
O1    Zn1   1.963481 S    
C19   C20   1.396805 A    
O2    Zn2   1.940034 S    
N4    O11   1.300772 A    
O6    C3    1.301790 A    
Zn2   N2    2.046958 S    
O4    Zn2   1.934881 S    
N6    O16   1.301687 A    
C45   H32   1.102354 S    
C11   C23   1.400537 A    
C2    C10   1.400292 S    
C30   C34   1.409213 A    
C47   H37   1.112279 S    
C50   H40   1.110557 S    
C35   H6    1.075608 S    
H2    C20   1.078648 S    
C16   C18   1.409326 A    
O2    C1    1.313842 A    
C40   H13   1.109364 S    
C46   H30   1.108564 S    
C38   H8    1.110940 S    
O4    C2    1.304754 A    
C1    C24   1.451500 S    
C6    C9    1.416998 S    
C30   N2    1.365628 A    
C47   C48   1.527141 S    
C50   H39   1.108375 S    
C43   H26   1.102727 S    
C8    C10   1.186533 T    
C25   C41   1.522765 S    
C20   C21   1.397361 A    
C36   N3    1.430281 S    
C13   C24   1.395985 A    
C39   C40   1.527328 S    
Zn2   O6    1.963478 S    
C33   C34   1.391309 A    
C15   C16   1.437612 A    
C37   H11   1.111905 S    
N3    O10   1.300611 A    
N1    C35   1.349026 A    
C25   C32   1.411313 A    
