data_mof_unit_32486.cif
_audit_creation_date              2012-10-26T20:00:34-0400
_audit_creation_method            fapswitch 2.2
_symmetry_space_group_name_H-M    P1
_symmetry_Int_Tables_number       1
_space_group_crystal_system       triclinic
_cell_length_a                    11.698034
_cell_length_b                    12.964835
_cell_length_c                    13.438747
_cell_angle_alpha                 92.627495
_cell_angle_beta                  76.788096
_cell_angle_gamma                 99.745134
_cell_volume                      1955.5288213

loop_
_atom_site_label
_atom_site_type_symbol
_atom_type_description
_atom_site_fract_x
_atom_site_fract_y
_atom_site_fract_z
_atom_type_partial_charge
C1    C     C_R   0.521849 0.700610 0.498474 0.537326
C2    C     C_R   0.400503 0.474792 0.807871 -0.013424
C3    C     C_R   0.466616 0.185752 0.494426 -0.004914
C4    C     C_R   0.436623 0.488086 0.695661 0.545104
C5    C     C_R   0.533597 0.814066 0.498716 -0.027073
C6    C     C_R   0.615481 0.980236 0.562918 -0.130087
C7    C     C_R   0.608362 0.872633 0.555848 -0.141105
C8    C     C_R   0.467981 0.864260 0.445355 -0.005360
C9    C     C_R   0.455146 0.969138 0.471361 0.082431
C10   C     C_R   0.538593 0.028762 0.522288 0.022594
C11   C     C_R   0.544763 0.136476 0.531863 -0.101786
C12   C     C_R   0.450414 0.465164 0.974667 -0.002823
C13   C     C_R   0.374339 0.126362 0.456172 -0.132027
C14   C     C_R   0.362917 0.017303 0.449660 0.030492
C15   C     C_R   0.948757 0.603996 0.588674 -0.188756
C16   C     C_R   0.479063 0.299216 0.498185 0.543628
C17   C     C_R   0.829302 0.593092 0.581265 0.028628
C18   C     C_R   0.855827 0.452496 0.462733 0.161068
C19   C     C_R   0.976923 0.460461 0.468668 0.020574
C20   C     C_R   0.023644 0.537849 0.531940 -0.007998
C21   C     C_R   0.144687 0.546944 0.536530 0.045664
C22   C     C_R   0.171221 0.404818 0.421117 0.038549
C23   C     C_R   0.481702 0.454856 0.866834 0.014031
C24   C     C_R   0.053108 0.394047 0.412469 -0.142255
C25   C     C_R   0.562245 0.496408 0.304481 0.535469
C26   C     C_R   0.746259 0.481629 0.036071 -0.126376
C27   C     C_R   0.595879 0.479376 0.193497 -0.000269
C28   C     C_R   0.286513 0.493215 0.857928 -0.167011
C29   C     C_R   0.255068 0.502015 0.964173 0.012627
C30   C     C_R   0.338631 0.492365 0.021399 -0.088562
C31   C     C_3   0.246888 0.956291 0.429778 -0.230440
C32   C     C_3   0.138283 0.979702 0.511084 -0.326420
C33   C     C_3   0.023668 0.912248 0.494534 -0.443012
C34   C     C_R   0.536129 0.456189 0.032188 0.045089
C35   C     C_2   0.439417 0.815339 0.349143 0.202697
C36   C     C_2   0.808238 0.372699 0.394323 0.274195
C37   C     C_3   0.400587 0.359117 0.187920 -0.249578
C38   C     C_3   0.383108 0.259982 0.121878 -0.305645
C39   C     C_3   0.288878 0.174777 0.180801 -0.446766
C40   C     C_2   0.136022 0.526406 0.013957 0.220833
C41   C     C_R   0.656590 0.460620 0.981044 0.038821
C42   C     C_R   0.684126 0.440044 0.876650 -0.143575
C43   C     C_R   0.594950 0.427735 0.822219 -0.120325
C44   C     C_R   0.507322 0.440735 0.138713 -0.009924
C45   C     C_R   0.715797 0.499052 0.141199 -0.139862
Cu1   Cu    Cu3+1 0.386470 0.492430 0.492410 0.918921
Cu2   Cu    Cu3+1 0.613530 0.507570 0.507590 0.943543
H1    H     H_    0.785851 0.523633 0.181895 0.146435
H2    H     H_    0.773784 0.430763 0.837610 0.110489
H3    H     H_    0.839261 0.489010 0.997375 0.114551
H4    H     H_    0.223492 0.506357 0.813822 0.114549
H5    H     H_    0.317845 0.511600 0.101733 0.162697
H6    H     H_    0.618264 0.398703 0.745065 0.157730
H7    H     H_    0.611125 0.182138 0.567873 0.153673
H8    H     H_    0.008926 0.927710 0.418190 0.171483
H9    H     H_    0.028352 0.827907 0.500092 0.157240
H10   H     H_    0.946886 0.931170 0.553956 0.146324
H11   H     H_    0.150215 0.963663 0.588345 0.167547
H12   H     H_    0.309459 0.164936 0.433043 0.113670
H13   H     H_    0.128626 0.063209 0.508235 0.164992
H14   H     H_    0.237579 0.976503 0.352840 0.173425
H15   H     H_    0.244923 0.870796 0.431981 0.170014
H16   H     H_    0.432270 0.731734 0.335899 0.149250
H17   H     H_    0.786262 0.395280 0.325468 0.123275
H18   H     H_    0.318378 0.149541 0.247312 0.156085
H19   H     H_    0.203035 0.204046 0.207983 0.153334
H20   H     H_    0.275022 0.105903 0.130143 0.165068
H21   H     H_    0.353898 0.277802 0.052567 0.176275
H22   H     H_    0.468549 0.229362 0.097544 0.180946
H23   H     H_    0.677380 0.024943 0.603942 0.117321
H24   H     H_    0.415289 0.331485 0.260301 0.164676
H25   H     H_    0.317686 0.393188 0.207893 0.145953
H26   H     H_    0.074162 0.537523 0.967771 0.089121
H27   H     H_    0.662137 0.835183 0.594349 0.126051
H28   H     H_    0.181880 0.606015 0.585045 0.116402
H29   H     H_    0.227109 0.351198 0.380521 0.110524
H30   H     H_    0.982360 0.664050 0.638268 0.089311
H31   H     H_    0.022889 0.333306 0.362132 0.138870
H32   H     H_    0.772704 0.644706 0.625222 0.132088
N1    N     N_R   0.215880 0.481050 0.481000 -0.227908
N2    N     N_R   0.784100 0.518950 0.519000 -0.252787
O1    O     O_R   0.419710 0.645650 0.494620 -0.521024
O2    O     O_2   0.797476 0.279814 0.412960 -0.540158
O3    O     O_2   0.105222 0.533859 0.106823 -0.523399
O4    O     O_R   0.611450 0.658430 0.507430 -0.496219
O5    O     O_R   0.357340 0.490460 0.641450 -0.498079
O6    O     O_R   0.549080 0.503250 0.654260 -0.514672
O7    O     O_R   0.388550 0.341570 0.492570 -0.521919
O8    O     O_R   0.580290 0.354350 0.505380 -0.485277
O9    O     O_R   0.450920 0.496750 0.345740 -0.510176
O10   O     O_R   0.642660 0.509540 0.358550 -0.522184
O11   O     O_2   0.430807 0.869342 0.279936 -0.512475

loop_
_geom_bond_atom_site_label_1
_geom_bond_atom_site_label_2
_ccdc_geom_bond_type
C33   H8    S    
C39   H18   S    
C41   C42   A    
C31   H14   S    
C19   C20   A    
C32   H11   S    
C14   C31   S    
C4    O6    A    
C12   C23   A    
C25   O9    A    
C29   C30   A    
C1    C5    S    
Cu2   O4    S    
C28   C29   A    
C26   H3    S    
C38   C39   S    
C28   H4    S    
C4    O5    A    
C36   O2    D    
C17   H32   S    
C18   N2    A    
C23   C43   A    
C40   H26   S    
C21   N1    A    
C15   C17   A    
C18   C19   A    
C40   O3    D    
C26   C45   A    
Cu1   O1    S    
C27   C44   A    
C43   H6    S    
C8    C9    A    
C22   H29   S    
C9    C10   A    
C3    C13   A    
C35   O11   D    
C27   C45   A    
C33   H9    S    
C38   H22   S    
C16   O8    A    
C13   C14   A    
Cu2   O8    S    
C31   H15   S    
C34   C41   A    
Cu2   O10   S    
C7    H27   S    
Cu1   O7    S    
C1    O4    A    
C15   C20   A    
C25   O10   A    
C34   C44   A    
C5    C7    A    
C1    O1    A    
C8    C35   S    
Cu2   O6    S    
C2    C4    S    
C9    C14   A    
C37   C38   S    
C31   C32   S    
C11   H7    S    
C13   H12   S    
C24   H31   S    
C38   H21   S    
C37   H24   S    
C39   H19   S    
C22   C24   A    
C42   C43   A    
C32   H13   S    
C12   C34   A    
C45   H1    S    
C6    H23   S    
C30   H5    S    
Cu1   Cu2   S    
C33   H10   S    
C12   C30   A    
C39   H20   S    
C6    C10   A    
C5    C8    A    
C2    C28   A    
C6    C7    A    
Cu1   O9    S    
C25   C27   S    
C21   H28   S    
C32   C33   S    
C37   C44   S    
C19   C24   A    
C22   N1    A    
Cu1   N1    S    
C15   H30   S    
C29   C40   S    
C17   N2    A    
Cu2   N2    S    
C3    C11   A    
C10   C11   A    
C42   H2    S    
C20   C21   A    
C37   H25   S    
C2    C23   A    
C16   O7    A    
C35   H16   S    
C36   H17   S    
C18   C36   S    
C3    C16   S    
C26   C41   A    
Cu1   O5    S    
