data_mof_unit_12678.cif
_audit_creation_date              2012-12-11T15:28:38-0500
_audit_creation_method            fapswitch 2.2
_symmetry_space_group_name_H-M    P1
_symmetry_Int_Tables_number       1
_space_group_crystal_system       triclinic
_cell_length_a                    6.946185
_cell_length_b                    19.508496
_cell_length_c                    23.268709
_cell_angle_alpha                 95.673748
_cell_angle_beta                  91.195775
_cell_angle_gamma                 88.575845
_cell_volume                      3136.18017055

loop_
_atom_site_label
_atom_site_type_symbol
_atom_type_description
_atom_site_fract_x
_atom_site_fract_y
_atom_site_fract_z
_atom_type_partial_charge
O1    O     O_R   0.617180 0.809390 0.808140 -0.525213
O2    O     O_R   0.382820 0.190610 0.191860 -0.524649
O3    O     O_R   0.293300 0.672410 0.795490 -0.528079
O4    O     O_R   0.706700 0.327590 0.204510 -0.525795
O5    O     O_R   0.117220 0.690610 0.691850 -0.521267
O6    O     O_R   0.882780 0.309390 0.308150 -0.523591
C1    C     C_R   0.465321 0.646668 0.804466 0.798491
C2    C     C_R   0.534907 0.353156 0.195394 0.798941
O7    O     O_R   0.287840 0.807750 0.814460 -0.520804
O8    O     O_R   0.712160 0.192250 0.185540 -0.520680
O9    O     O_R   0.111720 0.826910 0.710960 -0.530974
O10   O     O_R   0.888280 0.173090 0.289040 -0.536337
C3    C     C_R   0.456479 0.830932 0.833085 0.728437
C4    C     C_R   0.543563 0.169720 0.166471 0.724355
O11   O     O_R   0.622680 0.673080 0.789040 -0.542164
O12   O     O_R   0.377320 0.326920 0.210960 -0.544962
O13   O     O_3   0.448820 0.756130 0.716020 -0.361320
O14   O     O_3   0.551180 0.243870 0.283980 -0.362436
V1    V     V_3+5 0.176220 0.748860 0.756300 1.422990
V2    V     V_3+5 0.823780 0.251140 0.243700 1.426238
O15   O     O_R   0.781670 0.827580 0.704500 -0.541270
O16   O     O_R   0.218330 0.172420 0.295500 -0.532197
C5    C     C_R   0.947872 0.852944 0.694855 0.715459
C6    C     C_R   0.052096 0.147702 0.306055 0.709905
O17   O     O_R   0.787130 0.692240 0.685530 -0.529121
O18   O     O_R   0.212870 0.307760 0.314470 -0.528504
C7    C     C_R   0.956147 0.669048 0.666894 0.708532
C8    C     C_R   0.043944 0.330743 0.333253 0.708744
V3    V     V_3+5 0.675510 0.751130 0.743690 1.390276
V4    V     V_3+5 0.324490 0.248870 0.256310 1.397300
O19   O     O_3   0.952780 0.743870 0.783980 -0.355727
O20   O     O_3   0.047220 0.256130 0.216020 -0.355058
C9    C     C_1   0.966756 0.616784 0.615003 -0.211214
C10   C     C_1   0.033950 0.382468 0.385514 -0.209481
C11   C     C_1   0.978494 0.573125 0.572284 -0.003504
C12   C     C_1   0.023137 0.425715 0.428539 -0.005831
C13   C     C_1   0.994285 0.521194 0.521796 -0.002162
C14   C     C_1   0.007892 0.477421 0.479204 -0.004484
C15   C     C_R   0.951063 0.918557 0.667214 -0.131319
C16   C     C_R   0.052916 0.083338 0.335743 -0.128349
C17   C     C_R   0.946420 0.044884 0.673293 0.097788
C18   C     C_R   0.108875 0.958574 0.335390 0.095456
C19   C     C_R   0.922961 0.982851 0.699993 0.054302
C20   C     C_R   0.085735 0.018253 0.304757 0.055956
C21   C     C_R   0.989680 0.916151 0.608242 -0.211823
C22   C     C_R   0.031487 0.088167 0.395832 -0.213928
C23   C     C_R   0.017904 0.976499 0.580307 0.062287
C24   C     C_R   0.065946 0.030993 0.428462 0.065302
C25   C     C_R   0.990435 0.041195 0.613082 0.009810
C26   C     C_R   0.105945 0.965904 0.397266 0.013652
C27   C     C_R   0.066688 0.974218 0.520089 -0.094822
C28   C     C_R   0.056867 0.035745 0.490979 -0.090707
C29   C     C_R   0.049685 0.099379 0.526390 0.455076
C30   C     C_R   0.138063 0.913411 0.488489 0.449658
C31   C     C_R   0.011124 0.101229 0.585074 -0.277231
C32   C     C_R   0.148159 0.909248 0.428716 -0.273485
H1    H     H_    0.999687 0.151960 0.607934 0.157511
H2    H     H_    0.195264 0.859988 0.408032 0.158778
H3    H     H_    0.984135 0.137714 0.415464 0.179177
H4    H     H_    0.988803 0.865801 0.584638 0.172555
C33   C     C_R   0.492663 0.582886 0.834076 -0.269338
C34   C     C_R   0.513363 0.417657 0.166616 -0.257627
C35   C     C_R   0.684831 0.477316 0.839299 0.486565
C36   C     C_R   0.384665 0.535206 0.167660 0.511834
C37   C     C_R   0.596498 0.526594 0.806158 -0.092026
C38   C     C_R   0.440026 0.478168 0.197653 -0.107696
C39   C     C_R   0.446905 0.583067 0.892736 0.470822
C40   C     C_R   0.542885 0.416341 0.106776 0.476637
C41   C     C_R   0.540655 0.535290 0.927888 -0.106513
C42   C     C_R   0.524740 0.478405 0.078572 -0.124339
C43   C     C_R   0.655791 0.480678 0.899932 -0.227304
C44   C     C_R   0.436248 0.537350 0.109040 -0.228960
C45   C     C_R   0.520236 0.538888 0.989675 -0.145960
C46   C     C_R   0.582667 0.482470 0.020122 -0.153556
C47   C     C_R   0.722314 0.436940 0.993396 0.462044
C48   C     C_R   0.465340 0.600104 0.023656 0.440444
C49   C     C_R   0.744266 0.431381 0.933504 0.368216
C50   C     C_R   0.407855 0.598305 0.081152 0.385846
C51   C     C_1   0.467470 0.883410 0.884834 -0.209409
C52   C     C_1   0.533577 0.118559 0.113811 -0.204333
C53   C     C_1   0.479653 0.927350 0.927350 -0.011287
C54   C     C_1   0.523038 0.075570 0.070588 -0.011869
C55   C     C_1   0.495201 0.979671 0.977574 -0.004662
C56   C     C_1   0.508323 0.023723 0.019989 -0.008974
O21   O     O_3   0.855243 0.402547 0.025917 -0.508753
C57   C     C_3   0.001518 0.448685 0.045419 -0.207426
H5    H     H_    0.942743 0.497985 0.067036 0.099376
H6    H     H_    0.094328 0.459199 0.009053 0.128193
H7    H     H_    0.092694 0.424773 0.077959 0.149672
O22   O     O_3   0.494572 0.663771 0.004274 -0.516083
C58   C     C_3   0.685090 0.683328 0.018503 -0.210170
H8    H     H_    0.791785 0.643935 0.000444 0.097238
H9    H     H_    0.706277 0.693062 0.066113 0.139736
H10   H     H_    0.712754 0.731997 0.999474 0.161096
C59   C     C_3   0.089563 0.012499 0.238963 -0.365142
C60   C     C_3   0.296883 0.003882 0.217005 -0.311277
C61   C     C_3   0.300092 0.971244 0.154700 -0.753616
H11   H     H_    0.236831 0.919230 0.151428 0.225322
H12   H     H_    0.216999 0.004004 0.126115 0.237415
H13   H     H_    0.451219 0.965627 0.140062 0.223028
H14   H     H_    0.364383 0.055112 0.219725 0.195674
H15   H     H_    0.386738 0.971237 0.244059 0.188922
H16   H     H_    0.997071 0.969586 0.221030 0.174434
H17   H     H_    0.022162 0.058186 0.221070 0.157751
C62   C     C_3   0.861228 0.984167 0.762710 -0.382202
C63   C     C_3   0.035791 0.982613 0.804135 -0.318417
C64   C     C_3   0.972156 0.983132 0.866558 -0.739610
H18   H     H_    0.880993 0.029605 0.879015 0.224989
H19   H     H_    0.889594 0.936221 0.871941 0.233305
H20   H     H_    0.100529 0.983913 0.895772 0.222891
H21   H     H_    0.125138 0.935446 0.792841 0.201558
H22   H     H_    0.127257 0.027801 0.800499 0.185034
H23   H     H_    0.765711 0.029303 0.775281 0.173320
H24   H     H_    0.768784 0.939836 0.768286 0.176236
C65   C     C_3   0.927367 0.114716 0.709161 -0.373197
C66   C     C_3   0.726644 0.147622 0.701155 -0.323844
C67   C     C_3   0.707764 0.217419 0.736757 -0.733120
H25   H     H_    0.728881 0.211324 0.783442 0.218430
H26   H     H_    0.816051 0.253335 0.723298 0.240321
H27   H     H_    0.561681 0.239986 0.729992 0.216414
H28   H     H_    0.698268 0.154847 0.654972 0.198104
H29   H     H_    0.615029 0.113120 0.714909 0.189965
H30   H     H_    0.955184 0.110765 0.755691 0.178660
H31   H     H_    0.042320 0.149611 0.698571 0.164221
C68   C     C_3   0.131791 0.886863 0.302289 -0.377978
C69   C     C_3   0.946036 0.845991 0.303615 -0.315914
C70   C     C_3   0.969450 0.774202 0.271577 -0.736831
H32   H     H_    0.004141 0.777939 0.225620 0.228762
H33   H     H_    0.086287 0.744617 0.292071 0.240636
H34   H     H_    0.833041 0.746009 0.273176 0.218324
H35   H     H_    0.905165 0.840553 0.348781 0.203445
H36   H     H_    0.826663 0.874107 0.282781 0.193109
H37   H     H_    0.168468 0.888359 0.256554 0.193993
H38   H     H_    0.257264 0.858383 0.319254 0.167661
O23   O     O_3   0.092561 0.161284 0.506094 -0.565488
C71   C     C_3   0.294346 0.168327 0.508144 -0.262655
H39   H     H_    0.367721 0.126569 0.480020 0.144132
H40   H     H_    0.351917 0.169510 0.553249 0.138895
H41   H     H_    0.328907 0.217998 0.491755 0.168867
O24   O     O_3   0.212251 0.857888 0.515039 -0.563191
C72   C     C_3   0.403094 0.872237 0.533578 -0.243368
H42   H     H_    0.408516 0.917735 0.566400 0.142130
H43   H     H_    0.495969 0.880178 0.496476 0.136652
H44   H     H_    0.463446 0.827331 0.554226 0.165952
O25   O     O_3   0.867812 0.380408 0.909119 -0.527007
C73   C     C_3   0.770544 0.317392 0.903244 -0.130727
H45   H     H_    0.636790 0.320739 0.876315 0.125995
H46   H     H_    0.736448 0.300406 0.946065 0.148574
H47   H     H_    0.866333 0.277319 0.881003 0.142087
O26   O     O_3   0.346316 0.658905 0.112393 -0.514341
C74   C     C_3   0.172568 0.683376 0.088080 -0.130230
H48   H     H_    0.075510 0.641171 0.070944 0.064486
H49   H     H_    0.202528 0.716803 0.053558 0.176890
H50   H     H_    0.093505 0.715440 0.122313 0.135643
O27   O     O_3   0.584500 0.353176 0.076473 -0.527917
C75   C     C_3   0.413833 0.326645 0.050143 -0.249096
H51   H     H_    0.357254 0.359480 0.016883 0.143259
H52   H     H_    0.302278 0.320196 0.082725 0.136340
H53   H     H_    0.447142 0.274909 0.027896 0.159128
O28   O     O_3   0.309433 0.630455 0.914694 -0.521626
C76   C     C_3   0.127310 0.600117 0.908160 -0.215729
H54   H     H_    0.119033 0.554778 0.933465 0.108109
H55   H     H_    0.017299 0.638680 0.924844 0.153525
H56   H     H_    0.090616 0.585618 0.861877 0.119983
C77   C     C_3   0.423633 0.483045 0.263159 -0.318680
C78   C     C_3   0.622077 0.493223 0.292411 -0.318960
C79   C     C_3   0.606420 0.501113 0.358044 -0.745826
H57   H     H_    0.505774 0.544342 0.372216 0.231574
H58   H     H_    0.554565 0.452755 0.373311 0.230686
H59   H     H_    0.750052 0.512599 0.377848 0.224063
H60   H     H_    0.719549 0.448602 0.279503 0.189034
H61   H     H_    0.686939 0.540385 0.278635 0.201808
H62   H     H_    0.328932 0.526937 0.279567 0.209852
H63   H     H_    0.355826 0.436565 0.276849 0.165430
C80   C     C_3   0.607636 0.517867 0.740363 -0.319082
C81   C     C_3   0.408532 0.503645 0.712438 -0.331859
C82   C     C_3   0.418382 0.496654 0.646659 -0.744184
H64   H     H_    0.466006 0.545592 0.631401 0.231355
H65   H     H_    0.520211 0.454230 0.631451 0.229983
H66   H     H_    0.273540 0.484725 0.627797 0.222818
H67   H     H_    0.353714 0.455046 0.726517 0.196305
H68   H     H_    0.304538 0.546015 0.726026 0.185873
H69   H     H_    0.668837 0.564307 0.724481 0.168985
H70   H     H_    0.704799 0.474292 0.724852 0.209946
O29   O     O_3   0.795065 0.424331 0.811592 -0.533376
C83   C     C_3   0.984966 0.447252 0.806576 -0.194997
H71   H     H_    0.055359 0.458880 0.849645 0.156481
H72   H     H_    0.989822 0.493139 0.781851 0.084989
H73   H     H_    0.070779 0.405347 0.782798 0.155625
O30   O     O_3   0.289531 0.590735 0.197127 -0.520548
C84   C     C_3   0.090128 0.577781 0.195107 -0.220293
H74   H     H_    0.056329 0.530958 0.216338 0.103843
H75   H     H_    0.033027 0.572534 0.150015 0.123638
H76   H     H_    0.013382 0.622170 0.218647 0.165545

loop_
_geom_bond_atom_site_label_1
_geom_bond_atom_site_label_2
_ccdc_geom_bond_type
C68   H38   S    
C84   H75   S    
C3    C51   S    
C21   H4    S    
C78   H61   S    
O30   C84   S    
O11   V3    S    
C60   H15   S    
C22   H3    S    
O13   V3    S    
C45   C46   A    
C59   C60   S    
C29   O23   S    
C43   C49   A    
O4    C2    A    
C40   O27   S    
V1    O19   S    
C61   H13   S    
C35   C37   A    
O25   C73   S    
O22   C58   S    
O23   C71   S    
C79   H58   S    
C63   H22   S    
O21   C57   S    
C28   C29   A    
C16   C22   A    
O9    V1    S    
C77   C78   S    
C66   H29   S    
C62   H23   S    
C75   H51   S    
C11   C13   S    
C48   C50   A    
O3    C1    A    
C67   H26   S    
C9    C11   T    
C57   H6    S    
C63   C64   S    
O12   V4    S    
C65   C66   S    
C66   C67   S    
O7    V1    S    
C19   C62   S    
C74   H50   S    
C41   C43   A    
O7    C3    A    
C1    C33   S    
C44   C50   A    
C18   C68   S    
C53   C55   S    
O5    C7    A    
C75   H52   S    
C47   O21   S    
O6    C8    A    
C55   C56   T    
O8    V2    S    
C82   H65   S    
C42   C46   A    
C64   H18   S    
O3    V1    S    
C39   O28   S    
O14   V4    S    
C4    C52   S    
C16   C20   A    
C10   C12   T    
C15   C21   A    
C24   C26   A    
C8    C10   S    
C78   H60   S    
C2    O12   A    
C60   H14   S    
C37   C80   S    
C74   H49   S    
C17   C19   A    
C78   C79   S    
C18   C20   A    
C17   C65   S    
C71   H41   S    
C17   C25   A    
C76   H55   S    
C59   H16   S    
C61   H11   S    
C79   H59   S    
C73   H46   S    
C63   H21   S    
C29   C31   A    
O15   C5    A    
O17   V3    S    
C81   H67   S    
C30   C32   A    
O27   C75   S    
C65   H30   S    
C66   H28   S    
C34   C38   A    
C84   H74   S    
C62   H24   S    
O24   C72   S    
C23   C25   A    
C61   H12   S    
C72   H44   S    
C79   H57   S    
C51   C53   T    
C57   H5    S    
C30   O24   S    
C15   C19   A    
C1    O11   A    
C35   O29   S    
C77   H63   S    
C25   C31   A    
O15   V3    S    
C26   C32   A    
C27   C28   A    
C39   C41   A    
C36   C38   A    
C81   H68   S    
C70   H33   S    
C45   C48   A    
C13   C14   T    
C58   H9    S    
C73   H47   S    
C33   C39   A    
C36   O30   S    
C80   C81   S    
C69   H36   S    
C74   H48   S    
C82   H66   S    
C60   C61   S    
O10   V2    S    
O1    V3    S    
C41   C45   A    
C47   C49   A    
C18   C26   A    
C52   C54   T    
C81   C82   S    
C35   C43   A    
O18   V4    S    
C54   C56   S    
C31   H1    S    
O8    C4    A    
C68   C69   S    
C64   H20   S    
O16   C6    A    
C67   H27   S    
O1    C3    A    
C83   H72   S    
C12   C14   S    
C49   O25   S    
C58   H8    S    
C76   H56   S    
C59   H17   S    
C50   O26   S    
C71   H40   S    
C80   H69   S    
C73   H45   S    
V2    O20   S    
C68   H37   S    
C6    C16   S    
C65   H31   S    
O16   V4    S    
C38   C77   S    
C75   H53   S    
C71   H39   S    
C57   H7    S    
C23   C27   A    
O5    V1    S    
O17   C7    A    
O6    V2    S    
C62   C63   S    
O10   C6    A    
O18   C8    A    
C34   C40   A    
O2    V4    S    
C27   C30   A    
O28   C76   S    
C83   H73   S    
C72   H43   S    
C84   H76   S    
V3    O19   S    
C20   C59   S    
C76   H54   S    
C67   H25   S    
C58   H10   S    
V4    O20   S    
O29   C83   S    
C64   H19   S    
C69   H35   S    
C69   C70   S    
C5    C15   S    
O9    C5    A    
O13   V1    S    
C32   H2    S    
O14   V2    S    
C36   C44   A    
O2    C4    A    
C70   H34   S    
O4    V2    S    
C22   C24   A    
C33   C37   A    
C24   C28   A    
C21   C23   A    
C46   C47   A    
C40   C42   A    
C82   H64   S    
C2    C34   S    
C7    C9    S    
O26   C74   S    
C42   C44   A    
C83   H71   S    
C72   H42   S    
C77   H62   S    
C70   H32   S    
C48   O22   S    
C80   H70   S    
