data_mof_unit_21709.cif
_audit_creation_date              2012-12-10T17:35:03-0500
_audit_creation_method            fapswitch 2.2
_symmetry_space_group_name_H-M    P1
_symmetry_Int_Tables_number       1
_space_group_crystal_system       triclinic
_cell_length_a                    12.324921
_cell_length_b                    13.385411
_cell_length_c                    13.868829
_cell_angle_alpha                 105.549148
_cell_angle_beta                  73.74317
_cell_angle_gamma                 116.599091
_cell_volume                      1936.70301714

loop_
_atom_site_label
_atom_site_type_symbol
_atom_type_description
_atom_site_fract_x
_atom_site_fract_y
_atom_site_fract_z
_atom_type_partial_charge
C1    C     C_R   0.145212 0.712195 0.504548 0.780378
C2    C     C_1   0.974760 0.506830 0.791825 -0.170345
C3    C     C_R   0.745510 0.971034 0.431258 0.467628
C4    C     C_R   0.775253 0.167185 0.470087 -0.123120
C5    C     C_R   0.177732 0.912296 0.527466 -0.189556
C6    C     C_R   0.252087 0.026937 0.534301 -0.168279
C7    C     C_R   0.379645 0.064142 0.514746 -0.194870
C8    C     C_R   0.436636 0.986161 0.483150 0.111138
C9    C     C_R   0.360154 0.868586 0.465932 0.087786
C10   C     C_R   0.566928 0.020791 0.468294 0.020417
C11   C     C_R   0.618196 0.938248 0.437214 0.046078
C12   C     C_R   0.984147 0.504288 0.686440 0.817851
C13   C     C_R   0.542896 0.825309 0.408914 -0.222973
C14   C     C_R   0.417514 0.792412 0.417384 -0.214982
C15   C     C_R   0.647916 0.134923 0.486006 -0.260267
C16   C     C_R   0.823904 0.085321 0.440344 -0.277889
C17   C     C_R   0.229288 0.831826 0.496969 -0.103781
C18   C     C_R   0.630197 0.660628 0.670903 -0.320520
C19   C     C_R   0.251236 0.351655 0.364387 -0.019473
C20   C     C_R   0.348818 0.317330 0.335432 0.446481
C21   C     C_R   0.450169 0.375946 0.385004 -0.298789
C22   C     C_R   0.451508 0.465180 0.467109 -0.071708
C23   C     C_R   0.856162 0.287268 0.485046 0.831123
C24   C     C_R   0.347192 0.494210 0.495802 0.254115
C25   C     C_R   0.550668 0.524825 0.523277 0.000442
C26   C     C_R   0.539652 0.606967 0.610038 0.160665
C27   C     C_R   0.438057 0.634735 0.636085 -0.290132
C28   C     C_R   0.344967 0.580851 0.579314 -0.149153
C29   C     C_R   0.660466 0.506176 0.498340 0.017752
C30   C     C_R   0.734051 0.636300 0.643708 0.058265
C31   C     C_R   0.015899 0.495765 0.313552 0.812398
C32   C     C_1   0.025595 0.493583 0.208183 -0.162458
C33   C     C_2   0.041390 0.490156 0.014077 -0.161512
C34   C     C_2   0.959439 0.510796 0.985954 -0.153194
C35   C     C_1   0.967144 0.508844 0.880490 0.010531
C36   C     C_1   0.033483 0.491858 0.119528 0.014221
Cu1   Cu    Cu3+1 0.899780 0.525060 0.522890 0.938898
Cu2   Cu    Cu3+1 0.100220 0.474940 0.477110 0.923311
H1    H     H_    0.886178 0.529105 0.041882 0.163692
H2    H     H_    0.368861 0.707030 0.381852 0.191567
H3    H     H_    0.803265 0.675654 0.691353 0.133344
H4    H     H_    0.430359 0.699172 0.701203 0.153320
H5    H     H_    0.620458 0.720773 0.739197 0.145788
H6    H     H_    0.677596 0.446650 0.432875 0.126215
H7    H     H_    0.174311 0.308275 0.324513 0.155210
H8    H     H_    0.525166 0.348738 0.358646 0.151557
H9    H     H_    0.271890 0.609029 0.604842 0.205869
H10   H     H_    0.114636 0.471821 0.958151 0.159824
H11   H     H_    0.922396 0.109477 0.429926 0.171654
H12   H     H_    0.581443 0.762271 0.376793 0.186126
H13   H     H_    0.614598 0.200994 0.511646 0.165866
H14   H     H_    0.079032 0.886438 0.547253 0.169452
H15   H     H_    0.430025 0.154639 0.524224 0.128118
H16   H     H_    0.210427 0.087833 0.557731 0.143658
N1    N     N_R   0.748810 0.563010 0.557590 -0.185451
N2    N     N_R   0.250540 0.437620 0.443020 -0.240590
O1    O     O_R   0.025040 0.682470 0.528790 -0.583818
O2    O     O_R   0.194310 0.640150 0.490130 -0.611961
O3    O     O_R   0.903380 0.524130 0.659910 -0.572479
O4    O     O_R   0.072660 0.481800 0.621240 -0.589388
O5    O     O_R   0.805690 0.359850 0.509870 -0.588330
O6    O     O_R   0.974960 0.317530 0.471210 -0.591900
O7    O     O_R   0.927340 0.518200 0.378760 -0.577694
O8    O     O_R   0.096620 0.475870 0.340090 -0.580619
O9    O     O_3   0.347308 0.230494 0.254297 -0.575574
C37   C     C_3   0.324183 0.133500 0.292012 -0.294308
H17   H     H_    0.237069 0.109499 0.349562 0.154671
H18   H     H_    0.403074 0.145875 0.324487 0.164243
H19   H     H_    0.313005 0.061496 0.227817 0.198854
O10   O     O_3   0.794911 0.892766 0.418979 -0.623033
C38   C     C_3   0.783254 0.868684 0.516000 0.059377
H20   H     H_    0.804137 0.793031 0.502709 0.190601
H21   H     H_    0.686831 0.845658 0.559667 0.145051
C39   C     C_3   0.874607 0.967126 0.579426 -0.389158
H22   H     H_    0.969585 0.992159 0.533558 0.219890
H23   H     H_    0.850280 0.041557 0.601012 0.220668
C40   C     C_3   0.871779 0.936269 0.678432 -0.915424
H24   H     H_    0.778312 0.915212 0.726607 0.256725
H25   H     H_    0.938985 0.009510 0.721063 0.261109
H26   H     H_    0.897610 0.863494 0.662679 0.250802

loop_
_geom_bond_atom_site_label_1
_geom_bond_atom_site_label_2
_ccdc_geom_bond_type
C19   N2    A    
C2    C35   T    
C37   H18   S    
C28   H9    S    
C19   C20   A    
C18   C26   A    
C2    C12   S    
C7    C8    A    
C40   H24   S    
C26   C27   A    
C39   H23   S    
C32   C36   T    
C10   C15   A    
C5    C6    A    
C37   H19   S    
C5    C17   A    
C33   C36   S    
C34   C35   S    
C13   C14   A    
Cu2   O2    S    
C12   O3    A    
C23   O6    A    
C8    C9    A    
C39   C40   S    
C5    H14   S    
O10   C38   S    
C18   C30   A    
C15   H13   S    
C37   H17   S    
C21   C22   A    
C6    H16   S    
Cu1   O7    S    
Cu2   O8    S    
C40   H25   S    
C25   C29   A    
C39   H22   S    
C34   H1    S    
C31   O7    A    
C20   O9    S    
C3    O10   S    
C16   H11   S    
C38   H21   S    
C4    C23   S    
C29   N1    A    
C25   C26   A    
C22   C25   A    
C12   O4    A    
C4    C16   A    
C9    C14   A    
Cu1   Cu2   S    
C1    O1    A    
C31   C32   S    
C33   C34   D    
C30   H3    S    
Cu1   O3    S    
Cu2   O4    S    
C9    C17   A    
C29   H6    S    
C22   C24   A    
C7    H15   S    
C21   H8    S    
C40   H26   S    
C31   O8    A    
C24   C28   A    
C38   C39   S    
Cu1   O5    S    
C19   H7    S    
C6    C7    A    
C24   N2    A    
C30   N1    A    
C1    C17   S    
C4    C15   A    
C38   H20   S    
C1    O2    A    
C11   C13   A    
C27   H4    S    
C3    C11   A    
C10   C11   A    
C14   H2    S    
C13   H12   S    
Cu1   N1    S    
C23   O5    A    
Cu2   N2    S    
C20   C21   A    
C8    C10   A    
O9    C37   S    
C27   C28   A    
C33   H10   S    
C18   H5    S    
Cu1   O1    S    
C3    C16   A    
Cu2   O6    S    
