data_mof_unit_24063.cif
_audit_creation_date              2012-12-10T17:31:12-0500
_audit_creation_method            fapswitch 2.2
_symmetry_space_group_name_H-M    P1
_symmetry_Int_Tables_number       1
_space_group_crystal_system       triclinic
_cell_length_a                    12.072117
_cell_length_b                    12.776091
_cell_length_c                    15.394375
_cell_angle_alpha                 85.844386
_cell_angle_beta                  116.790753
_cell_angle_gamma                 95.349976
_cell_volume                      2109.00681194

loop_
_atom_site_label
_atom_site_type_symbol
_atom_type_description
_atom_site_fract_x
_atom_site_fract_y
_atom_site_fract_z
_atom_type_partial_charge
C1    C     C_R   0.475208 0.299552 0.497171 0.957154
C2    C     C_R   0.663598 0.968827 0.582697 0.133981
C3    C     C_R   0.348504 0.141271 0.417239 0.530018
C4    C     C_R   0.655611 0.861221 0.569390 0.538502
C5    C     C_R   0.558213 0.130216 0.547724 -0.307624
C6    C     C_R   0.440431 0.869382 0.447136 -0.309796
C7    C     C_R   0.556228 0.025226 0.530778 0.026361
C8    C     C_R   0.444537 0.975664 0.460401 0.023692
C9    C     C_R   0.029808 0.626521 0.444594 -0.339767
C10   C     C_R   0.977688 0.379918 0.566651 -0.320003
C11   C     C_R   0.143129 0.610310 0.444844 -0.002342
C12   C     C_R   0.524372 0.700523 0.501276 0.940476
C13   C     C_R   0.861272 0.393352 0.561773 0.022486
C14   C     C_R   0.148178 0.442227 0.522264 0.357818
C15   C     C_R   0.852198 0.559044 0.478970 0.350313
C16   C     C_R   0.577737 0.494565 0.681172 0.977770
C17   C     C_R   0.421951 0.502427 0.319143 0.985428
C18   C     C_R   0.032577 0.455604 0.523780 0.016830
C19   C     C_R   0.970920 0.548138 0.481926 0.010910
C20   C     C_R   0.626751 0.480957 0.786937 -0.392451
C21   C     C_R   0.370401 0.497477 0.213669 -0.366528
C22   C     C_R   0.774215 0.411343 0.944139 0.129685
C23   C     C_R   0.638730 0.443744 0.118034 0.645757
C24   C     C_R   0.222868 0.545121 0.048961 0.153330
C25   C     C_R   0.737650 0.432593 0.844678 0.518473
C26   C     C_R   0.261829 0.545104 0.149767 0.458901
C27   C     C_R   0.551673 0.505286 0.828240 0.619772
C28   C     C_R   0.437947 0.448739 0.177200 0.619334
C29   C     C_R   0.572972 0.465215 0.920728 -0.103467
C30   C     C_R   0.418569 0.470051 0.081535 -0.122708
C31   C     C_R   0.693002 0.432091 0.984748 -0.182693
C32   C     C_R   0.301181 0.506243 0.013524 -0.165935
C33   C     C_R   0.478995 0.464335 0.951668 -0.109357
C34   C     C_R   0.351848 0.467998 0.884408 0.657360
C35   C     C_R   0.511911 0.456376 0.051752 -0.124519
C36   C     C_3   0.926995 0.508696 0.189517 -0.673796
C37   C     C_3   0.114161 0.584768 0.767966 -0.604313
C38   C     C_3   0.872689 0.248709 0.014654 -0.656999
C39   C     C_3   0.124330 0.704707 0.972973 -0.686394
C40   C     C_3   0.143181 0.939913 0.372846 -0.789858
C41   C     C_3   0.851739 0.071116 0.604028 -0.771194
C42   C     C_3   0.726259 0.668980 0.338410 -0.701530
C43   C     C_3   0.154548 0.259475 0.497234 -0.716600
C44   C     C_R   0.726557 0.425552 0.085557 0.111990
C45   C     C_R   0.264861 0.496864 0.913358 0.119160
C46   C     C_R   0.542935 0.812446 0.503910 -0.208180
C47   C     C_R   0.456583 0.187893 0.490200 -0.205577
C48   C     C_R   0.339465 0.033477 0.404663 0.144111
F1    F     F_    0.513661 0.372870 0.233108 -0.596595
F2    F     F_    0.461640 0.573872 0.780033 -0.620822
F3    F     F_    0.194389 0.592031 0.184736 -0.685975
F4    F     F_    0.810952 0.405585 0.805084 -0.645485
F5    F     F_    0.683431 0.458240 0.214659 -0.658169
F6    F     F_    0.310536 0.437733 0.791445 -0.679388
F7    F     F_    0.755366 0.803871 0.622860 -0.679696
F8    F     F_    0.255302 0.200920 0.355332 -0.691890
H1    H     H_    0.820470 0.333680 0.594184 0.161976
H2    H     H_    0.927142 0.557583 0.126848 0.246332
H3    H     H_    0.095927 0.430910 0.815249 0.261172
H4    H     H_    0.012347 0.592583 0.727167 0.240752
H5    H     H_    0.148624 0.565096 0.715791 0.265831
H6    H     H_    0.159496 0.661429 0.800234 0.231154
H7    H     H_    0.956468 0.400941 0.054586 0.256672
H8    H     H_    0.965642 0.216146 0.050659 0.236222
H9    H     H_    0.817137 0.209359 0.944393 0.244883
H10   H     H_    0.825897 0.231694 0.062316 0.228973
H11   H     H_    0.037414 0.568729 0.001033 0.251245
H12   H     H_    0.185754 0.671572 0.415317 0.161637
H13   H     H_    0.201650 0.727550 0.953545 0.231094
H14   H     H_    0.037003 0.733063 0.913602 0.242705
H15   H     H_    0.143540 0.743141 0.041298 0.255448
H16   H     H_    0.182240 0.030102 0.271632 0.276045
H17   H     H_    0.109328 0.003377 0.398604 0.254209
H18   H     H_    0.190472 0.883278 0.434264 0.244299
H19   H     H_    0.062084 0.897165 0.315109 0.240473
H20   H     H_    0.830136 0.972965 0.709128 0.273178
H21   H     H_    0.883111 0.012015 0.571847 0.254246
H22   H     H_    0.934777 0.114280 0.659593 0.236301
H23   H     H_    0.990546 0.701219 0.415854 0.160149
H24   H     H_    0.797163 0.128664 0.546171 0.250267
H25   H     H_    0.845905 0.720066 0.476992 0.225531
H26   H     H_    0.791967 0.682657 0.305985 0.216399
H27   H     H_    0.669646 0.738238 0.320142 0.218574
H28   H     H_    0.663206 0.599800 0.304710 0.306145
H29   H     H_    0.228218 0.329575 0.631383 0.258100
H30   H     H_    0.065062 0.229188 0.496553 0.208140
H31   H     H_    0.218665 0.194938 0.524103 0.246020
H32   H     H_    0.136904 0.283051 0.421521 0.300060
H33   H     H_    0.023425 0.310065 0.604441 0.164264
H34   H     H_    0.356121 0.828970 0.394668 0.211021
H35   H     H_    0.640935 0.169432 0.603154 0.208661
H36   H     H_    0.857624 0.361018 0.213508 0.267388
H37   H     H_    0.024149 0.490397 0.239362 0.272659
H38   H     H_    0.891671 0.554041 0.229627 0.257209
N1    N     N_R   0.799120 0.480200 0.517090 -0.100319
N2    N     N_2   0.209749 0.348025 0.560085 -0.275482
N3    N     N_R   0.200880 0.519800 0.482910 -0.106541
N4    N     N_2   0.851186 0.411581 0.156281 -0.308105
N5    N     N_2   0.138184 0.502911 0.843234 -0.251385
N6    N     N_2   0.886994 0.360818 0.997623 -0.254031
N7    N     N_2   0.110527 0.591645 0.984989 -0.240649
N8    N     N_2   0.226971 0.984354 0.333949 -0.295885
N9    N     N_2   0.778099 0.019455 0.649315 -0.299227
N10   N     N_2   0.791329 0.654197 0.443268 -0.272219
O1    O     O_R   0.580150 0.341050 0.504560 -0.625094
O2    O     O_R   0.419850 0.658950 0.495440 -0.637957
O3    O     O_R   0.388090 0.353760 0.493600 -0.577472
O4    O     O_R   0.611910 0.646240 0.506400 -0.564032
O5    O     O_R   0.650890 0.490020 0.640860 -0.569639
O6    O     O_R   0.349110 0.509980 0.359140 -0.570100
O7    O     O_R   0.458830 0.502730 0.629890 -0.544988
O8    O     O_R   0.541170 0.497270 0.370110 -0.571468
Zn1   Zn    Zn3+2 0.628240 0.491510 0.507320 1.040898
Zn2   Zn    Zn3+2 0.371760 0.508490 0.492680 1.028304

loop_
_geom_bond_atom_site_label_1
_geom_bond_atom_site_label_2
_ccdc_geom_bond_type
C12   O2    A    
C21   C26   A    
C27   C29   A    
H3    N5    S    
C32   C45   A    
C14   C18   A    
C2    C7    A    
C42   H26   S    
C17   O6    A    
C41   H24   S    
C8    C48   A    
C37   H6    S    
H36   N4    S    
C7    C8    A    
C4    C46   A    
C15   C19   A    
C5    C47   A    
C41   H21   S    
C30   C35   A    
O2    Zn2   S    
C43   H32   S    
O1    Zn1   S    
C24   C26   A    
C18   C19   A    
C36   H2    S    
C15   N1    A    
C3    F8    S    
H29   N2    S    
C13   H1    S    
C20   C25   A    
C29   C33   A    
C3    C48   A    
C40   H17   S    
C24   N7    S    
C9    H23   S    
C44   N4    S    
C36   H37   S    
C9    C19   A    
C38   H10   S    
C10   H33   S    
C22   C25   A    
C23   F5    S    
C15   N10   S    
O6    Zn2   S    
C27   F2    S    
O5    Zn1   S    
H20   N9    S    
N1    Zn1   S    
C14   N2    S    
O8    Zn1   S    
C16   O5    A    
C39   N7    S    
C38   H8    S    
C22   N6    S    
C22   C31   A    
C42   H28   S    
C38   N6    S    
C31   C44   A    
C41   H22   S    
C5    C7    A    
C1    C47   S    
C6    C8    A    
C6    H34   S    
C17   C21   S    
C23   C44   A    
C41   N9    S    
O4    Zn1   S    
C2    C4    A    
C24   C32   A    
O3    Zn2   S    
H7    N6    S    
C43   N2    S    
C28   F1    S    
C38   H9    S    
C16   C20   S    
C48   N8    S    
C33   C34   A    
C39   H13   S    
C34   C45   A    
C9    C11   A    
C5    H35   S    
C1    O3    A    
C12   C46   S    
C21   C28   A    
C13   N1    A    
C34   F6    S    
C23   C35   A    
C4    F7    S    
C45   N5    S    
C17   O8    A    
C37   N5    S    
C11   H12   S    
H11   N7    S    
C14   N3    A    
C12   O4    A    
C6    C46   A    
C43   H30   S    
C42   H27   S    
C10   C13   A    
C42   N10   S    
C37   H5    S    
C20   C27   A    
C40   H19   S    
C11   N3    A    
C43   H31   S    
C28   C30   A    
C25   F4    S    
C29   C31   A    
C26   F3    S    
C30   C32   A    
H16   N8    S    
C2    N9    S    
C10   C18   A    
C3    C47   A    
C33   C35   A    
C39   H14   S    
C40   H18   S    
O7    Zn2   S    
C37   H4    S    
C40   N8    S    
C36   H38   S    
C39   H15   S    
C36   N4    S    
N3    Zn2   S    
C16   O7    A    
C1    O1    A    
H25   N10   S    
