data_mof_unit_32609.cif
_audit_creation_date              2012-12-11T14:56:27-0500
_audit_creation_method            fapswitch 2.2
_symmetry_space_group_name_H-M    P1
_symmetry_Int_Tables_number       1
_space_group_crystal_system       triclinic
_cell_length_a                    10.582151
_cell_length_b                    10.675183
_cell_length_c                    17.138506
_cell_angle_alpha                 80.883676
_cell_angle_beta                  89.462124
_cell_angle_gamma                 119.355679
_cell_volume                      1657.60769865

loop_
_atom_site_label
_atom_site_type_symbol
_atom_type_description
_atom_site_fract_x
_atom_site_fract_y
_atom_site_fract_z
_atom_type_partial_charge
C1    C     C_R   0.222841 0.854681 0.128683 0.579489
C2    C     C_R   0.799547 0.419833 0.263066 -0.142399
C3    C     C_R   0.794194 0.420258 0.182341 0.025913
C4    C     C_R   0.657070 0.360936 0.152193 0.011569
C5    C     C_1   0.669022 0.848921 0.205410 -0.031618
C6    C     C_1   0.680520 0.838875 0.274779 -0.030940
C7    C     C_1   0.180253 0.826004 0.211059 -0.023037
C8    C     C_1   0.150842 0.819249 0.279713 -0.045932
C9    C     C_1   0.644364 0.323606 0.778178 -0.047709
C10   C     C_1   0.651380 0.345921 0.707656 -0.057121
C11   C     C_R   0.631614 0.715439 0.803986 -0.133001
C12   C     C_R   0.637200 0.283728 0.085321 0.567734
C13   C     C_R   0.620719 0.698759 0.725977 -0.123595
C14   C     C_R   0.669554 0.821796 0.665250 0.037423
C15   C     C_R   0.736174 0.962416 0.682442 -0.161244
C16   C     C_R   0.745839 0.979264 0.760973 -0.143428
C17   C     C_R   0.688110 0.854988 0.821833 0.029198
C18   C     C_R   0.093630 0.896011 0.791703 -0.109846
C19   C     C_R   0.098096 0.912721 0.710083 0.014882
C20   C     C_R   0.117211 0.811032 0.672717 0.034920
C21   C     C_R   0.141612 0.705342 0.718708 -0.149256
C22   C     C_R   0.158962 0.707067 0.798760 -0.131180
C23   C     C_R   0.640340 0.858671 0.125419 0.550937
C24   C     C_R   0.141757 0.808122 0.834056 0.016729
C25   C     C_R   0.686877 0.809441 0.357098 0.554983
C26   C     C_R   0.689887 0.396545 0.394118 0.546352
C27   C     C_R   0.103677 0.810038 0.359164 0.550362
C28   C     C_R   0.677630 0.800287 0.585395 0.542503
C29   C     C_R   0.678896 0.383092 0.624556 0.542965
C30   C     C_R   0.086892 0.799316 0.590560 0.548299
C31   C     C_R   0.214270 0.856480 0.903483 0.553095
C32   C     C_R   0.637401 0.284164 0.860922 0.554025
C33   C     C_R   0.646901 0.867062 0.899236 0.547693
C34   C     C_R   0.533312 0.338380 0.199554 -0.018517
C35   C     C_R   0.541500 0.335565 0.281169 -0.120782
C36   C     C_R   0.672821 0.371653 0.313159 -0.014211
Cr1   Cr    Cr6+3 0.402240 0.783890 0.019450 1.034354
Cr2   Cr    Cr6+3 0.382360 0.097900 0.991800 1.010701
Cr3   Cr    Cr6+3 0.715380 0.118170 0.988700 1.045818
Cr4   Cr    Cr6+3 0.936650 0.882420 0.465510 1.013353
Cr5   Cr    Cr6+3 0.605770 0.565620 0.493360 1.009205
Cr6   Cr    Cr6+3 0.921340 0.550490 0.496380 1.022951
H1    H     H_    0.153740 0.625887 0.692012 0.133468
H2    H     H_    0.194082 0.636040 0.831508 0.138706
H3    H     H_    0.447103 0.309204 0.319927 0.137848
H4    H     H_    0.904860 0.463570 0.286309 0.173075
H5    H     H_    0.587103 0.618926 0.850483 0.129130
H6    H     H_    0.575798 0.589539 0.713086 0.136147
H7    H     H_    0.779534 0.057962 0.635408 0.121908
H8    H     H_    0.788770 0.088181 0.773960 0.143588
H9    H     H_    0.075078 0.969520 0.820827 0.135598
O1    O     O_R   0.521780 0.757110 0.108900 -0.519896
O2    O     O_R   0.513330 0.228330 0.898660 -0.502594
O3    O     O_R   0.739230 0.266130 0.888050 -0.507891
O4    O     O_R   0.712580 0.991850 0.918770 -0.510197
O5    O     O_3   0.499990 0.999980 0.999980 -0.258797
O6    O     O_R   0.083770 0.911170 0.376030 -0.510147
O7    O     O_R   0.808770 0.880340 0.383890 -0.492787
O8    O     O_R   0.584340 0.689460 0.394160 -0.510915
O9    O     O_R   0.614320 0.443940 0.423590 -0.503402
O10   O     O_R   0.805020 0.410040 0.421340 -0.520981
O11   O     O_R   0.049240 0.685450 0.403290 -0.497717
O12   O     O_R   0.275160 0.783810 0.101120 -0.464353
O13   O     O_R   0.077520 0.903010 0.551800 -0.535265
O14   O     O_R   0.802980 0.872780 0.546830 -0.517420
O15   O     O_R   0.578090 0.681300 0.569920 -0.520492
O16   O     O_R   0.608530 0.436370 0.586530 -0.511238
O17   O     O_R   0.798770 0.401880 0.597100 -0.512729
O18   O     O_R   0.043450 0.677890 0.566230 -0.501795
O19   O     O_3   0.821250 0.666180 0.485090 -0.254638
O20   O     O_R   0.237900 0.972600 0.090980 -0.529701
O21   O     O_R   0.511190 0.220540 0.061620 -0.527582
O22   O     O_R   0.736920 0.257720 0.063840 -0.475198
O23   O     O_R   0.710450 0.984050 0.081720 -0.493846
O24   O     O_R   0.524090 0.765520 0.933110 -0.518846
O25   O     O_R   0.277300 0.791600 0.938160 -0.515328
O26   O     O_R   0.240210 0.981010 0.915190 -0.518736
C37   C     C_3   0.392986 0.315182 0.164980 -0.262957
C38   C     C_3   0.321330 0.389947 0.201482 -0.413933
H10   H     H_    0.262655 0.326309 0.260663 0.149051
H11   H     H_    0.403979 0.502713 0.207337 0.191889
H12   H     H_    0.240269 0.395762 0.162680 0.191651
H13   H     H_    0.416452 0.363134 0.100577 0.169385
H14   H     H_    0.314031 0.196133 0.173078 0.181320
C39   C     C_3   0.096079 0.049051 0.668011 -0.253080
C40   C     C_3   0.247374 0.166880 0.628538 -0.393214
H15   H     H_    0.324579 0.202533 0.674469 0.153180
H16   H     H_    0.290095 0.126378 0.585206 0.175757
H17   H     H_    0.242004 0.263090 0.596931 0.131490
H18   H     H_    0.012591 0.024616 0.625848 0.196442
H19   H     H_    0.063768 0.099029 0.710777 0.118805
C41   C     C_2   0.932860 0.483494 0.130694 0.583099
O27   O     O_2   0.038898 0.482239 0.157668 -0.547761
O28   O     O_R   0.942368 0.545755 0.051149 -0.692538
H20   H     H_    0.040035 0.579502 0.021407 0.342800

loop_
_geom_bond_atom_site_label_1
_geom_bond_atom_site_label_2
_ccdc_geom_bond_type
C33   O4    A    
C30   O13   A    
C11   H5    S    
C19   C20   A    
C39   H19   S    
C7    C8    T    
Cr5   O16   S    
C20   C30   S    
C39   C40   S    
C2    H4    S    
C1    O20   A    
Cr4   O19   S    
C18   C24   A    
C26   O10   A    
C16   H8    S    
C18   C19   A    
C5    C6    T    
C40   H16   S    
Cr3   O3    S    
C15   C16   A    
Cr6   O19   S    
C34   C35   A    
Cr3   O23   S    
C9    C32   S    
C21   H1    S    
Cr1   O5    S    
C37   H13   S    
C33   O24   A    
C22   H2    S    
C35   C36   A    
C16   C17   A    
C12   O22   A    
C4    C12   S    
C9    C10   T    
Cr6   O11   S    
Cr3   O4    S    
C15   H7    S    
Cr1   O24   S    
C1    C7    S    
C21   C22   A    
Cr6   O17   S    
C17   C33   S    
C1    O12   A    
C32   O3    A    
Cr1   O12   S    
C18   H9    S    
C31   O26   A    
C4    C34   A    
Cr2   O21   S    
Cr4   O7    S    
Cr5   O8    S    
C27   O6    A    
C38   H11   S    
Cr1   O1    S    
C40   H15   S    
Cr6   O18   S    
C3    C41   S    
C23   O1    A    
C28   O15   A    
C27   O11   A    
C38   H12   S    
C29   O17   A    
Cr3   O5    S    
C5    C23   S    
C41   O28   S    
Cr6   O10   S    
C26   C36   S    
Cr1   O25   S    
Cr4   O14   S    
C22   C24   A    
C25   O7    A    
C23   O23   A    
C3    C4    A    
C35   H3    S    
C32   O2    A    
C30   O18   A    
C2    C36   A    
Cr2   O20   S    
C11   C17   A    
Cr4   O6    S    
C37   C38   S    
Cr5   O9    S    
C19   C39   S    
C40   H17   S    
C13   H6    S    
C39   H18   S    
Cr5   O15   S    
Cr2   O26   S    
Cr4   O13   S    
C2    C3    A    
C24   C31   S    
C29   O16   A    
C34   C37   S    
C11   C13   A    
C10   C29   S    
C31   O25   A    
Cr2   O2    S    
C41   O27   D    
C28   O14   A    
Cr3   O22   S    
C12   O21   A    
O28   H20   S    
C38   H10   S    
C6    C25   S    
C37   H14   S    
Cr2   O5    S    
C20   C21   A    
C8    C27   S    
C14   C15   A    
C25   O8    A    
C14   C28   S    
C13   C14   A    
C26   O9    A    
Cr5   O19   S    
