data_mof_unit_11680.cif
_audit_creation_date              2013-03-05T16:11:33-0500
_audit_creation_method            fapswitch 2.2
_symmetry_space_group_name_H-M    P1
_symmetry_Int_Tables_number       1
_space_group_crystal_system       triclinic
_cell_length_a                    10.669539
_cell_length_b                    9.850024
_cell_length_c                    15.740652
_cell_angle_alpha                 89.97773
_cell_angle_beta                  90.148966
_cell_angle_gamma                 90.016358
_cell_volume                      1654.26142653

loop_
_atom_site_label
_atom_site_type_symbol
_atom_site_description
_atom_site_fract_x
_atom_site_fract_y
_atom_site_fract_z
_atom_type_partial_charge
O1    O     O_R   0.316750 0.614620 0.499990 -0.599434
O2    O     O_R   0.316750 0.385380 0.499990 -0.594114
C1    C     C_R   0.260035 0.499978 0.499917 0.998843
O3    O     O_R   0.499990 0.614720 0.377140 -0.582121
O4    O     O_R   0.499990 0.385280 0.377140 -0.628995
C2    C     C_R   0.500226 0.500056 0.338259 0.939593
Zn1   Zn    Zn3+2 0.499980 0.653120 0.500000 1.013444
Zn2   Zn    Zn3+2 0.499980 0.346880 0.500000 1.012415
O5    O     O_R   0.683220 0.614710 0.500000 -0.626775
O6    O     O_R   0.683220 0.385290 0.500000 -0.623204
O7    O     O_R   0.499980 0.614620 0.622860 -0.626450
O8    O     O_R   0.499980 0.385380 0.622860 -0.595156
C3    C     C_R   0.739659 0.500014 0.499980 0.901661
C4    C     C_R   0.500421 0.499991 0.661780 0.935537
C5    C     C_3   0.390504 0.582621 0.048861 -0.391171
C6    C     C_3   0.497166 0.357584 0.049362 -0.393031
C7    C     C_3   0.495987 0.355997 0.951554 -0.358591
C8    C     C_3   0.394194 0.587548 0.950869 -0.366992
H1    H     H_    0.304336 0.547491 0.924904 0.203342
H2    H     H_    0.407826 0.307805 0.928475 0.203273
H3    H     H_    0.303309 0.530209 0.069682 0.213021
H4    H     H_    0.408651 0.310722 0.072697 0.197609
H5    H     H_    0.573492 0.292158 0.074147 0.246256
H6    H     H_    0.385786 0.687502 0.074830 0.232043
H7    H     H_    0.575562 0.293457 0.928017 0.208713
H8    H     H_    0.403338 0.694774 0.929395 0.214649
C9    C     C_1   0.502016 0.500117 0.750664 -0.113585
C10   C     C_3   0.507591 0.505860 0.082641 0.097898
C11   C     C_3   0.505963 0.502663 0.917391 0.211167
C12   C     C_3   0.630787 0.565097 0.949279 -0.460130
C13   C     C_3   0.629422 0.580089 0.048753 0.516967
C14   C     C_1   0.503780 0.500924 0.825962 -0.054708
C15   C     C_1   0.504473 0.502705 0.174163 0.011337
C16   C     C_1   0.502114 0.500634 0.249426 -0.049566
H9    H     H_    0.648994 0.662340 0.915912 0.211382
H10   H     H_    0.709221 0.498408 0.928715 0.202258
C17   C     C_R   0.063222 0.411332 0.555384 0.292448
C18   C     C_R   0.062854 0.588450 0.444316 0.290942
C19   C     C_R   0.934235 0.409716 0.552795 -0.232033
C20   C     C_R   0.933877 0.590174 0.446959 -0.199638
H11   H     H_    0.882499 0.342752 0.594728 0.182566
H12   H     H_    0.881858 0.657109 0.405010 0.205737
C21   C     C_R   0.871527 0.500009 0.499924 -0.136000
C22   C     C_R   0.127242 0.499911 0.499864 -0.289054
C23   C     C_R   0.581382 0.071916 0.550360 -0.033954
C24   C     C_R   0.581369 0.928085 0.550367 -0.046220
H13   H     H_    0.646503 0.126358 0.590656 0.137005
H14   H     H_    0.646465 0.873646 0.590680 0.142001
N1    N     N_R   0.499970 0.857200 0.499980 -0.098895
N2    N     N_R   0.499970 0.142800 0.499980 -0.091769
C25   C     C_R   0.418563 0.928086 0.449592 -0.015326
C26   C     C_R   0.418528 0.071917 0.449618 -0.020290
H15   H     H_    0.353527 0.873661 0.409249 0.187018
H16   H     H_    0.353398 0.126352 0.409328 0.150387
N3    N     N_R   0.624957 0.725526 0.074231 0.208469
O9    O     O_R   0.628436 0.758409 0.154331 -0.336518
O10   O     O_R   0.610407 0.822673 0.018950 -0.396212
N4    N     N_R   0.744732 0.517860 0.084175 0.187267
O11   O     O_R   0.775750 0.393751 0.065242 -0.400619
O12   O     O_R   0.823873 0.589989 0.128225 -0.293902
N5    N     N_R   0.127065 0.327448 0.616565 0.222411
O13   O     O_R   0.214614 0.378810 0.664448 -0.402620
O14   O     O_R   0.084203 0.207008 0.634202 -0.368643
N6    N     N_R   0.126307 0.672211 0.383087 0.217689
O15   O     O_R   0.083582 0.792767 0.365501 -0.362062
O16   O     O_R   0.213447 0.620749 0.335227 -0.407568

loop_
_geom_bond_atom_site_label_1
_geom_bond_atom_site_label_2
_geom_bond_distance
_ccdc_geom_bond_type
C6    C10   1.555664 S    
O4    Zn2   1.970394 S    
C17   N5    1.438899 S    
N3    O9    1.302318 A    
C10   C13   1.584787 S    
C18   C22   1.411980 A    
C11   C12   1.549247 S    
C4    C9    1.399151 S    
C5    C8    1.543800 S    
C19   H11   1.084802 S    
C7    C11   1.545038 S    
N2    C26   1.366557 A    
C8    H8    1.113161 S    
C12   H10   1.112882 S    
Zn2   O8    1.970871 S    
C7    H7    1.113426 S    
N6    O15   1.301517 A    
C26   H16   1.081783 S    
C17   C22   1.411992 A    
C20   H12   1.084757 S    
O2    C1    1.280913 A    
N4    O11   1.301474 A    
C11   C14   1.439387 S    
C17   C19   1.376820 A    
C8    C11   1.550183 S    
N5    O14   1.301422 A    
C23   C24   1.416737 A    
C18   C20   1.376973 A    
C24   N1    1.366509 A    
C5    C10   1.553014 S    
N5    O13   1.301141 A    
C5    H3    1.113835 S    
C23   N2    1.366467 A    
O3    Zn1   1.970683 S    
C13   N3    1.488594 S    
O4    C2    1.285365 A    
C12   H9    1.109548 S    
C13   N4    1.482179 S    
O3    C2    1.284821 A    
C5    H6    1.112363 S    
O8    C4    1.284653 A    
C10   C15   1.441414 S    
Zn1   O7    1.970582 S    
C6    H5    1.108676 S    
C18   N6    1.438887 S    
N3    O10   1.302180 A    
C12   C13   1.572888 S    
O7    C4    1.284384 A    
C24   H14   1.081775 S    
C1    C22   1.416830 S    
C25   H15   1.081635 S    
N4    O12   1.302124 A    
C25   C26   1.416737 A    
Zn2   N2    2.010193 S    
C3    C21   1.406969 S    
C7    H2    1.113646 S    
C15   C16   1.185186 T    
Zn1   N1    2.010193 S    
Zn2   O6    1.991252 S    
C8    H1    1.113453 S    
C23   H13   1.081848 S    
Zn1   O5    1.991464 S    
O5    C3    1.280374 A    
C19   C21   1.388571 A    
O1    C1    1.280993 A    
C9    C14   1.185373 T    
O1    Zn1   1.991313 S    
C20   C21   1.388655 A    
O2    Zn2   1.991526 S    
C2    C16   1.398495 S    
C6    H4    1.114148 S    
C6    C7    1.539677 S    
N1    C25   1.366503 A    
O6    C3    1.280318 A    
N6    O16   1.301199 A    
