data_mof_unit_48370.cif
_audit_creation_date              2013-03-05T15:40:11-0500
_audit_creation_method            fapswitch 2.2
_symmetry_space_group_name_H-M    P1
_symmetry_Int_Tables_number       1
_space_group_crystal_system       triclinic
_cell_length_a                    7.846636
_cell_length_b                    8.569832
_cell_length_c                    10.440426
_cell_angle_alpha                 88.603184
_cell_angle_beta                  97.847185
_cell_angle_gamma                 93.839686
_cell_volume                      693.841851098

loop_
_atom_site_label
_atom_site_type_symbol
_atom_site_description
_atom_site_fract_x
_atom_site_fract_y
_atom_site_fract_z
_atom_type_partial_charge
O1    O     O_R   0.391630 0.738350 0.508060 -0.631540
O2    O     O_R   0.608370 0.261650 0.491940 -0.619716
O3    O     O_R   0.674540 0.711990 0.487010 -0.658282
O4    O     O_R   0.325460 0.288010 0.512990 -0.647100
C1    C     C_R   0.544762 0.794590 0.496858 0.933004
C2    C     C_R   0.455258 0.205416 0.503201 0.983874
O5    O     O_R   0.411370 0.508250 0.688780 -0.594503
O6    O     O_R   0.588630 0.491750 0.311220 -0.590888
O7    O     O_R   0.694270 0.481880 0.667740 -0.576249
O8    O     O_R   0.305730 0.518120 0.332260 -0.588338
C3    C     C_R   0.571656 0.498172 0.737831 0.838847
C4    C     C_R   0.429854 0.510187 0.262207 0.842078
Zn1   Zn    Zn3+2 0.311100 0.517600 0.514050 1.013567
Zn2   Zn    Zn3+2 0.688900 0.482400 0.485950 1.019595
H1    H     H_    0.624445 0.682854 0.128168 0.192535
H2    H     H_    0.433780 0.694010 0.870118 0.207664
C5    C     C_2   0.614098 0.519442 0.876935 0.136578
C6    C     C_2   0.395551 0.535926 0.123009 0.129159
C7    C     C_2   0.523448 0.622749 0.930506 -0.186504
C8    C     C_2   0.515559 0.624283 0.068426 -0.198582
C9    C     C_2   0.568008 0.958454 0.495224 -0.325134
C10   C     C_2   0.432042 0.041541 0.504934 -0.330900
H3    H     H_    0.696313 0.010116 0.486070 0.182236
H4    H     H_    0.303743 0.989873 0.514104 0.179331
N1    N     N_2   0.940600 0.458860 0.467170 -0.176928
N2    N     N_2   0.059400 0.541140 0.532830 -0.172411
N3    N     N_R   0.245639 0.458883 0.049490 0.235818
O9    O     O_R   0.168339 0.336938 0.098286 -0.283128
O10   O     O_R   0.177719 0.516065 0.939038 -0.308698
N4    N     N_R   0.740398 0.426096 0.951045 0.248449
O11   O     O_R   0.789858 0.302302 0.900456 -0.318400
O12   O     O_R   0.815921 0.469428 0.064528 -0.294716
C11   C     C_2   0.978926 0.304026 0.445482 0.728781
H5    H     H_    0.024879 0.228986 0.526303 0.007318
O13   O     O_2   0.948701 0.250731 0.336901 -0.527692
C12   C     C_2   0.020587 0.695504 0.555671 0.711165
H6    H     H_    0.976462 0.771879 0.475260 0.003725
O14   O     O_2   0.047789 0.746714 0.665047 -0.564014

loop_
_geom_bond_atom_site_label_1
_geom_bond_atom_site_label_2
_geom_bond_distance
_ccdc_geom_bond_type
N4    O12   1.301200 A    
O7    Zn2   1.892574 S    
N3    O10   1.301370 A    
C7    C8    1.450108 S    
N4    O11   1.301345 A    
O6    C4    1.298965 A    
C12   O14   1.219635 D    
C11   H5    1.084938 S    
C9    C10   1.338019 D    
O5    C3    1.299258 A    
C5    N4    1.444769 S    
O7    C3    1.302255 A    
O2    C2    1.283635 A    
O3    Zn2   1.978675 S    
O8    C4    1.301517 A    
H2    C7    1.087727 S    
O1    C1    1.283664 A    
N2    C12   1.410242 S    
C12   H6    1.085017 S    
C5    C7    1.348952 D    
C6    C8    1.347159 D    
C9    H3    1.087762 S    
Zn2   N1    2.034893 S    
H1    C8    1.087779 S    
O2    Zn2   1.956269 S    
C10   H4    1.087779 S    
Zn1   N2    2.034892 S    
O1    Zn1   1.956270 S    
C2    C10   1.403997 S    
O5    Zn1   1.887524 S    
C1    C9    1.403911 S    
O4    C2    1.295087 A    
C4    C6    1.455562 S    
N3    O9    1.301190 A    
C3    C5    1.458092 S    
O6    Zn2   1.887524 S    
C11   O13   1.219541 D    
N1    N2    1.263780 D    
C6    N3    1.443233 S    
O4    Zn1   1.978676 S    
N1    C11   1.410343 S    
O3    C1    1.295109 A    
O8    Zn1   1.892576 S    
