data_mof_unit_64166.cif
_audit_creation_date              2012-10-26T17:23:48-0400
_audit_creation_method            fapswitch 2.2
_symmetry_space_group_name_H-M    P1
_symmetry_Int_Tables_number       1
_space_group_crystal_system       triclinic
_cell_length_a                    21.451206
_cell_length_b                    29.41228
_cell_length_c                    29.409834
_cell_angle_alpha                 90.000183
_cell_angle_beta                  90.000517
_cell_angle_gamma                 90.000035
_cell_volume                      18555.5135437

loop_
_atom_site_label
_atom_site_type_symbol
_atom_type_description
_atom_site_fract_x
_atom_site_fract_y
_atom_site_fract_z
_atom_type_partial_charge
C1    C     C_R   1.000000 0.999994 0.085536 0.545942
C2    C     C_1   0.000001 0.999988 0.770708 -0.001346
C3    C     C_3   0.310895 0.499734 0.500001 -0.045038
C4    C     C_1   1.000000 0.999997 0.136665 -0.052471
C5    C     C_1   0.000000 0.999997 0.863334 -0.052465
C6    C     C_1   0.500000 0.499997 0.636666 -0.052471
C7    C     C_1   0.500000 0.499997 0.363334 -0.052465
C8    C     C_3   0.246869 0.940229 0.102955 -0.107068
C9    C     C_3   0.753130 0.940152 0.897089 -0.107066
C10   C     C_3   0.753137 0.940407 0.103059 -0.107076
C11   C     C_3   0.246865 0.940326 0.896987 -0.107072
C12   C     C_3   0.746869 0.440229 0.602955 -0.107068
C13   C     C_1   0.499999 0.499988 0.729292 -0.001350
C14   C     C_3   0.253130 0.440152 0.397089 -0.107066
C15   C     C_3   0.253137 0.440408 0.603059 -0.107076
C16   C     C_3   0.746865 0.440327 0.396987 -0.107072
C17   C     C_1   0.500001 0.499988 0.270708 -0.001346
C18   C     C_1   0.999999 0.999987 0.271672 0.000575
C19   C     C_1   0.000001 0.999986 0.728328 0.000578
C20   C     C_1   0.499999 0.499987 0.771672 0.000575
C21   C     C_1   0.500001 0.499986 0.228328 0.000578
C22   C     C_1   0.999999 0.999987 0.321922 -0.033668
C23   C     C_1   0.000001 0.999987 0.678078 -0.033667
C24   C     C_1   0.499999 0.499987 0.821922 -0.033668
C25   C     C_R   1.000000 0.999994 0.914464 0.545945
C26   C     C_1   0.500001 0.499987 0.178077 -0.033667
C27   C     C_1   0.999999 0.999988 0.364303 -0.034646
C28   C     C_1   0.000001 0.999988 0.635697 -0.034645
C29   C     C_1   0.499999 0.499988 0.864303 -0.034646
C30   C     C_1   0.500001 0.499988 0.135697 -0.034645
C31   C     C_R   0.500000 0.085497 0.000000 0.532223
C32   C     C_R   0.000000 0.585497 0.500000 0.532223
C33   C     C_R   0.378603 0.999040 1.000000 0.599137
C34   C     C_R   0.621397 0.999039 0.000000 0.599137
C35   C     C_R   0.878603 0.499040 0.500000 0.599137
C36   C     C_R   0.500000 0.499994 0.585536 0.545942
C37   C     C_R   0.121397 0.499039 0.500000 0.599137
C38   C     C_R   0.500000 0.914390 1.000000 0.561778
C39   C     C_R   1.000000 0.414390 0.500000 0.561778
C40   C     C_R   0.000000 0.084537 0.500000 0.540164
C41   C     C_R   0.500000 0.584537 0.000000 0.540164
C42   C     C_R   1.000000 0.999989 0.415439 0.539964
C43   C     C_R   0.000000 0.999989 0.584561 0.539964
C44   C     C_R   0.500000 0.499989 0.915439 0.539964
C45   C     C_R   0.500000 0.499989 0.084561 0.539964
C46   C     C_R   0.121406 0.999957 1.000000 0.565580
C47   C     C_R   0.500000 0.499994 0.414464 0.545945
C48   C     C_R   0.878594 0.999957 0.000000 0.565580
C49   C     C_R   0.621406 0.499957 0.500000 0.565580
C50   C     C_R   0.378594 0.499957 0.500000 0.565581
C51   C     C_R   1.000000 0.915431 0.500000 0.539790
C52   C     C_R   0.500000 0.415432 0.000000 0.539790
C53   C     C_1   0.500000 0.136634 0.000000 -0.041172
C54   C     C_1   0.000000 0.636634 0.500000 -0.041172
C55   C     C_1   0.500000 0.179015 0.000000 -0.036678
C56   C     C_1   0.000000 0.679015 0.500000 -0.036678
C57   C     C_1   0.500000 0.229270 0.000000 0.001595
C58   C     C_1   0.999999 0.999993 0.179043 -0.043307
C59   C     C_1   1.000000 0.729270 0.500000 0.001595
C60   C     C_1   1.000000 0.771652 0.500000 0.002138
C61   C     C_1   0.500000 0.271652 0.000000 0.002138
C62   C     C_1   1.000000 0.821908 0.500000 -0.033170
C63   C     C_1   0.500000 0.321908 0.000000 -0.033170
C64   C     C_1   1.000000 0.864290 0.500000 -0.034724
C65   C     C_1   0.500000 0.364290 0.000000 -0.034724
C66   C     C_1   0.500000 0.863269 1.000000 -0.019834
C67   C     C_1   0.000000 0.363269 0.500000 -0.019834
C68   C     C_1   0.500000 0.820896 1.000000 -0.026400
C69   C     C_1   0.000001 0.999992 0.820957 -0.043301
C70   C     C_1   1.000000 0.320896 0.500000 -0.026400
C71   C     C_1   0.500000 0.770655 1.000000 0.005515
C72   C     C_1   0.000000 0.270655 0.500000 0.005515
C73   C     C_3   0.229244 0.021541 0.037617 -0.129799
C74   C     C_3   0.770755 0.021512 0.962366 -0.129795
C75   C     C_3   0.770757 0.021604 0.037582 -0.129816
C76   C     C_3   0.229243 0.021576 0.962402 -0.129808
C77   C     C_3   0.729244 0.521541 0.537617 -0.129799
C78   C     C_3   0.270755 0.521512 0.462366 -0.129795
C79   C     C_3   0.270757 0.521604 0.537582 -0.129816
C80   C     C_1   0.499999 0.499993 0.679043 -0.043307
C81   C     C_3   0.729243 0.521576 0.462402 -0.129808
C82   C     C_1   0.000000 0.228281 0.500000 0.004228
C83   C     C_1   0.500000 0.728281 1.000000 0.004228
C84   C     C_1   0.000000 0.178039 0.500000 -0.032037
C85   C     C_1   0.500000 0.678039 1.000000 -0.032037
C86   C     C_1   0.000000 0.135664 0.500000 -0.033888
C87   C     C_1   0.500000 0.635664 1.000000 -0.033888
C88   C     C_3   0.270834 0.042838 0.000020 -0.185980
C89   C     C_3   0.729165 0.042838 0.999948 -0.185980
C90   C     C_3   0.770834 0.542838 0.500020 -0.185980
C91   C     C_1   0.500000 0.499992 0.320957 -0.043301
C92   C     C_3   0.229165 0.542838 0.499948 -0.185980
C93   C     C_3   0.310788 0.999399 0.999999 0.076894
C94   C     C_3   0.689213 0.999399 0.000001 0.076894
C95   C     C_3   0.810788 0.499399 0.499999 0.076894
C96   C     C_3   0.189213 0.499399 0.500001 0.076894
C97   C     C_3   0.269586 0.978265 0.036706 0.259699
C98   C     C_3   0.730414 0.978236 0.963310 0.259701
C99   C     C_3   0.730415 0.978326 0.036744 0.259693
C100  C     C_3   0.269585 0.978299 0.963272 0.259695
C101  C     C_3   0.769586 0.478265 0.536706 0.259699
C102  C     C_1   0.999999 0.999988 0.229292 -0.001350
C103  C     C_3   0.230413 0.478236 0.463310 0.259701
C104  C     C_3   0.230415 0.478326 0.536744 0.259693
C105  C     C_3   0.769585 0.478299 0.463272 0.259695
C106  C     C_3   0.228850 0.955801 0.999979 -0.116998
C107  C     C_3   0.771151 0.955801 0.000054 -0.116994
C108  C     C_3   0.728849 0.455801 0.499979 -0.116998
C109  C     C_3   0.271151 0.455801 0.500054 -0.116994
C110  C     C_3   0.189105 0.999734 1.000000 -0.045039
C111  C     C_3   0.810895 0.999734 0.000001 -0.045038
C112  C     C_3   0.689105 0.499734 0.500000 -0.045039
Cu1   Cu    Cu3+1 0.000000 0.957510 0.000000 0.913160
Cu2   Cu    Cu3+1 0.937230 0.999990 0.500000 0.952505
Cu3   Cu    Cu3+1 0.562770 0.499990 0.000000 0.952506
Cu4   Cu    Cu3+1 0.437230 0.499990 0.000000 0.952505
Cu5   Cu    Cu3+1 0.500000 0.457510 0.500000 0.913160
Cu6   Cu    Cu3+1 0.000000 0.042470 0.000000 0.940904
Cu7   Cu    Cu3+1 0.500000 0.542470 0.500000 0.940903
Cu8   Cu    Cu3+1 0.500000 0.999950 0.957510 1.015956
Cu9   Cu    Cu3+1 0.500000 0.999950 0.042490 1.015989
Cu10  Cu    Cu3+1 0.000000 0.499950 0.457510 1.015956
Cu11  Cu    Cu3+1 0.000000 0.499950 0.542490 1.015989
Cu12  Cu    Cu3+1 0.062770 0.999990 0.500000 0.952506
H1    H     H_    0.289626 0.078004 0.000036 0.121893
H2    H     H_    0.289096 0.539087 0.431760 0.120006
H3    H     H_    0.289098 0.539254 0.568145 0.120032
H4    H     H_    0.710902 0.539203 0.431825 0.120026
H5    H     H_    0.210662 0.920467 0.999962 0.111728
H6    H     H_    0.789338 0.920467 0.000098 0.111732
H7    H     H_    0.710662 0.420467 0.499962 0.111728
H8    H     H_    0.289338 0.420467 0.500098 0.111732
H9    H     H_    0.217638 0.914713 0.084949 0.114665
H10   H     H_    0.217545 0.968633 0.115824 0.112733
H11   H     H_    0.267785 0.923107 0.132894 0.148516
H12   H     H_    0.710374 0.078004 0.999905 0.121894
H13   H     H_    0.782365 0.914653 0.915113 0.114667
H14   H     H_    0.782448 0.968549 0.884196 0.112738
H15   H     H_    0.732212 0.923006 0.867164 0.148515
H16   H     H_    0.782449 0.968838 0.115885 0.112729
H17   H     H_    0.782378 0.914868 0.085097 0.114655
H18   H     H_    0.732223 0.923331 0.133025 0.148518
H19   H     H_    0.217544 0.968744 0.884144 0.112729
H20   H     H_    0.217632 0.914796 0.914969 0.114659
H21   H     H_    0.267780 0.923231 0.867032 0.148517
H22   H     H_    0.717638 0.414713 0.584949 0.114665
H23   H     H_    0.789626 0.578004 0.500036 0.121893
H24   H     H_    0.717545 0.468633 0.615824 0.112733
H25   H     H_    0.767785 0.423107 0.632894 0.148516
H26   H     H_    0.282365 0.414653 0.415113 0.114667
H27   H     H_    0.282448 0.468549 0.384196 0.112738
H28   H     H_    0.232212 0.423006 0.367164 0.148515
H29   H     H_    0.282449 0.468838 0.615884 0.112729
H30   H     H_    0.282378 0.414868 0.585097 0.114655
H31   H     H_    0.232223 0.423331 0.633025 0.148518
H32   H     H_    0.717544 0.468744 0.384144 0.112729
H33   H     H_    0.717632 0.414796 0.414969 0.114659
H34   H     H_    0.210374 0.578004 0.499905 0.121894
H35   H     H_    0.767780 0.423231 0.367032 0.148517
H36   H     H_    0.210904 0.039138 0.068211 0.120016
H37   H     H_    0.789096 0.039087 0.931760 0.120006
H38   H     H_    0.789098 0.039254 0.068145 0.120033
H39   H     H_    0.210902 0.039203 0.931825 0.120026
H40   H     H_    0.710904 0.539138 0.568211 0.120016
O1    O     O_R   0.000000 0.964120 0.061970 -0.490382
O2    O     O_R   0.000000 0.035860 0.938050 -0.485936
O3    O     O_R   0.500000 0.535860 0.561950 -0.485941
O4    O     O_R   0.500000 0.535860 0.438050 -0.485936
O5    O     O_R   0.091580 0.964120 0.000000 -0.510163
O6    O     O_R   0.908420 0.964120 0.000000 -0.510164
O7    O     O_R   0.591580 0.464120 0.500000 -0.510163
O8    O     O_R   0.408420 0.464120 0.500000 -0.510164
O9    O     O_R   0.091590 0.035860 0.000000 -0.494830
O10   O     O_R   0.908410 0.035860 0.000000 -0.494830
O11   O     O_R   0.591590 0.535860 0.500000 -0.494831
O12   O     O_R   0.000000 0.964120 0.938030 -0.490385
O13   O     O_R   0.408410 0.535860 0.500000 -0.494831
O14   O     O_R   0.500000 0.061920 0.964120 -0.499072
O15   O     O_R   0.500000 0.061920 0.035880 -0.499063
O16   O     O_R   0.000000 0.561920 0.464120 -0.499072
O17   O     O_R   1.000000 0.561920 0.535880 -0.499063
O18   O     O_R   0.408440 0.999940 0.964130 -0.479847
O19   O     O_R   0.591560 0.999940 0.035870 -0.479822
O20   O     O_R   0.591560 0.999940 0.964130 -0.479905
O21   O     O_R   0.408440 0.999940 0.035870 -0.479879
O22   O     O_R   0.908440 0.499940 0.464130 -0.479847
O23   O     O_R   0.500000 0.464120 0.561970 -0.490382
O24   O     O_R   0.091560 0.499940 0.535870 -0.479822
O25   O     O_R   0.091560 0.499940 0.464130 -0.479905
O26   O     O_R   0.908440 0.499940 0.535870 -0.479879
O27   O     O_R   0.500000 0.937960 0.964120 -0.482438
O28   O     O_R   0.500000 0.937960 0.035880 -0.482451
O29   O     O_R   0.000000 0.437960 0.464120 -0.482438
O30   O     O_R   0.000000 0.437960 0.535880 -0.482451
O31   O     O_R   0.053020 0.061970 0.500000 -0.483075
O32   O     O_R   0.946980 0.061970 0.500000 -0.483075
O33   O     O_R   0.553020 0.561970 0.000000 -0.483075
O34   O     O_R   0.500000 0.464120 0.438030 -0.490385
O35   O     O_R   0.446980 0.561970 0.000000 -0.483075
O36   O     O_R   0.053020 0.999990 0.438010 -0.483225
O37   O     O_R   0.946980 0.999990 0.561990 -0.483225
O38   O     O_R   0.946980 0.999990 0.438010 -0.483226
O39   O     O_R   0.053020 0.999990 0.561990 -0.483225
O40   O     O_R   0.553020 0.499990 0.938010 -0.483225
O41   O     O_R   0.446980 0.499990 0.061990 -0.483225
O42   O     O_R   0.446980 0.499990 0.938010 -0.483226
O43   O     O_R   0.553020 0.499990 0.061990 -0.483225
O44   O     O_3   0.295376 0.956284 0.074964 -0.545371
O45   O     O_R   0.053000 0.938010 0.500000 -0.483241
O46   O     O_3   0.704622 0.956227 0.925070 -0.545382
O47   O     O_3   0.704628 0.956410 0.075039 -0.545347
O48   O     O_3   0.295374 0.956354 0.924994 -0.545357
O49   O     O_3   0.795376 0.456284 0.574963 -0.545371
O50   O     O_3   0.204622 0.456227 0.425070 -0.545382
O51   O     O_3   0.204628 0.456409 0.575039 -0.545347
O52   O     O_3   0.795374 0.456354 0.424994 -0.545357
O53   O     O_R   0.947000 0.938010 0.500000 -0.483241
O54   O     O_R   0.553000 0.438010 0.000000 -0.483241
O55   O     O_R   0.447000 0.438010 0.000000 -0.483241
O56   O     O_R   0.000000 0.035860 0.061950 -0.485941

loop_
_geom_bond_atom_site_label_1
_geom_bond_atom_site_label_2
_ccdc_geom_bond_type
C106  H5    S    
C37   O25   A    
C21   C26   S    
C63   C65   T    
Cu3   O43   S    
Cu10  O29   S    
C30   C45   S    
C77   C101  S    
C17   C91   S    
C41   O35   A    
C3    C79   S    
C39   O29   A    
Cu9   O28   S    
C90   C95   S    
Cu9   O15   S    
C99   O47   S    
C51   O53   A    
C73   C97   S    
C98   O46   S    
C73   H36   S    
C90   H23   S    
Cu2   O32   S    
C75   H38   S    
C74   C89   S    
C60   C62   S    
C36   O23   A    
C84   C86   T    
Cu5   Cu7   S    
C10   H18   S    
C104  C109  S    
Cu10  O22   S    
C37   O24   A    
Cu12  O45   S    
C94   C98   S    
C12   H22   S    
Cu3   Cu4   S    
C92   C96   S    
C14   O50   S    
C92   H34   S    
C18   C102  T    
C40   C86   S    
C89   C94   S    
C8    O44   S    
Cu8   O14   S    
C24   C29   T    
C15   H30   S    
C62   C64   T    
C95   C105  S    
Cu7   O11   S    
C9    H13   S    
Cu1   O1    S    
C38   C66   S    
Cu6   O9    S    
C101  O49   S    
C108  H7    S    
C14   H27   S    
C43   O37   A    
C5    C69   T    
Cu2   O38   S    
C47   O34   A    
C34   O20   A    
C58   C102  S    
C1    O56   A    
C2    C69   S    
C11   H20   S    
C76   C88   S    
C71   C83   T    
Cu4   O41   S    
C75   C111  S    
Cu9   O19   S    
Cu2   Cu12  S    
C44   O40   A    
C101  C108  S    
C53   C55   T    
C2    C19   T    
C13   C80   S    
C59   C60   T    
C45   O43   A    
C89   H12   S    
C16   H35   S    
Cu5   O7    S    
C52   C65   S    
C10   H16   S    
C12   O49   S    
C107  H6    S    
C32   C54   S    
C39   O30   A    
C3    C50   S    
C48   O10   A    
C85   C87   T    
C41   C87   S    
C105  C108  S    
C81   C105  S    
C77   C90   S    
C46   O9    A    
C70   C72   S    
C66   C68   T    
Cu12  O39   S    
C8    H10   S    
C20   C24   S    
C32   O17   A    
C73   C110  S    
C50   O13   A    
C27   C42   S    
C15   O51   S    
Cu5   O23   S    
Cu8   O27   S    
C74   C111  S    
C49   O7    A    
Cu4   O35   S    
C11   H21   S    
Cu1   O5    S    
C31   O14   A    
C78   C92   S    
Cu9   O21   S    
Cu6   O2    S    
C36   O3    A    
C35   O22   A    
C98   C107  S    
C108  C112  S    
C37   C96   S    
C31   O15   A    
Cu4   O55   S    
C10   H17   S    
C7    C47   S    
C77   C112  S    
C19   C23   S    
C6    C36   S    
C73   C88   S    
C16   H32   S    
C88   H1    S    
C11   O48   S    
Cu3   O33   S    
C107  C111  S    
C51   O45   A    
C6    C80   T    
C93   C100  S    
C81   C112  S    
C1    O1    A    
C9    O46   S    
C7    C91   T    
Cu3   O40   S    
C14   H26   S    
C109  H8    S    
C75   C99   S    
Cu2   O37   S    
C34   O19   A    
Cu11  O30   S    
C23   C28   T    
C31   C53   S    
Cu11  O26   S    
Cu8   O20   S    
C103  O50   S    
C79   C92   S    
Cu10  O16   S    
Cu1   O12   S    
C48   O6    A    
C81   C90   S    
C41   O33   A    
C83   C85   S    
C26   C30   T    
C35   O26   A    
C82   C84   S    
C22   C27   T    
C49   C112  S    
C81   H4    S    
C43   O39   A    
C72   C82   T    
C5    C25   S    
C79   C104  S    
C42   O38   A    
C97   C106  S    
Cu2   O53   S    
C14   H28   S    
C15   H31   S    
C78   H2    S    
C93   C97   S    
C49   O11   A    
Cu8   Cu9   S    
Cu10  O25   S    
C40   O32   A    
C106  C110  S    
C96   C104  S    
C25   O12   A    
C88   C93   S    
C52   O55   A    
C45   O41   A    
C52   O54   A    
C74   C98   S    
C13   C20   T    
C16   H33   S    
C18   C22   S    
C39   C67   S    
C12   H25   S    
C61   C63   S    
C51   C64   S    
C34   C94   S    
C104  O51   S    
C33   C93   S    
C74   H37   S    
C33   O21   A    
C56   C59   S    
C54   C56   T    
C57   C61   T    
Cu1   O6    S    
C35   C95   S    
C25   O2    A    
C76   C100  S    
C99   C107  S    
C44   O42   A    
Cu12  O36   S    
C28   C43   S    
C38   O28   A    
C46   O5    A    
C103  C109  S    
C9    H14   S    
C1    C4    S    
C3    C109  S    
C67   C70   T    
Cu3   O54   S    
C55   C57   S    
C8    H9    S    
C79   H3    S    
C29   C44   S    
C46   C110  S    
Cu6   O56   S    
C47   O4    A    
C9    H15   S    
Cu5   O8    S    
C12   H24   S    
Cu8   O18   S    
C94   C99   S    
C77   H40   S    
C68   C71   S    
C78   C103  S    
Cu12  O31   S    
C42   O36   A    
C100  O48   S    
Cu7   O3    S    
C97   O44   S    
C16   O52   S    
C76   C110  S    
C17   C21   T    
C15   H29   S    
C75   C89   S    
C100  C106  S    
Cu1   Cu6   S    
C10   O47   S    
C48   C111  S    
Cu6   O10   S    
Cu11  O17   S    
C38   O27   A    
Cu11  O24   S    
C96   C103  S    
C4    C58   T    
C33   O18   A    
C105  O52   S    
C32   O16   A    
C76   H39   S    
C50   O8    A    
Cu7   O13   S    
Cu10  Cu11  S    
C3    C78   S    
C11   H19   S    
Cu7   O4    S    
Cu4   O42   S    
Cu5   O34   S    
C95   C101  S    
C8    H11   S    
C40   O31   A    
