data_mof_unit_38089.cif
_audit_creation_date              2012-12-11T16:13:04-0500
_audit_creation_method            fapswitch 2.2
_symmetry_space_group_name_H-M    P1
_symmetry_Int_Tables_number       1
_space_group_crystal_system       triclinic
_cell_length_a                    23.514674
_cell_length_b                    13.633905
_cell_length_c                    28.422946
_cell_angle_alpha                 90.118791
_cell_angle_beta                  90.478704
_cell_angle_gamma                 89.706832
_cell_volume                      9111.85031806

loop_
_atom_site_label
_atom_site_type_symbol
_atom_type_description
_atom_site_fract_x
_atom_site_fract_y
_atom_site_fract_z
_atom_type_partial_charge
C1    C     C_R   0.284396 0.006647 0.815553 0.541904
C2    C     C_3   0.455862 0.753418 0.977870 -0.221887
C3    C     C_R   0.200241 0.112839 0.529229 0.018983
C4    C     C_R   0.304123 0.619851 0.519832 -0.084649
C5    C     C_R   0.714844 0.517490 0.473349 -0.097623
C6    C     C_R   0.786321 0.017725 0.526341 -0.097645
C7    C     C_R   0.196057 0.120911 0.480172 -0.084662
C8    C     C_R   0.259578 0.587988 0.548346 0.024277
C9    C     C_R   0.746224 0.591195 0.451660 0.023129
C10   C     C_R   0.753507 0.089660 0.548510 0.023622
C11   C     C_R   0.240725 0.088616 0.451631 0.024231
C12   C     C_R   0.249814 0.572483 0.450956 0.053171
C13   C     C_3   0.969053 0.245797 0.030634 -0.248965
C14   C     C_R   0.748534 0.575007 0.549393 0.047072
C15   C     C_R   0.751041 0.074763 0.450719 0.047704
C16   C     C_R   0.250193 0.072262 0.549007 0.053106
C17   C     C_1   0.242596 0.560196 0.401348 -0.056734
C18   C     C_1   0.756614 0.561002 0.598842 -0.060697
C19   C     C_1   0.743052 0.061171 0.401229 -0.060836
C20   C     C_1   0.257318 0.059742 0.598611 -0.056624
C21   C     C_1   0.262144 0.606895 0.597615 -0.060071
C22   C     C_1   0.740889 0.607854 0.402291 -0.067604
C23   C     C_1   0.759136 0.106489 0.597859 -0.067639
C24   C     C_3   0.967982 0.239920 0.976244 -0.246981
C25   C     C_1   0.238196 0.107598 0.402382 -0.059958
C26   C     C_1   0.232486 0.541711 0.360976 -0.014097
C27   C     C_1   0.767211 0.541655 0.639045 -0.016001
C28   C     C_1   0.732580 0.041979 0.360976 -0.016443
C29   C     C_1   0.267410 0.041227 0.638975 -0.013771
C30   C     C_R   0.284359 0.007135 0.684122 0.543739
C31   C     C_R   0.715605 0.007327 0.315905 0.545305
C32   C     C_R   0.784399 0.507027 0.684066 0.544600
C33   C     C_R   0.215656 0.507454 0.315833 0.544961
C34   C     C_R   0.445564 0.824978 0.684339 0.543759
C35   C     C_1   0.514287 0.834051 0.097649 -0.091429
C36   C     C_R   0.554020 0.825392 0.315410 0.543113
C37   C     C_R   0.945990 0.324990 0.684606 0.543673
C38   C     C_R   0.054439 0.325382 0.315675 0.543420
C39   C     C_R   0.274304 0.674000 0.683051 0.546101
C40   C     C_R   0.725823 0.674319 0.316984 0.544965
C41   C     C_R   0.774225 0.173922 0.683050 0.545941
C42   C     C_R   0.225755 0.174368 0.316972 0.546048
C43   C     C_3   0.466252 0.935603 0.975486 -0.069023
C44   C     C_3   0.563930 0.823268 0.021119 -0.071858
C45   C     C_3   0.950079 0.420519 0.978385 -0.068989
C46   C     C_1   0.480504 0.833587 0.903592 -0.082436
C47   C     C_3   0.061618 0.332084 0.022036 -0.082076
C48   C     C_3   0.555316 0.827331 0.966434 -0.045075
C49   C     C_3   0.475833 0.936642 0.030506 -0.043629
C50   C     C_3   0.052704 0.355534 0.968680 -0.063381
C51   C     C_3   0.970065 0.434452 0.030835 -0.057751
C52   C     C_1   0.528277 0.830569 0.138255 -0.031282
C53   C     C_1   0.468254 0.830225 0.862751 -0.026783
C54   C     C_1   0.025811 0.330877 0.139171 -0.031286
C55   C     C_1   0.968128 0.331140 0.862881 -0.028981
C56   C     C_3   0.149062 0.638793 0.944640 -0.412508
C57   C     C_1   0.010948 0.334377 0.098706 -0.060934
C58   C     C_3   0.809102 0.756934 0.047103 -0.404662
C59   C     C_3   0.651954 0.149927 0.945118 -0.408172
C60   C     C_3   0.301449 0.266469 0.043803 -0.402995
C61   C     C_3   0.528896 0.655795 0.555961 -0.275229
C62   C     C_3   0.585932 0.672409 0.580975 -0.426031
C63   C     C_3   0.524058 0.646801 0.448650 -0.278176
C64   C     C_3   0.587617 0.626830 0.443801 -0.418981
C65   C     C_3   0.976134 0.146641 0.550463 -0.278177
C66   C     C_3   0.912578 0.127892 0.555356 -0.419168
C67   C     C_3   0.971133 0.157286 0.443200 -0.275067
C68   C     C_1   0.979840 0.335593 0.903845 -0.061510
C69   C     C_3   0.914118 0.175453 0.418274 -0.426337
C70   C     C_3   0.347822 0.646831 0.440348 -0.403679
C71   C     C_3   0.682141 0.428544 0.545612 -0.404666
C72   C     C_3   0.820634 0.931511 0.453494 -0.405355
C73   C     C_3   0.152078 0.147980 0.559658 -0.403605
C74   C     C_3   0.489639 0.029813 0.952151 -0.305073
C75   C     C_3   0.454608 0.120784 0.964430 -0.457091
C76   C     C_3   0.610456 0.896642 0.037828 -0.306748
C77   C     C_3   0.669967 0.866599 0.022071 -0.447771
C78   C     C_3   0.940251 0.517654 0.950552 -0.294270
C79   C     C_1   0.266354 0.631640 0.860734 -0.030499
C80   C     C_3   0.992850 0.577479 0.938616 -0.448038
C81   C     C_3   0.108681 0.397513 0.044572 -0.311234
C82   C     C_3   0.151360 0.336815 0.073065 -0.436109
C83   C     C_3   0.589701 0.747190 0.939112 -0.278420
C84   C     C_3   0.571136 0.640577 0.944709 -0.431110
C85   C     C_3   0.422310 0.968463 0.059806 -0.279618
C86   C     C_3   0.363258 0.939407 0.041179 -0.437746
C87   C     C_3   0.099205 0.309440 0.936501 -0.288263
C88   C     C_3   0.096837 0.198476 0.928908 -0.430629
C89   C     C_3   0.923125 0.475636 0.064099 -0.284036
C90   C     C_1   0.734295 0.636341 0.138486 -0.020920
C91   C     C_3   0.873904 0.407131 0.075710 -0.430230
C92   C     C_3   0.351440 0.523283 0.053942 -0.274140
C93   C     C_3   0.370280 0.597196 0.091577 -0.428470
C94   C     C_3   0.697298 0.427983 0.953738 -0.278955
C95   C     C_3   0.744193 0.352495 0.945139 -0.416087
C96   C     C_3   0.852131 0.025527 0.054880 -0.272843
C97   C     C_3   0.871458 0.097089 0.093413 -0.429585
C98   C     C_3   0.195021 0.928918 0.953202 -0.277819
C99   C     C_3   0.241558 0.851735 0.947215 -0.421448
C100  C     C_3   0.145979 0.645510 0.049328 -0.276455
C101  C     C_1   0.767191 0.133211 0.861117 -0.030707
C102  C     C_3   0.153946 0.748956 0.068712 -0.434522
C103  C     C_3   0.795446 0.757857 0.940610 -0.272104
C104  C     C_3   0.858180 0.745317 0.928560 -0.442078
C105  C     C_3   0.646896 0.149675 0.049902 -0.273800
C106  C     C_3   0.654546 0.250008 0.072892 -0.433504
C107  C     C_3   0.278790 0.269031 0.938209 -0.271577
C108  C     C_3   0.340317 0.269774 0.921648 -0.442405
C109  C     C_R   0.715351 0.005676 0.184193 0.541248
C110  C     C_1   0.233564 0.138495 0.137721 -0.023514
C111  C     C_R   0.301473 0.563875 0.977583 -0.133953
C112  C     C_R   0.719919 0.529136 0.024965 -0.122268
C113  C     C_R   0.803056 0.068901 0.978540 -0.135479
C114  C     C_R   0.217960 0.031155 0.024129 -0.128126
C115  C     C_R   0.298923 0.556727 0.026700 0.008708
C116  C     C_R   0.721881 0.519004 0.976146 0.012115
C117  C     C_R   0.800261 0.061829 0.027641 0.006356
C118  C     C_R   0.219163 0.020720 0.975249 0.010710
C119  C     C_R   0.199086 0.611048 0.023285 0.031643
C120  C     C_R   0.784493 0.506612 0.815596 0.540560
C121  C     C_R   0.773985 0.674017 0.970810 0.031193
C122  C     C_R   0.700723 0.118074 0.023992 0.037570
C123  C     C_R   0.265639 0.180632 0.968812 0.034740
C124  C     C_R   0.201587 0.612835 0.973367 0.015565
C125  C     C_R   0.776105 0.678539 0.020857 0.016392
C126  C     C_R   0.703735 0.121054 0.974101 0.018838
C127  C     C_R   0.269311 0.185518 0.018757 0.016874
C128  C     C_R   0.253561 0.590298 0.950928 0.011999
C129  C     C_R   0.747120 0.606925 0.047319 0.010688
C130  C     C_R   0.755449 0.096366 0.951800 0.011419
C131  C     C_R   0.215473 0.505944 0.184304 0.539620
C132  C     C_R   0.243707 0.111186 0.045980 0.006758
C133  C     C_R   0.247387 0.579443 0.049417 0.046218
C134  C     C_R   0.748735 0.591422 0.948888 0.032280
C135  C     C_R   0.748745 0.085409 0.050233 0.040949
C136  C     C_R   0.243957 0.094556 0.947538 0.029039
C137  C     C_R   0.445685 0.823867 0.816582 0.543797
C138  C     C_R   0.553672 0.824046 0.183676 0.543004
C139  C     C_R   0.945729 0.324001 0.816607 0.541006
C140  C     C_R   0.053037 0.324126 0.184013 0.537237
C141  C     C_1   0.241711 0.561513 0.099105 -0.067862
C142  C     C_3   0.490437 0.837034 0.954346 0.060276
C143  C     C_1   0.756729 0.572477 0.899286 -0.070802
C144  C     C_1   0.742221 0.064278 0.099562 -0.067847
C145  C     C_1   0.253915 0.074382 0.898314 -0.072865
C146  C     C_1   0.260697 0.607110 0.901151 -0.075922
C147  C     C_1   0.740813 0.617563 0.097490 -0.069902
C148  C     C_1   0.762302 0.110473 0.901828 -0.076042
C149  C     C_1   0.239103 0.120971 0.096428 -0.071019
C150  C     C_1   0.232457 0.540471 0.139314 -0.039949
C151  C     C_1   0.766749 0.546523 0.859702 -0.031635
C152  C     C_1   0.732526 0.041126 0.139418 -0.035691
C153  C     C_3   0.504924 0.837756 0.046541 0.052815
C154  C     C_1   0.265608 0.047618 0.859168 -0.030606
C155  C     C_1   0.469870 0.832455 0.638695 -0.020615
C156  C     C_1   0.528205 0.833348 0.360492 -0.019369
C157  C     C_1   0.971888 0.332306 0.639562 -0.019423
C158  C     C_1   0.030221 0.333524 0.361358 -0.020683
C159  C     C_R   0.511942 0.744125 0.525899 0.048477
C160  C     C_R   0.512747 0.741433 0.475708 0.041195
C161  C     C_R   0.987434 0.241435 0.523892 0.041079
C162  C     C_R   0.988195 0.244838 0.473718 0.048530
C163  C     C_R   0.487131 0.915499 0.473804 -0.132963
C164  C     C_3   0.988510 0.338723 0.954774 0.077643
C165  C     C_R   0.482647 0.916477 0.522448 -0.133758
C166  C     C_R   0.017635 0.416549 0.478064 -0.133701
C167  C     C_R   0.013159 0.414962 0.526704 -0.132866
C168  C     C_R   0.495192 0.832336 0.548536 0.034224
C169  C     C_R   0.501942 0.829253 0.450359 0.027326
C170  C     C_R   0.998288 0.328673 0.549699 0.027130
C171  C     C_R   0.005002 0.333039 0.451537 0.034143
C172  C     C_1   0.513078 0.834421 0.400753 -0.063839
C173  C     C_1   0.483961 0.834705 0.598187 -0.065796
C174  C     C_1   0.016194 0.335832 0.401890 -0.065757
C175  C     C_3   0.002189 0.338113 0.047461 0.065252
C176  C     C_1   0.987086 0.333388 0.599321 -0.063855
C177  C     C_1   0.266051 0.631869 0.637875 -0.010481
C178  C     C_1   0.735033 0.632028 0.362054 -0.016985
C179  C     C_1   0.765110 0.131060 0.638055 -0.017421
C180  C     C_1   0.234221 0.132479 0.362142 -0.010256
C181  C     C_R   0.210612 0.547622 0.528460 -0.113253
C182  C     C_R   0.778625 0.656388 0.478572 -0.111483
C183  C     C_R   0.719463 0.153522 0.522062 -0.112136
C184  C     C_R   0.289673 0.047408 0.471485 -0.113281
C185  C     C_R   0.274688 0.673950 0.815184 0.542428
C186  C     C_3   0.467096 0.750969 0.031403 -0.230694
C187  C     C_R   0.725523 0.674364 0.184796 0.542026
C188  C     C_R   0.774772 0.174039 0.815212 0.542435
C189  C     C_R   0.225377 0.174849 0.184531 0.539413
C190  C     C_R   0.205840 0.539663 0.479839 -0.118114
C191  C     C_R   0.779849 0.648303 0.527301 -0.120173
C192  C     C_R   0.718170 0.146090 0.473300 -0.120205
C193  C     C_R   0.294298 0.039034 0.520094 -0.118141
C194  C     C_R   0.299792 0.612185 0.470761 0.019068
C195  C     C_R   0.715680 0.508629 0.522495 0.014361
C196  C     C_R   0.785434 0.009546 0.477155 0.014184
Cr1   Cr    Cr6+3 0.250680 0.837130 0.748990 1.024652
Cr2   Cr    Cr6+3 0.623910 0.707720 0.250330 1.022998
Cr3   Cr    Cr6+3 0.876090 0.207720 0.749670 1.022843
Cr4   Cr    Cr6+3 0.123910 0.207720 0.250330 1.022830
Cr5   Cr    Cr6+3 0.749320 0.837130 0.251010 1.022158
Cr6   Cr    Cr6+3 0.750680 0.337130 0.748990 1.022180
Cr7   Cr    Cr6+3 0.249320 0.337130 0.251010 1.023808
Cr8   Cr    Cr6+3 0.378160 0.960100 0.750430 1.024796
Cr9   Cr    Cr6+3 0.621840 0.960100 0.249570 1.024190
Cr10  Cr    Cr6+3 0.878160 0.460100 0.750430 1.023650
Cr11  Cr    Cr6+3 0.121840 0.460100 0.249570 1.024269
Cr12  Cr    Cr6+3 0.376090 0.707720 0.749670 1.024899
H1    H     H_    0.507556 0.994264 0.039046 0.117012
H2    H     H_    0.802789 0.713718 0.461825 0.110014
H3    H     H_    0.089699 0.454075 0.067731 0.148567
H4    H     H_    0.559871 0.623043 0.981496 0.139936
H5    H     H_    0.535180 0.624193 0.920502 0.148109
H6    H     H_    0.606699 0.591441 0.934369 0.138143
H7    H     H_    0.589248 0.764980 0.900962 0.143519
H8    H     H_    0.634995 0.750932 0.949961 0.144430
H9    H     H_    0.349759 0.988555 0.012014 0.156191
H10   H     H_    0.361574 0.862451 0.029079 0.139384
H11   H     H_    0.331676 0.948457 0.069709 0.147992
H12   H     H_    0.426080 0.941576 0.096485 0.152336
H13   H     H_    0.694134 0.209410 0.539202 0.109795
H14   H     H_    0.422094 0.049689 0.063077 0.133550
H15   H     H_    0.096662 0.158085 0.962704 0.141111
H16   H     H_    0.059334 0.178390 0.907113 0.153511
H17   H     H_    0.135150 0.174898 0.909243 0.143705
H18   H     H_    0.097171 0.345358 0.901443 0.142940
H19   H     H_    0.141793 0.327217 0.951393 0.144509
H20   H     H_    0.853530 0.376671 0.043609 0.141304
H21   H     H_    0.888648 0.347209 0.099206 0.145991
H22   H     H_    0.840928 0.449196 0.095044 0.147554
H23   H     H_    0.943389 0.498531 0.097820 0.144881
H24   H     H_    0.324572 0.023509 0.449514 0.112829
H25   H     H_    0.904903 0.543750 0.048751 0.140796
H26   H     H_    0.355413 0.672431 0.082893 0.149866
H27   H     H_    0.352743 0.577068 0.126351 0.155135
H28   H     H_    0.417332 0.596448 0.095108 0.131604
H29   H     H_    0.342608 0.452333 0.071350 0.143880
H30   H     H_    0.387525 0.510427 0.029604 0.125660
H31   H     H_    0.782425 0.386133 0.929339 0.153961
H32   H     H_    0.756823 0.316886 0.978781 0.154591
H33   H     H_    0.728127 0.296862 0.920127 0.161383
H34   H     H_    0.664146 0.395391 0.976342 0.122665
H35   H     H_    0.167557 0.508322 0.464655 0.112462
H36   H     H_    0.675720 0.446610 0.919968 0.146563
H37   H     H_    0.857762 0.173218 0.085370 0.146993
H38   H     H_    0.853204 0.076194 0.127821 0.155165
H39   H     H_    0.918452 0.094515 0.097310 0.132163
H40   H     H_    0.842253 0.954036 0.071384 0.143209
H41   H     H_    0.888326 0.012590 0.030664 0.127023
H42   H     H_    0.279817 0.883141 0.930402 0.155702
H43   H     H_    0.253908 0.820520 0.981923 0.153986
H44   H     H_    0.225309 0.792768 0.924095 0.162353
H45   H     H_    0.160293 0.898945 0.974985 0.121983
H46   H     H_    0.805981 0.698243 0.547728 0.109991
H47   H     H_    0.175298 0.945777 0.918465 0.150668
H48   H     H_    0.189465 0.750928 0.094675 0.160483
H49   H     H_    0.163324 0.800270 0.039741 0.141896
H50   H     H_    0.114419 0.773524 0.086401 0.135906
H51   H     H_    0.107172 0.644383 0.027009 0.126419
H52   H     H_    0.136548 0.596067 0.079093 0.148872
H53   H     H_    0.864536 0.677858 0.907265 0.164319
H54   H     H_    0.872456 0.809207 0.907668 0.138387
H55   H     H_    0.884725 0.740648 0.960932 0.142143
H56   H     H_    0.770486 0.762497 0.907312 0.144394
H57   H     H_    0.690832 0.195016 0.453220 0.109490
H58   H     H_    0.788042 0.829750 0.957978 0.142014
H59   H     H_    0.664916 0.305305 0.045867 0.139623
H60   H     H_    0.614510 0.272320 0.090471 0.136167
H61   H     H_    0.689195 0.248115 0.099636 0.161691
H62   H     H_    0.608887 0.153151 0.026707 0.128043
H63   H     H_    0.635990 0.095307 0.077370 0.147954
H64   H     H_    0.349894 0.202682 0.900933 0.166592
H65   H     H_    0.347114 0.334648 0.898863 0.141158
H66   H     H_    0.370098 0.274548 0.951968 0.140999
H67   H     H_    0.250300 0.269633 0.906798 0.143057
H68   H     H_    0.332575 0.007062 0.535246 0.112623
H69   H     H_    0.268770 0.338502 0.956935 0.145411
H70   H     H_    0.341618 0.652250 0.535866 0.110465
H71   H     H_    0.689276 0.468210 0.452064 0.104235
H72   H     H_    0.813095 0.969431 0.547279 0.103750
H73   H     H_    0.574866 0.896159 0.953626 0.118753
H74   H     H_    0.158564 0.153916 0.464175 0.110625
H75   H     H_    0.579771 0.749114 0.031177 0.150026
H76   H     H_    0.420316 0.935231 0.966580 0.151961
H77   H     H_    0.076508 0.254664 0.024578 0.158399
H78   H     H_    0.906352 0.390001 0.979449 0.131720
H79   H     H_    0.409592 0.765248 0.971369 0.108028
H80   H     H_    0.487799 0.680122 0.041011 0.105888
H81   H     H_    0.923896 0.223166 0.964121 0.112213
H82   H     H_    0.988921 0.177838 0.045078 0.108655
H83   H     H_    0.464594 0.680585 0.962456 0.123171
H84   H     H_    0.002396 0.493450 0.031014 0.116670
H85   H     H_    0.426550 0.754175 0.050518 0.128922
H86   H     H_    0.994439 0.177194 0.964769 0.125574
H87   H     H_    0.924938 0.248040 0.043129 0.133569
H88   H     H_    0.341199 0.548803 0.959788 0.106858
H89   H     H_    0.698135 0.474856 0.045880 0.105719
H90   H     H_    0.842606 0.052231 0.960797 0.106743
H91   H     H_    0.198118 0.975245 0.045420 0.108583
H92   H     H_    0.156074 0.639129 0.906173 0.142445
H93   H     H_    0.115856 0.583395 0.951249 0.105725
H94   H     H_    0.133238 0.712782 0.954550 0.130605
H95   H     H_    0.060127 0.435003 0.964898 0.119833
H96   H     H_    0.840071 0.721294 0.071416 0.132518
H97   H     H_    0.833983 0.805630 0.024221 0.121458
H98   H     H_    0.779655 0.802818 0.068155 0.134618
H99   H     H_    0.659743 0.154787 0.906850 0.141813
H100  H     H_    0.619093 0.093478 0.949666 0.108073
H101  H     H_    0.635594 0.222595 0.956484 0.128049
H102  H     H_    0.334199 0.233436 0.067360 0.133729
H103  H     H_    0.324160 0.316002 0.019820 0.124342
H104  H     H_    0.272151 0.311295 0.065384 0.133045
H105  H     H_    0.619953 0.686183 0.554997 0.160233
H106  H     H_    0.479184 0.982530 0.454340 0.116310
H107  H     H_    0.583667 0.735649 0.605495 0.161878
H108  H     H_    0.597549 0.606274 0.601713 0.135330
H109  H     H_    0.495465 0.641551 0.582448 0.149421
H110  H     H_    0.532875 0.587013 0.535686 0.137405
H111  H     H_    0.608573 0.688832 0.425646 0.171265
H112  H     H_    0.607759 0.616399 0.478787 0.159385
H113  H     H_    0.594247 0.559139 0.422732 0.137274
H114  H     H_    0.502268 0.583614 0.464908 0.124151
H115  H     H_    0.505019 0.650118 0.412807 0.151928
H116  H     H_    0.891734 0.190048 0.573887 0.170994
H117  H     H_    0.469314 0.983425 0.539893 0.116103
H118  H     H_    0.892309 0.118368 0.520361 0.159463
H119  H     H_    0.905977 0.060050 0.576097 0.137035
H120  H     H_    0.997809 0.083252 0.533819 0.124361
H121  H     H_    0.995302 0.149073 0.586277 0.151665
H122  H     H_    0.880053 0.188988 0.444341 0.159800
H123  H     H_    0.916346 0.239339 0.394292 0.161977
H124  H     H_    0.902596 0.110092 0.396962 0.135025
H125  H     H_    0.004549 0.142721 0.416639 0.149715
H126  H     H_    0.967062 0.088303 0.463111 0.137358
H127  H     H_    0.383613 0.676348 0.461765 0.126159
H128  H     H_    0.031015 0.483477 0.460967 0.115959
H129  H     H_    0.364213 0.584764 0.418956 0.135321
H130  H     H_    0.332361 0.705816 0.416519 0.139372
H131  H     H_    0.658710 0.383456 0.519338 0.112614
H132  H     H_    0.711341 0.379718 0.565753 0.144896
H133  H     H_    0.650725 0.461276 0.570042 0.132049
H134  H     H_    0.844834 0.886647 0.479459 0.113082
H135  H     H_    0.792504 0.882089 0.432847 0.144297
H136  H     H_    0.851475 0.966203 0.429429 0.132165
H137  H     H_    0.116331 0.178175 0.538267 0.126556
H138  H     H_    0.135674 0.086006 0.580789 0.135326
H139  H     H_    0.021147 0.481560 0.546519 0.116352
H140  H     H_    0.167404 0.206572 0.583732 0.139349
H141  H     H_    0.408697 0.106946 0.958195 0.159688
H142  H     H_    0.461529 0.142036 0.001708 0.141847
H143  H     H_    0.468004 0.183034 0.942034 0.139071
H144  H     H_    0.533807 0.042760 0.963721 0.127240
H145  H     H_    0.489349 0.022370 0.913257 0.160754
H146  H     H_    0.676840 0.786897 0.027366 0.161902
H147  H     H_    0.676598 0.886039 0.984627 0.147314
H148  H     H_    0.702111 0.905786 0.043431 0.155216
H149  H     H_    0.601060 0.970977 0.024190 0.134129
H150  H     H_    0.175800 0.524108 0.550422 0.112711
H151  H     H_    0.611842 0.901425 0.076769 0.161747
H152  H     H_    0.017391 0.596612 0.970744 0.127482
H153  H     H_    0.019840 0.537644 0.913003 0.152590
H154  H     H_    0.979251 0.647168 0.921697 0.140371
H155  H     H_    0.917411 0.500828 0.917115 0.157709
H156  H     H_    0.910903 0.565407 0.970691 0.144858
H157  H     H_    0.130176 0.294599 0.101118 0.167019
H158  H     H_    0.173195 0.284719 0.049283 0.157590
H159  H     H_    0.183298 0.385444 0.089587 0.150414
H160  H     H_    0.133120 0.436895 0.017300 0.148847
O1    O     O_R   0.237900 0.735050 0.799950 -0.511903
O2    O     O_R   0.566580 0.739640 0.301090 -0.510887
O3    O     O_R   0.933420 0.239640 0.698910 -0.511160
O4    O     O_R   0.066580 0.239640 0.301090 -0.509291
O5    O     O_R   0.323550 0.666510 0.701520 -0.496172
O6    O     O_R   0.676450 0.666510 0.298480 -0.496574
O7    O     O_R   0.823550 0.166510 0.701520 -0.496650
O8    O     O_R   0.176450 0.166510 0.298480 -0.495177
O9    O     O_3   0.334980 0.834990 0.749700 -0.250058
O10   O     O_3   0.665020 0.834990 0.250300 -0.249073
O11   O     O_3   0.834980 0.334990 0.749700 -0.249091
O12   O     O_R   0.762100 0.735050 0.200050 -0.510247
O13   O     O_3   0.165020 0.334990 0.250300 -0.249806
O14   O     O_R   0.256160 0.936210 0.796950 -0.496682
O15   O     O_R   0.743840 0.936210 0.203050 -0.497361
O16   O     O_R   0.756160 0.436210 0.796950 -0.495840
O17   O     O_R   0.243840 0.436210 0.203050 -0.498369
O18   O     O_R   0.333710 0.029860 0.801630 -0.510138
O19   O     O_R   0.666290 0.029860 0.198370 -0.511450
O20   O     O_R   0.833710 0.529860 0.801630 -0.512281
O21   O     O_R   0.166290 0.529860 0.198370 -0.509578
O22   O     O_R   0.425340 0.901920 0.798280 -0.497446
O23   O     O_R   0.737900 0.235050 0.799950 -0.512052
O24   O     O_R   0.574660 0.901920 0.201720 -0.499360
O25   O     O_R   0.925340 0.401920 0.798280 -0.498083
O26   O     O_R   0.074660 0.401920 0.201720 -0.496494
O27   O     O_R   0.433530 0.738890 0.801610 -0.509864
O28   O     O_R   0.566470 0.738890 0.198390 -0.507633
O29   O     O_R   0.933530 0.238890 0.801610 -0.510124
O30   O     O_R   0.066470 0.238890 0.198390 -0.510861
O31   O     O_R   0.323650 0.665810 0.796720 -0.494360
O32   O     O_R   0.676350 0.665810 0.203280 -0.494229
O33   O     O_R   0.823650 0.165810 0.796720 -0.493966
O34   O     O_R   0.262100 0.235050 0.200050 -0.509853
O35   O     O_R   0.176350 0.165810 0.203280 -0.495786
O36   O     O_R   0.237790 0.735800 0.697250 -0.506255
O37   O     O_R   0.762210 0.735800 0.302750 -0.508159
O38   O     O_R   0.737790 0.235800 0.697250 -0.507827
O39   O     O_R   0.262210 0.235800 0.302750 -0.506098
O40   O     O_R   0.256050 0.936910 0.701750 -0.495051
O41   O     O_R   0.743950 0.936910 0.298250 -0.497009
O42   O     O_R   0.756050 0.436910 0.701750 -0.497283
O43   O     O_R   0.243950 0.436910 0.298250 -0.494457
O44   O     O_R   0.333600 0.030610 0.698930 -0.507137
O45   O     O_R   0.425240 0.902610 0.703070 -0.493306
O46   O     O_R   0.666400 0.030610 0.301070 -0.506446
O47   O     O_R   0.833600 0.530610 0.698930 -0.505997
O48   O     O_R   0.166400 0.530610 0.301070 -0.507205
O49   O     O_R   0.574760 0.902610 0.296930 -0.492892
O50   O     O_R   0.925240 0.402610 0.703070 -0.492084
O51   O     O_R   0.074760 0.402610 0.296930 -0.493852
O52   O     O_R   0.433420 0.739640 0.698910 -0.510130

loop_
_geom_bond_atom_site_label_1
_geom_bond_atom_site_label_2
_ccdc_geom_bond_type
C60   C127  S    
C101  C148  T    
C113  H90   S    
Cr9   O24   S    
C4    H70   S    
C30   O40   A    
C5    H71   S    
C81   H160  S    
Cr3   O7    S    
Cr9   O46   S    
C14   C195  A    
C6    H72   S    
C6    C196  A    
C170  C176  S    
C34   C155  S    
C56   H92   S    
C59   C126  S    
C4    C194  A    
C106  H59   S    
C53   C137  S    
C49   C153  S    
C38   O51   A    
C163  C165  A    
C97   H37   S    
Cr11  O21   S    
C184  C193  A    
C72   H135  S    
C55   C139  S    
C70   H129  S    
Cr8   O22   S    
C16   C193  A    
C134  C143  S    
Cr8   O44   S    
C162  C171  A    
C73   H140  S    
C42   C180  S    
C187  O32   A    
C120  O16   A    
Cr10  O50   S    
C45   C78   S    
C112  C129  A    
C47   C50   S    
C101  C188  S    
C107  H67   S    
C85   H14   S    
Cr4   O13   S    
C23   C179  T    
C24   H81   S    
Cr12  O31   S    
C143  C151  T    
C190  H35   S    
Cr1   O1    S    
C24   C164  S    
C104  H54   S    
C96   H41   S    
C163  H106  S    
Cr3   O11   S    
C69   H123  S    
C68   C164  S    
C188  O33   A    
C91   H22   S    
C50   C164  S    
C31   O46   A    
C64   H111  S    
C99   H43   S    
C108  H65   S    
C59   H101  S    
C44   H75   S    
C45   H78   S    
C75   H142  S    
Cr11  O51   S    
C40   O6    A    
Cr10  O25   S    
C97   H39   S    
C181  C190  A    
Cr2   O32   S    
C56   H93   S    
C16   C20   S    
Cr6   O11   S    
Cr11  O13   S    
C95   H31   S    
C89   H23   S    
C137  O27   A    
C95   H33   S    
C15   C196  A    
C167  H139  S    
C81   H3    S    
C114  H91   S    
C103  C121  S    
Cr10  O47   S    
C118  C136  A    
C105  H62   S    
C13   C175  S    
Cr1   O36   S    
C39   O36   A    
C72   C196  S    
C24   H86   S    
C93   H26   S    
Cr2   O10   S    
C3    C7    A    
C32   O47   A    
Cr4   O8    S    
C63   H114  S    
Cr4   O30   S    
Cr10  O11   S    
C35   C52   T    
C67   C162  S    
C67   H126  S    
C46   C53   T    
C138  O24   A    
C47   C81   S    
C1    C154  S    
C129  C147  S    
C125  C129  A    
C98   C99   S    
C90   C187  S    
C65   C161  S    
C187  O12   A    
C185  O31   A    
C43   C142  S    
C41   O38   A    
C39   O5    A    
C44   C48   S    
C2    H79   S    
C8    C181  A    
C91   H20   S    
C66   H119  S    
C137  O22   A    
C59   H99   S    
C83   H8    S    
C25   C180  T    
C77   H146  S    
C85   C86   S    
C41   O7    A    
C61   H109  S    
C92   H30   S    
C90   C147  T    
Cr2   O6    S    
C78   C80   S    
C11   C25   S    
C182  H2    S    
C86   H10   S    
C37   C157  S    
Cr11  O48   S    
C44   C76   S    
C186  H85   S    
C120  O20   A    
C123  C127  A    
C131  O21   A    
C72   H134  S    
C107  C108  S    
C88   H16   S    
C9    C182  A    
C89   C91   S    
C95   H32   S    
C64   H113  S    
C100  H51   S    
C73   H137  S    
C13   H82   S    
C168  C173  S    
C188  O23   A    
C98   H47   S    
C158  C174  T    
C141  C150  T    
C98   C118  S    
C79   C146  T    
C93   H28   S    
C191  H46   S    
C113  C130  A    
C96   C117  S    
C55   C68   T    
Cr5   O37   S    
C156  C172  T    
C102  H50   S    
C66   H116  S    
C5    C9    A    
C29   C30   S    
Cr12  O27   S    
C26   C33   S    
C71   C195  S    
C83   C84   S    
C189  O34   A    
C87   H18   S    
C75   H143  S    
C100  C119  S    
C19   C28   T    
C50   C87   S    
C113  C117  A    
C145  C154  T    
C82   H158  S    
C2    C142  S    
C40   C178  S    
C161  C170  A    
C65   H120  S    
C112  C116  A    
C65   H121  S    
C84   H5    S    
C77   H148  S    
C78   H156  S    
C120  C151  S    
C185  O1    A    
C71   H133  S    
C41   C179  S    
C11   C184  A    
C35   C153  S    
C140  O30   A    
C48   H73   S    
Cr2   O28   S    
C106  H60   S    
C48   C83   S    
C76   H151  S    
C144  C152  T    
C128  C146  S    
C21   C177  T    
C72   H136  S    
C105  C122  S    
C74   H145  S    
C102  H48   S    
C192  H57   S    
C61   C62   S    
C3    C73   S    
C63   H115  S    
C157  C176  T    
C63   C64   S    
C106  H61   S    
C111  C128  A    
C80   H153  S    
C98   H45   S    
C58   H96   S    
C3    C16   A    
C54   C57   T    
C87   C88   S    
C132  C149  S    
C38   O4    A    
Cr4   O4    S    
C107  C123  S    
Cr3   O29   S    
C183  C192  A    
C161  C162  A    
C69   H122  S    
C46   C142  S    
C193  H68   S    
C15   C19   S    
C189  O35   A    
C138  O28   A    
C91   H21   S    
C56   C124  S    
C64   H112  S    
C85   H12   S    
C58   H97   S    
C108  H66   S    
C36   O49   A    
C116  C134  A    
C153  C186  S    
C126  C130  A    
C60   H102  S    
C75   H141  S    
C71   H132  S    
Cr3   O33   S    
C70   H127  S    
C56   H94   S    
C62   H107  S    
C12   C17   S    
C52   C138  S    
C160  C169  A    
C121  C134  A    
C4    C8    A    
C124  C128  A    
Cr2   O2    S    
C10   C183  A    
C114  C132  A    
C39   C177  S    
C109  O15   A    
C70   H130  S    
C171  C174  S    
C140  O26   A    
C13   H87   S    
Cr7   O17   S    
C108  H64   S    
C109  C152  S    
C38   C158  S    
C103  H56   S    
C97   H38   S    
C94   C116  S    
C115  C133  A    
C131  O17   A    
Cr4   O35   S    
C159  C160  A    
C67   H125  S    
C70   C194  S    
Cr9   O49   S    
C36   O2    A    
C51   C175  S    
C34   O52   A    
C182  C191  A    
C17   C26   T    
Cr7   O43   S    
C36   C156  S    
C69   H124  S    
Cr5   O41   S    
Cr6   O38   S    
C27   C32   S    
Cr5   O15   S    
C28   C31   S    
C99   H44   S    
Cr7   O13   S    
C6    C10   A    
C83   H7    S    
C84   H4    S    
C105  C106  S    
C123  C136  A    
C110  C189  S    
C133  C141  S    
C33   O48   A    
Cr1   O9    S    
C30   O44   A    
Cr3   O3    S    
C51   H84   S    
C51   C89   S    
C62   H105  S    
C92   C93   S    
C86   H11   S    
C94   C95   S    
C163  C169  A    
C92   C115  S    
C122  C135  A    
C43   H76   S    
C1    O14   A    
C9    C22   S    
Cr9   O19   S    
C49   H1    S    
C103  C104  S    
Cr10  O20   S    
Cr12  O52   S    
C131  C150  S    
Cr8   O18   S    
C96   H40   S    
Cr7   O39   S    
C105  H63   S    
C15   C192  A    
C100  H52   S    
C60   H104  S    
C14   C18   S    
C22   C178  T    
C110  C149  T    
C60   H103  S    
C81   C82   S    
C119  C124  A    
C93   H27   S    
C7    C11   A    
C42   O39   A    
C119  C133  A    
C166  H128  S    
C32   O42   A    
C44   C153  S    
C45   C164  S    
C61   C159  S    
Cr7   O34   S    
Cr8   O45   S    
C45   C51   S    
C89   H25   S    
C76   H149  S    
C159  C168  A    
Cr5   O10   S    
C103  H58   S    
C94   H36   S    
C127  C132  A    
C31   O41   A    
C121  C125  A    
C54   C140  S    
C33   O43   A    
C104  H55   S    
C165  H117  S    
C136  C145  S    
C183  H13   S    
C5    C195  A    
C82   H159  S    
C155  C173  T    
C43   C74   S    
C166  C171  A    
C57   C175  S    
C139  O29   A    
C42   O8    A    
C66   H118  S    
C63   C160  S    
C99   H42   S    
Cr8   O9    S    
C59   H100  S    
C84   H6    S    
C77   H147  S    
C167  C170  A    
C20   C29   T    
C139  O25   A    
C61   H110  S    
C92   H29   S    
C74   C75   S    
C130  C148  S    
C34   O45   A    
C49   C85   S    
C76   C77   S    
C184  H24   S    
C47   H77   S    
C43   C49   S    
Cr9   O10   S    
Cr1   O40   S    
Cr6   O16   S    
C13   C24   S    
C37   O50   A    
C67   C69   S    
C86   H9    S    
C2    H83   S    
C122  C126  A    
C2    C186  S    
C88   H17   S    
C96   C97   S    
C100  C102  S    
C8    C21   S    
C88   H15   S    
C48   C142  S    
C114  C118  A    
C7    H74   S    
C37   O3    A    
C14   C191  A    
C135  C144  S    
C80   H152  S    
C73   H138  S    
C65   C66   S    
C165  C168  A    
Cr12  O9    S    
C166  C167  A    
C169  C172  S    
C107  H69   S    
C80   H154  S    
Cr11  O26   S    
C111  H88   S    
C79   C185  S    
C12   C194  A    
C18   C27   T    
C50   H95   S    
C109  O19   A    
C10   C23   S    
C12   C190  A    
C87   H19   S    
C112  H89   S    
C102  H49   S    
C181  H150  S    
Cr5   O12   S    
C40   O37   A    
C94   H34   S    
C58   H98   S    
C186  H80   S    
Cr6   O23   S    
Cr1   O14   S    
C71   H131  S    
C47   C175  S    
C82   H157  S    
C74   H144  S    
Cr6   O42   S    
C58   C125  S    
C62   H108  S    
C1    O18   A    
C104  H53   S    
Cr12  O5    S    
C111  C115  A    
C78   H155  S    
C117  C135  A    
