data_mof_unit_32997.cif
_audit_creation_date              2012-12-10T20:40:05-0500
_audit_creation_method            fapswitch 2.2
_symmetry_space_group_name_H-M    P1
_symmetry_Int_Tables_number       1
_space_group_crystal_system       triclinic
_cell_length_a                    23.395897
_cell_length_b                    10.673672
_cell_length_c                    9.856533
_cell_angle_alpha                 89.725773
_cell_angle_beta                  89.60158
_cell_angle_gamma                 89.705013
_cell_volume                      2461.25480662

loop_
_atom_site_label
_atom_site_type_symbol
_atom_type_description
_atom_site_fract_x
_atom_site_fract_y
_atom_site_fract_z
_atom_type_partial_charge
C1    C     C_R   0.502463 0.260074 0.500377 0.895471
C2    C     C_R   0.970103 0.265525 0.590404 -0.155786
C3    C     C_R   0.029635 0.263237 0.588407 -0.156672
C4    C     C_R   0.060292 0.363846 0.532231 -0.017210
C5    C     C_R   0.030685 0.466775 0.475965 -0.021388
C6    C     C_R   0.060994 0.568024 0.418831 -0.016654
C7    C     C_R   0.031180 0.670091 0.362844 -0.156687
C8    C     C_R   0.971721 0.672621 0.365392 -0.156835
C9    C     C_R   0.120024 0.365759 0.533027 0.510928
C10   C     C_R   0.120611 0.565283 0.421326 0.507939
C11   C     C_R   0.233951 0.556307 0.578675 -0.073869
C12   C     C_R   0.389442 0.499735 0.500483 0.861222
C13   C     C_R   0.293045 0.567373 0.584663 0.051331
C14   C     C_R   0.327498 0.490786 0.500641 -0.073817
C15   C     C_R   0.302191 0.404423 0.413010 -0.256818
C16   C     C_R   0.243153 0.394365 0.407808 -0.090740
C17   C     C_R   0.209137 0.470836 0.490001 0.264882
C18   C     C_R   0.761339 0.473039 0.370089 -0.098268
C19   C     C_R   0.702160 0.480202 0.372920 -0.215215
C20   C     C_R   0.673080 0.494148 0.497108 -0.036515
C21   C     C_R   0.704002 0.500787 0.618377 -0.217534
C22   C     C_R   0.763329 0.494016 0.615124 -0.097483
C23   C     C_R   0.502846 0.740126 0.499436 0.913971
C24   C     C_R   0.791920 0.480228 0.490973 0.315765
C25   C     C_R   0.512692 0.063459 0.623521 0.070247
C26   C     C_R   0.513688 0.129368 0.501648 -0.107971
C27   C     C_R   0.527866 0.067381 0.381018 -0.279771
C28   C     C_R   0.528403 0.937208 0.378714 0.097850
C29   C     C_R   0.513866 0.871496 0.499029 -0.145955
C30   C     C_R   0.512338 0.935574 0.622048 0.072365
C31   C     C_3   0.472111 0.930319 0.741728 0.237566
C32   C     C_3   0.473359 0.073328 0.743523 -0.570796
C33   C     C_R   0.449774 0.494191 0.071571 0.179424
C34   C     C_R   0.610753 0.499263 0.499397 0.870169
C35   C     C_R   0.549189 0.516845 0.071076 -0.131707
C36   C     C_R   0.549205 0.516651 0.927229 -0.113340
C37   C     C_R   0.449795 0.495572 0.929089 0.180890
C38   C     C_3   0.405403 0.396624 0.920148 -0.479926
C39   C     C_3   0.405169 0.393024 0.074378 -0.148354
C40   C     C_R   0.881503 0.574591 0.429708 0.503932
C41   C     C_R   0.880559 0.374082 0.539311 0.504793
C42   C     C_R   0.940250 0.368535 0.536421 -0.015565
C43   C     C_R   0.970632 0.469210 0.478262 -0.020830
C44   C     C_R   0.941120 0.572956 0.423609 -0.015135
H1    H     H_    0.947621 0.186915 0.635188 0.194513
H2    H     H_    0.679304 0.474171 0.278035 0.153466
H3    H     H_    0.682487 0.511479 0.715290 0.152396
H4    H     H_    0.787165 0.500198 0.708626 0.143104
H5    H     H_    0.534714 0.118586 0.287115 0.166397
H6    H     H_    0.431924 0.118870 0.717870 0.194749
H7    H     H_    0.495153 0.113607 0.833101 0.196741
H8    H     H_    0.589029 0.528684 0.124184 0.151004
H9    H     H_    0.051497 0.183033 0.631905 0.194043
H10   H     H_    0.589099 0.528204 0.872867 0.147047
H11   H     H_    0.364735 0.433047 0.877503 0.186768
H12   H     H_    0.421808 0.309964 0.870988 0.216899
H13   H     H_    0.363840 0.423881 0.119977 0.175244
H14   H     H_    0.053644 0.748780 0.318167 0.194464
H15   H     H_    0.949889 0.753095 0.322391 0.194540
H16   H     H_    0.207007 0.616084 0.640846 0.153361
H17   H     H_    0.223763 0.328618 0.338828 0.152791
H18   H     H_    0.783578 0.462215 0.274085 0.142530
N1    N     N_R   0.852743 0.476214 0.486951 -0.359004
N2    N     N_R   0.148561 0.466155 0.479605 -0.355493
N3    N     N_R   0.499610 0.499140 0.142800 -0.112139
N4    N     N_R   0.499610 0.499180 0.857150 -0.100045
O1    O     O_R   0.500010 0.316790 0.614690 -0.609979
O2    O     O_2   0.850431 0.278272 0.593207 -0.553195
O3    O     O_2   0.149424 0.269493 0.588608 -0.554325
O4    O     O_2   0.150616 0.661031 0.366813 -0.552991
O5    O     O_R   0.500000 0.316760 0.385350 -0.643217
O6    O     O_R   0.416160 0.499980 0.614700 -0.621116
O7    O     O_R   0.416150 0.499940 0.385360 -0.621639
O8    O     O_R   0.500000 0.683240 0.614650 -0.591036
O9    O     O_R   0.499990 0.683210 0.385310 -0.588347
O10   O     O_R   0.583850 0.500060 0.614640 -0.632002
O11   O     O_R   0.583840 0.500020 0.385300 -0.629099
O12   O     O_2   0.852348 0.673997 0.380062 -0.553679
Zn1   Zn    Zn3+2 0.500000 0.500020 0.653130 0.959194
Zn2   Zn    Zn3+2 0.500000 0.499980 0.346870 0.946164
N5    N     N_3   0.540319 0.873967 0.253606 -0.418656
H19   H     H_    0.580902 0.901076 0.219888 0.184363
H20   H     H_    0.510575 0.904392 0.181816 0.176390
N6    N     N_3   0.416039 0.878069 0.709782 -0.436454
H21   H     H_    0.388009 0.899513 0.789543 0.194507
H22   H     H_    0.399740 0.921745 0.622845 0.169023
N7    N     N_3   0.497693 0.870159 0.860860 -0.410586
H23   H     H_    0.537976 0.908518 0.879193 0.172789
H24   H     H_    0.472054 0.890966 0.945160 0.174467
N8    N     N_3   0.425154 0.271888 0.126584 -0.436431
H25   H     H_    0.468740 0.259246 0.105958 0.201759
H26   H     H_    0.419350 0.271346 0.231631 0.219331
N9    N     N_3   0.316565 0.662175 0.669622 -0.452769
H27   H     H_    0.342015 0.619670 0.743417 0.209233
H28   H     H_    0.342132 0.719976 0.609033 0.197166
H29   H     H_    0.328185 0.344521 0.348905 0.149855

loop_
_geom_bond_atom_site_label_1
_geom_bond_atom_site_label_2
_ccdc_geom_bond_type
C22   H4    S    
N7    H23   S    
N9    H27   S    
C9    N2    A    
C3    H9    S    
C41   C42   A    
C19   C20   A    
O10   Zn1   S    
N5    H19   S    
C19   H2    S    
C33   N3    A    
C7    C8    A    
N4    Zn1   S    
C26   C27   A    
C1    O5    A    
C40   N1    A    
C18   C24   A    
C5    C6    A    
C23   C29   S    
C28   C29   A    
C9    O3    S    
O6    Zn1   S    
C8    H15   S    
C30   C31   S    
C36   N4    A    
C35   N3    A    
C15   C16   A    
C39   H13   S    
C18   C19   A    
C38   H11   S    
C35   C36   A    
C16   C17   A    
C13   C14   A    
C29   C30   A    
O9    Zn2   S    
C39   N8    S    
C20   C34   S    
C25   C32   S    
C5    C43   A    
N9    H28   S    
N3    Zn2   S    
C21   C22   A    
O5    Zn2   S    
N5    H20   S    
C41   O2    S    
C2    H1    S    
C31   N7    S    
O1    Zn1   S    
N6    H21   S    
C23   O9    A    
C15   H29   S    
C18   H18   S    
C25   C26   A    
C33   C37   A    
C31   N6    S    
C13   N9    S    
C43   C44   A    
C32   H7    S    
C37   C38   S    
N8    H26   S    
C31   C32   S    
C37   N4    A    
C33   C39   S    
C32   H6    S    
C10   O4    S    
C12   C14   S    
C24   N1    S    
O8    Zn1   S    
N7    H24   S    
C1    C26   S    
C22   C24   A    
C16   H17   S    
C41   N1    A    
C23   O8    A    
C11   H16   S    
C35   H8    S    
O11   Zn2   S    
C25   C30   A    
C11   C17   A    
C7    H14   S    
C28   N5    S    
C10   N2    A    
C8    C44   A    
N6    H22   S    
C4    C5    A    
C6    C10   A    
C6    C7    A    
C2    C3    A    
C34   O11   A    
C11   C13   A    
N8    H25   S    
C38   C39   S    
C2    C42   A    
C1    O1    A    
O7    Zn2   S    
C40   O12   S    
C12   O6    A    
C36   H10   S    
C27   H5    S    
C40   C44   A    
C38   H12   S    
C20   C21   A    
C42   C43   A    
C27   C28   A    
C14   C15   A    
C17   N2    S    
C4    C9    A    
C12   O7    A    
C3    C4    A    
C34   O10   A    
C21   H3    S    
