data_mof_unit_18484.cif
_audit_creation_date              2012-12-11T16:07:25-0500
_audit_creation_method            fapswitch 2.2
_symmetry_space_group_name_H-M    P1
_symmetry_Int_Tables_number       1
_space_group_crystal_system       triclinic
_cell_length_a                    17.123934
_cell_length_b                    17.116065
_cell_length_c                    17.314528
_cell_angle_alpha                 89.983687
_cell_angle_beta                  89.937796
_cell_angle_gamma                 89.963307
_cell_volume                      5074.78639489

loop_
_atom_site_label
_atom_site_type_symbol
_atom_type_description
_atom_site_fract_x
_atom_site_fract_y
_atom_site_fract_z
_atom_type_partial_charge
C1    C     C_R   0.421594 0.670537 0.645320 -0.083245
C2    C     C_R   0.605601 0.698373 0.605913 -0.122175
C3    C     C_3   0.759665 0.288503 0.726085 -0.020526
C4    C     C_3   0.708551 0.765230 0.268725 -0.030499
C5    C     C_3   0.228281 0.187122 0.639333 -0.048210
C6    C     C_3   0.771893 0.187136 0.360763 -0.050842
C7    C     C_3   0.282486 0.758499 0.724996 -0.031553
C8    C     C_3   0.740589 0.780852 0.777196 -0.042462
C9    C     C_3   0.314366 0.265949 0.141591 -0.057664
C10   C     C_3   0.685254 0.265818 0.858527 -0.056626
C11   C     C_3   0.259965 0.788876 0.226448 -0.020417
C12   C     C_3   0.217181 0.259069 0.774608 -0.032537
C13   C     C_R   0.698634 0.393958 0.394949 -0.129974
C14   C     C_3   0.737956 0.680996 0.143293 -0.034741
C15   C     C_3   0.272192 0.687472 0.860823 -0.049745
C16   C     C_3   0.782764 0.258773 0.225290 -0.041816
C17   C     C_2   0.197558 0.298151 0.349423 0.988442
C18   C     C_2   0.850324 0.765266 0.563682 1.034277
C19   C     C_2   0.142587 0.750937 0.432762 1.039220
C20   C     C_2   0.802591 0.299094 0.651179 0.987095
C21   C     C_2   0.694360 0.816313 0.337860 0.999979
C22   C     C_2   0.236454 0.147899 0.562554 1.029164
C23   C     C_2   0.763825 0.148113 0.437661 1.033423
C24   C     C_R   0.327308 0.579377 0.643900 -0.089417
C25   C     C_2   0.286122 0.802227 0.649820 1.009814
C26   C     C_2   0.694563 0.780175 0.851295 1.015021
C27   C     C_2   0.356109 0.252295 0.066769 1.040250
C28   C     C_2   0.643324 0.251787 0.933169 1.039371
C29   C     C_2   0.303273 0.799941 0.151829 0.986709
C30   C     C_2   0.213095 0.303331 0.849433 1.010520
C31   C     C_2   0.755663 0.634989 0.071896 1.004702
C32   C     C_2   0.264438 0.648790 0.937924 1.031551
C33   C     C_2   0.786702 0.302915 0.150368 1.024930
C34   C     C_R   0.579287 0.671522 0.355310 -0.116833
C35   C     C_R   0.393002 0.301381 0.604519 -0.110525
C36   C     C_R   0.301974 0.606260 0.393427 -0.109304
C37   C     C_R   0.669720 0.422292 0.645836 -0.121453
C38   C     C_R   0.921486 0.170620 0.145266 -0.092666
C39   C     C_R   0.106911 0.801457 0.895169 -0.108657
C40   C     C_R   0.197959 0.106126 0.106777 -0.108889
C41   C     C_R   0.607014 0.301404 0.395398 -0.111620
C42   C     C_R   0.829547 0.921749 0.854640 -0.049396
C43   C     C_R   0.078157 0.828383 0.144583 -0.045459
C44   C     C_R   0.894358 0.198224 0.893462 -0.139517
C45   C     C_R   0.800999 0.893320 0.103394 -0.101835
C46   C     C_R   0.172899 0.079555 0.856239 -0.087232
C47   C     C_R   0.920620 0.827128 0.856325 -0.083025
C48   C     C_R   0.105548 0.198172 0.106638 -0.139156
C49   C     C_R   0.198595 0.893978 0.894842 -0.132132
C50   C     C_R   0.827278 0.079347 0.143879 -0.090533
C51   C     C_R   0.078577 0.170799 0.854818 -0.091096
C52   C     C_R   0.698221 0.606592 0.605604 -0.118083
C53   C     C_R   0.892826 0.801011 0.103318 -0.144658
C54   C     C_R   0.802013 0.106206 0.893281 -0.116554
C55   C     C_R   0.169797 0.922155 0.145791 -0.124665
C56   C     C_3   0.321199 0.319798 0.253365 0.110732
C57   C     C_3   0.733326 0.734904 0.663152 0.119015
C58   C     C_3   0.265926 0.735040 0.336941 0.088394
C59   C     C_3   0.678545 0.320031 0.746881 0.110797
C60   C     C_3   0.681680 0.681183 0.254290 0.084076
C61   C     C_3   0.264210 0.265655 0.661026 0.066768
C62   C     C_3   0.735802 0.265597 0.338873 0.065734
C63   C     C_R   0.330038 0.422115 0.354298 -0.124902
C64   C     C_3   0.319601 0.679917 0.746184 0.090133
C65   C     C_3   0.819006 0.818287 0.755757 0.119573
C66   C     C_3   0.233829 0.234771 0.163595 0.089641
C67   C     C_3   0.766002 0.234981 0.836701 0.090274
C68   C     C_3   0.178558 0.819907 0.246870 0.110117
C69   C     C_3   0.180597 0.180172 0.753911 0.089866
C70   C     C_3   0.764068 0.764752 0.158627 0.058990
C71   C     C_3   0.235734 0.765677 0.838635 0.069550
C72   C     C_3   0.819516 0.179939 0.246181 0.089041
C73   C     C_R   0.360759 0.638331 0.686538 0.028650
C74   C     C_R   0.578153 0.328450 0.644627 -0.045389
C75   C     C_R   0.683512 0.317371 0.378777 0.086308
C76   C     C_R   0.681833 0.682846 0.623018 0.122809
C77   C     C_R   0.362944 0.361768 0.312570 0.041232
C78   C     C_R   0.636802 0.361994 0.687607 0.042981
C79   C     C_R   0.318216 0.682509 0.375858 0.113607
C80   C     C_R   0.316469 0.317358 0.621052 0.086204
C81   C     C_R   0.641082 0.640188 0.314797 0.034549
C82   C     C_R   0.860628 0.138411 0.186458 0.026925
C83   C     C_R   0.183406 0.817441 0.878498 0.086288
C84   C     C_R   0.181600 0.182303 0.124602 0.113779
C85   C     C_R   0.394319 0.698267 0.393595 -0.138687
C86   C     C_R   0.861426 0.860368 0.813875 0.047700
C87   C     C_R   0.136879 0.861832 0.187525 0.040724
C88   C     C_R   0.818293 0.182424 0.875594 0.117456
C89   C     C_R   0.815956 0.816404 0.118337 0.098113
C90   C     C_R   0.139544 0.138686 0.813686 0.025665
C91   C     C_3   0.767595 0.704821 0.739289 -0.209048
C92   C     C_3   0.291450 0.347165 0.174206 -0.187683
C93   C     C_3   0.654281 0.239834 0.779027 -0.200015
C94   C     C_3   0.289874 0.815499 0.305586 -0.213720
C95   C     C_3   0.187418 0.292843 0.698199 -0.221689
C96   C     C_R   0.301338 0.393966 0.604916 -0.131771
C97   C     C_3   0.763619 0.658256 0.225518 -0.197063
C98   C     C_3   0.349994 0.713320 0.822735 -0.144300
C99   C     C_3   0.706177 0.232008 0.262211 -0.168146
C100  C     C_3   0.812515 0.292738 0.301581 -0.216284
C101  C     C_3   0.243132 0.652349 0.784099 -0.215879
C102  C     C_3   0.654896 0.702150 0.172243 -0.156543
C103  C     C_3   0.293845 0.232263 0.737808 -0.169401
C104  C     C_3   0.236589 0.708698 0.257448 -0.203604
C105  C     C_3   0.707905 0.347223 0.826211 -0.184125
C106  C     C_3   0.345728 0.239792 0.220920 -0.196741
C107  C     C_R   0.673785 0.580348 0.356901 -0.078657
C108  C     C_3   0.705944 0.811108 0.701227 -0.230320
C109  C     C_3   0.264155 0.208147 0.242662 -0.204158
C110  C     C_3   0.785352 0.849063 0.679401 -0.191330
C111  C     C_3   0.154521 0.739488 0.278637 -0.198081
C112  C     C_3   0.790178 0.315217 0.804961 -0.216818
C113  C     C_3   0.682246 0.787538 0.187042 -0.190074
C114  C     C_3   0.257327 0.152688 0.716396 -0.215999
C115  C     C_3   0.849877 0.212848 0.322954 -0.144670
C116  C     C_3   0.206078 0.731607 0.762195 -0.169166
C117  C     C_3   0.312264 0.792953 0.801060 -0.227268
C118  C     C_R   0.421736 0.328301 0.355486 -0.044609
C119  C     C_3   0.742860 0.152500 0.283816 -0.212340
C120  C     C_3   0.150222 0.212877 0.677022 -0.143860
C121  C     C_3   0.790182 0.742918 0.240565 -0.196970
C122  C     C_3   0.736062 0.208540 0.757466 -0.205974
C123  C     C_3   0.207303 0.847007 0.326456 -0.187037
C124  C     C_3   0.846709 0.742146 0.717305 -0.218350
C125  C     C_3   0.209398 0.314817 0.195643 -0.214075
C126  C     C_3   0.240298 0.287933 0.274348 -0.021942
C127  C     C_3   0.811307 0.771614 0.640844 -0.050471
C128  C     C_3   0.184886 0.765384 0.358394 -0.055764
H1    H     H_    0.456963 0.720130 0.661359 0.143957
H2    H     H_    0.577224 0.754817 0.605083 0.108512
H3    H     H_    0.754992 0.422369 0.395866 0.098732
H4    H     H_    0.276050 0.545449 0.657802 0.099165
H5    H     H_    0.543187 0.720472 0.338982 0.152160
H6    H     H_    0.420820 0.244630 0.604212 0.128200
H7    H     H_    0.245229 0.578532 0.393532 0.119268
H8    H     H_    0.719965 0.456985 0.661419 0.102100
H9    H     H_    0.956817 0.220237 0.161298 0.144814
H10   H     H_    0.079103 0.744736 0.895388 0.124896
H11   H     H_    0.254733 0.078385 0.106675 0.118717
H12   H     H_    0.579252 0.244660 0.395726 0.128768
H13   H     H_    0.778980 0.956151 0.839303 0.087863
H14   H     H_    0.043581 0.777613 0.158693 0.092276
H15   H     H_    0.922459 0.254764 0.894418 0.113113
H16   H     H_    0.744683 0.921898 0.102604 0.092276
H17   H     H_    0.224189 0.045602 0.842386 0.097852
H18   H     H_    0.954432 0.775647 0.842737 0.092319
H19   H     H_    0.077398 0.254725 0.105706 0.113483
H20   H     H_    0.254975 0.922349 0.895796 0.097186
H21   H     H_    0.776142 0.045229 0.157808 0.098940
H22   H     H_    0.043175 0.220427 0.838805 0.144721
H23   H     H_    0.754997 0.578846 0.605451 0.113429
H24   H     H_    0.920878 0.744370 0.102977 0.111768
H25   H     H_    0.745262 0.078493 0.893380 0.115639
H26   H     H_    0.220115 0.956723 0.161376 0.102512
H27   H     H_    0.759545 0.645231 0.763478 0.134502
H28   H     H_    0.304349 0.404587 0.147263 0.149387
H29   H     H_    0.597983 0.209374 0.769066 0.129602
H30   H     H_    0.345807 0.846224 0.316709 0.158203
H31   H     H_    0.158995 0.350676 0.690888 0.145740
H32   H     H_    0.797132 0.604955 0.240860 0.151073
H33   H     H_    0.409594 0.704202 0.846245 0.177137
H34   H     H_    0.279636 0.456676 0.338797 0.101803
H35   H     H_    0.646818 0.240627 0.237785 0.152446
H36   H     H_    0.840829 0.350607 0.308707 0.147789
H37   H     H_    0.215563 0.594056 0.777485 0.138702
H38   H     H_    0.598908 0.683875 0.145548 0.155293
H39   H     H_    0.353172 0.240968 0.762252 0.152121
H40   H     H_    0.249686 0.651767 0.229465 0.139990
H41   H     H_    0.694651 0.404507 0.853271 0.152856
H42   H     H_    0.402214 0.209515 0.230627 0.131656
H43   H     H_    0.647899 0.839219 0.694600 0.140890
H44   H     H_    0.251862 0.150917 0.270403 0.139871
H45   H     H_    0.543688 0.277609 0.658734 0.089386
H46   H     H_    0.794235 0.908799 0.656014 0.145943
H47   H     H_    0.098458 0.708740 0.268256 0.131855
H48   H     H_    0.846333 0.345693 0.815641 0.155404
H49   H     H_    0.649164 0.840893 0.170950 0.145656
H50   H     H_    0.285261 0.094589 0.723500 0.137553
H51   H     H_    0.909385 0.203378 0.346550 0.169798
H52   H     H_    0.146633 0.739880 0.737856 0.151357
H53   H     H_    0.340347 0.850978 0.807839 0.141766
H54   H     H_    0.715049 0.094362 0.276882 0.140243
H55   H     H_    0.090743 0.203318 0.653420 0.169367
H56   H     H_    0.422445 0.754796 0.394540 0.114457
H57   H     H_    0.846136 0.760297 0.268075 0.159970
H58   H     H_    0.748704 0.151453 0.729592 0.138234
H59   H     H_    0.193586 0.904138 0.353611 0.150216
H60   H     H_    0.905015 0.714521 0.723674 0.134076
H61   H     H_    0.153066 0.345151 0.185253 0.156312
H62   H     H_    0.199303 0.285923 0.465141 0.326775
H63   H     H_    0.848142 0.720778 0.455880 0.344309
H64   H     H_    0.141150 0.696799 0.536183 0.342227
H65   H     H_    0.801707 0.286284 0.535540 0.326997
H66   H     H_    0.618095 0.881714 0.398639 0.332196
H67   H     H_    0.244974 0.422441 0.603966 0.098773
H68   H     H_    0.182811 0.103604 0.468751 0.335975
H69   H     H_    0.817571 0.104214 0.531645 0.336828
H70   H     H_    0.352110 0.860865 0.572741 0.330609
H71   H     H_    0.687741 0.809039 0.964076 0.344714
H72   H     H_    0.357239 0.198549 0.963174 0.343251
H73   H     H_    0.642151 0.197845 0.036694 0.343088
H74   H     H_    0.303361 0.787115 0.036193 0.326483
H75   H     H_    0.146581 0.362307 0.925844 0.331082
H76   H     H_    0.742853 0.624621 0.956678 0.326757
H77   H     H_    0.318571 0.605327 0.031891 0.335580
H78   H     H_    0.724891 0.546099 0.343176 0.096478
H79   H     H_    0.852983 0.362032 0.073900 0.339081
H80   H     H_    0.456209 0.277412 0.341436 0.089815
N1    N     N_R   0.424590 0.632770 0.578330 -0.045401
N2    N     N_R   0.575410 0.632770 0.578330 -0.050075
N3    N     N_R   0.632770 0.424590 0.421670 -0.046095
N4    N     N_R   0.367230 0.575410 0.578330 -0.041783
N5    N     N_R   0.575410 0.632770 0.421670 -0.043955
N6    N     N_R   0.424590 0.367230 0.578330 -0.052573
N7    N     N_R   0.367230 0.575410 0.421670 -0.050153
N8    N     N_R   0.632770 0.424590 0.578330 -0.039155
N9    N     N_R   0.924590 0.132770 0.078330 -0.043631
N10   N     N_R   0.075410 0.867230 0.921670 -0.051687
N11   N     N_R   0.132770 0.075410 0.078330 -0.050073
N12   N     N_R   0.575410 0.367230 0.421670 -0.052933
N13   N     N_R   0.867230 0.924590 0.921670 -0.033151
N14   N     N_R   0.075410 0.867230 0.078330 -0.042221
N15   N     N_R   0.924590 0.132770 0.921670 -0.049231
N16   N     N_R   0.867230 0.924590 0.078330 -0.046586
N17   N     N_R   0.132770 0.075410 0.921670 -0.041631
N18   N     N_R   0.924590 0.867230 0.921670 -0.042481
N19   N     N_R   0.075410 0.132770 0.078330 -0.048605
N20   N     N_R   0.132770 0.924590 0.921670 -0.045226
N21   N     N_R   0.867230 0.075410 0.078330 -0.041959
N22   N     N_R   0.075410 0.132770 0.921670 -0.043855
N23   N     N_R   0.632770 0.575410 0.578330 -0.049287
N24   N     N_R   0.924590 0.867230 0.078330 -0.048639
N25   N     N_R   0.867230 0.075410 0.921670 -0.053082
N26   N     N_R   0.132770 0.924590 0.078330 -0.038820
N27   N     N_R   0.367230 0.424590 0.421670 -0.038668
N28   N     N_R   0.575410 0.367230 0.578330 -0.042765
N29   N     N_R   0.424590 0.632770 0.421670 -0.048463
N30   N     N_R   0.367230 0.424590 0.578330 -0.045084
N31   N     N_R   0.632770 0.575410 0.421670 -0.042137
N32   N     N_R   0.424590 0.367230 0.421670 -0.042519
Ni1   Ni    Ni4+2 0.500000 0.631570 0.500000 0.237998
Ni2   Ni    Ni4+2 0.500000 0.368430 0.500000 0.247081
Ni3   Ni    Ni4+2 0.631570 0.500000 0.500000 0.234031
Ni4   Ni    Ni4+2 0.368430 0.500000 0.500000 0.235569
Ni5   Ni    Ni4+2 0.000000 0.131570 0.000000 0.239037
Ni6   Ni    Ni4+2 0.000000 0.868430 0.000000 0.238749
Ni7   Ni    Ni4+2 0.131570 0.000000 0.000000 0.234151
Ni8   Ni    Ni4+2 0.868430 0.000000 0.000000 0.238754
O1    O     O_2   0.132792 0.328169 0.350166 -0.645365
O2    O     O_R   0.620324 0.848156 0.350449 -0.821898
O3    O     O_2   0.301372 0.131918 0.537783 -0.634150
O4    O     O_R   0.169815 0.129636 0.519764 -0.782762
O5    O     O_2   0.698950 0.132046 0.462446 -0.634176
O6    O     O_R   0.830505 0.130124 0.480545 -0.781855
O7    O     O_2   0.226511 0.812901 0.612569 -0.620996
O8    O     O_R   0.357169 0.832629 0.623976 -0.822560
O9    O     O_2   0.629607 0.750619 0.851914 -0.628605
O10   O     O_R   0.725497 0.811727 0.919009 -0.795772
O11   O     O_2   0.419705 0.282663 0.055722 -0.585115
O12   O     O_R   0.232553 0.273763 0.418175 -0.786207
O13   O     O_R   0.322766 0.204381 0.010462 -0.799556
O14   O     O_2   0.579511 0.281839 0.944039 -0.584701
O15   O     O_R   0.676742 0.203903 0.989516 -0.800115
O16   O     O_2   0.367009 0.832025 0.151646 -0.645313
O17   O     O_R   0.269929 0.774187 0.082826 -0.786647
O18   O     O_2   0.272539 0.314526 0.886768 -0.621308
O19   O     O_R   0.141816 0.333651 0.874829 -0.819875
O20   O     O_2   0.794871 0.575467 0.076224 -0.639246
O21   O     O_R   0.726868 0.660193 0.000763 -0.780849
O22   O     O_2   0.199668 0.632759 0.963001 -0.635274
O23   O     O_2   0.912503 0.798441 0.552635 -0.584705
O24   O     O_R   0.331292 0.631052 0.980648 -0.784214
O25   O     O_2   0.727230 0.313880 0.112984 -0.616901
O26   O     O_R   0.857861 0.333412 0.124944 -0.813046
O27   O     O_R   0.815847 0.721218 0.504990 -0.795699
O28   O     O_2   0.078529 0.780579 0.443327 -0.590400
O29   O     O_R   0.175961 0.703133 0.489201 -0.798757
O30   O     O_2   0.866766 0.330280 0.650589 -0.646796
O31   O     O_R   0.768417 0.273802 0.582392 -0.786648
O32   O     O_2   0.748070 0.831471 0.381762 -0.619765

loop_
_geom_bond_atom_site_label_1
_geom_bond_atom_site_label_2
_ccdc_geom_bond_type
N17   Ni7   S    
C55   H26   S    
C113  H49   S    
C12   C69   S    
C8    C26   S    
C39   N10   A    
C20   O31   S    
C23   O5    D    
C15   C32   S    
N20   Ni7   S    
N3    N12   A    
C50   C82   A    
C105  H41   S    
C57   C76   S    
N9    Ni5   S    
C1    H1    S    
C36   N7    A    
C14   C102  S    
C33   O26   S    
C61   C80   S    
C35   C80   A    
C59   C78   S    
C50   N21   A    
C40   C84   A    
N15   N25   A    
N21   Ni8   S    
C53   H24   S    
N2    N23   A    
C42   C86   A    
C34   C81   A    
C56   C126  S    
C42   N13   A    
C109  H44   S    
N8    Ni3   S    
C47   H18   S    
C51   N22   A    
C100  C115  S    
C35   H6    S    
N10   N20   A    
C25   O8    S    
C47   C86   A    
H62   O12   S    
C4    C113  S    
C43   N14   A    
C119  H54   S    
C22   O4    S    
N26   Ni7   S    
C3    C112  S    
C44   N15   A    
C49   N20   A    
C56   C106  S    
C58   C79   S    
C124  C127  S    
C105  C112  S    
C85   H56   S    
C116  H52   S    
C53   C89   A    
C62   C75   S    
C36   H7    S    
C79   C85   A    
C41   N12   A    
H70   O8    S    
N14   N26   A    
C45   N16   A    
C34   N5    A    
C37   C78   A    
N17   N22   A    
N6    Ni2   S    
H71   O10   S    
C54   C88   A    
C49   C83   A    
H72   O13   S    
C47   N18   A    
C52   H23   S    
N24   Ni6   S    
C24   C73   A    
C35   N6    A    
C65   C110  S    
C99   C119  S    
C62   C99   S    
C67   C112  S    
C43   H14   S    
N31   Ni3   S    
C30   O19   S    
H65   O31   S    
C103  H39   S    
N27   N32   A    
C7    C117  S    
C118  H80   S    
C14   C31   S    
C92   C125  S    
C29   O16   D    
C26   O9    D    
C72   C115  S    
N7    Ni4   S    
C95   H31   S    
N6    N30   A    
C20   O30   D    
C51   C90   A    
C18   C127  S    
C122  H58   S    
C65   C124  S    
C41   H12   S    
C97   C121  S    
C96   H67   S    
C13   C75   A    
C51   H22   S    
C114  H50   S    
C45   H16   S    
C64   C73   S    
H66   O2    S    
C12   C95   S    
N7    N29   A    
C37   N8    A    
H64   O29   S    
C39   H10   S    
C8    C65   S    
C102  H38   S    
C106  H42   S    
C4    C60   S    
C60   C102  S    
C9    C92   S    
H63   O27   S    
H79   O26   S    
C71   C83   S    
C110  H46   S    
C70   C113  S    
C6    C115  S    
C71   C117  S    
C1    N1    A    
C103  C114  S    
C77   C118  A    
N1    Ni1   S    
C21   O2    S    
C124  H60   S    
C16   C100  S    
C49   H20   S    
C7    C116  S    
C60   C81   S    
C19   O28   D    
H68   O4    S    
C42   H13   S    
C5    C61   S    
C15   C101  S    
C99   H35   S    
C112  H48   S    
H69   O6    S    
C70   C89   S    
C58   C104  S    
C55   N26   A    
C6    C119  S    
C11   C68   S    
C118  N32   A    
C96   N30   A    
C52   C76   A    
C57   C127  S    
C52   N23   A    
C28   O15   S    
N29   Ni1   S    
C68   C123  S    
C50   H21   S    
C33   O25   D    
C44   H15   S    
C17   O1    D    
C46   N17   A    
C108  C110  S    
C71   C116  S    
C55   C87   A    
C53   N24   A    
C109  C126  S    
C57   C108  S    
C111  C128  S    
C68   C87   S    
C106  C109  S    
C81   C107  A    
C29   O17   S    
C13   N3    A    
C32   O22   D    
C16   C72   S    
C25   O7    D    
C65   C86   S    
N15   Ni5   S    
C58   C128  S    
C67   C88   S    
C59   C105  S    
C14   C97   S    
C61   C103  S    
C17   C126  S    
C48   H19   S    
C19   C128  S    
N1    N4    A    
N16   Ni8   S    
C11   C104  S    
C45   C89   A    
C94   C123  S    
C64   C98   S    
H77   O24   S    
C94   H30   S    
C38   C82   A    
C14   C70   S    
C38   N9    A    
C23   O6    S    
N18   Ni6   S    
C5    C120  S    
C97   H32   S    
N3    Ni3   S    
C93   C122  S    
C12   C103  S    
C60   C97   S    
C10   C93   S    
C107  N31   A    
N13   N18   A    
N19   Ni5   S    
C24   H4    S    
C26   O10   S    
C13   H3    S    
C37   H8    S    
C3    C20   S    
C100  H36   S    
C8    C91   S    
C101  H37   S    
N22   Ni5   S    
C62   C100  S    
C11   C94   S    
C19   O29   S    
C40   N11   A    
C125  C126  S    
N8    N28   A    
N11   Ni7   S    
C32   O24   S    
C15   C98   S    
C98   H33   S    
C2    C76   A    
C9    C27   S    
C10   C28   S    
C57   C91   S    
C12   C30   S    
N2    Ni1   S    
C36   C79   A    
C61   C95   S    
C46   C90   A    
N13   Ni8   S    
C95   C120  S    
C15   C71   S    
C69   C120  S    
C7    C25   S    
C1    C73   A    
C6    C62   S    
N5    Ni1   S    
C39   C83   A    
C22   O3    D    
C102  C113  S    
H75   O19   S    
N14   Ni6   S    
N12   Ni2   S    
C28   O14   D    
C2    H2    S    
C38   H9    S    
C4    C121  S    
C85   N29   A    
C66   C109  S    
N27   Ni4   S    
C63   N27   A    
C74   C78   A    
C101  C116  S    
N11   N19   A    
C63   H34   S    
C5    C114  S    
C54   H25   S    
C24   N4    A    
C10   C67   S    
C111  H47   S    
N10   Ni6   S    
N16   N24   A    
C117  H53   S    
C46   H17   S    
C41   C75   A    
C27   O13   S    
C40   H11   S    
N30   Ni4   S    
N28   Ni2   S    
C9    C66   S    
C107  H78   S    
N9    N21   A    
C5    C22   S    
C31   O21   S    
C30   O18   D    
C80   C96   A    
C3    C122  S    
C110  C127  S    
H76   O21   S    
C8    C108  S    
C18   O23   D    
H74   O17   S    
C64   C101  S    
C69   C114  S    
C2    N2    A    
C74   H45   S    
C21   O32   D    
C48   N19   A    
C34   H5    S    
C9    C106  S    
C121  H57   S    
C56   C77   S    
C48   C84   A    
C17   O12   S    
C68   C111  S    
N23   Ni3   S    
C91   H27   S    
C16   C33   S    
C104  H40   S    
N32   Ni2   S    
C92   H28   S    
C93   H29   S    
C91   C124  S    
C74   N28   A    
C69   C90   S    
C67   C122  S    
C98   C117  S    
C18   O27   S    
C63   C77   A    
C31   O20   D    
C16   C99   S    
H73   O15   S    
N5    N31   A    
C104  C111  S    
N25   Ni8   S    
C27   O11   D    
C66   C125  S    
C43   C87   A    
C58   C94   S    
N4    Ni4   S    
C4    C21   S    
C70   C121  S    
C123  C128  S    
C6    C23   S    
C72   C119  S    
C123  H59   S    
C120  H55   S    
C72   C82   S    
C7    C64   S    
C66   C84   S    
C56   C92   S    
C11   C29   S    
C108  H43   S    
C10   C105  S    
C125  H61   S    
C59   C93   S    
C54   N25   A    
C44   C88   A    
C115  H51   S    
C3    C59   S    
