data_mof_unit_17477.cif
_audit_creation_date              2012-10-26T19:59:13-0400
_audit_creation_method            fapswitch 2.2
_symmetry_space_group_name_H-M    P1
_symmetry_Int_Tables_number       1
_space_group_crystal_system       triclinic
_cell_length_a                    7.475884
_cell_length_b                    8.674061
_cell_length_c                    15.796721
_cell_angle_alpha                 93.827915
_cell_angle_beta                  75.493454
_cell_angle_gamma                 103.036062
_cell_volume                      966.08597248

loop_
_atom_site_label
_atom_site_type_symbol
_atom_type_description
_atom_site_fract_x
_atom_site_fract_y
_atom_site_fract_z
_atom_type_partial_charge
C1    C     C_R   0.544619 0.799937 0.503042 0.534343
C2    C     C_R   0.616203 0.516340 0.333653 0.538802
C3    C     C_R   0.311271 0.502502 0.763211 -0.000007
C4    C     C_R   0.685643 0.549279 0.238684 -0.005972
C5    C     C_R   0.054208 0.448794 0.893735 -0.122502
C6    C     C_R   0.902901 0.696523 0.114904 -0.118168
C7    C     C_R   0.117212 0.488624 0.804472 -0.007463
C8    C     C_R   0.867031 0.643039 0.200331 -0.020709
C9    C     C_R   0.439256 0.531383 0.816294 -0.159456
C10   C     C_R   0.552569 0.502761 0.187461 -0.152419
C11   C     C_R   0.377394 0.523662 0.907900 0.024604
C12   C     C_R   0.454014 0.200078 0.499073 0.557592
C13   C     C_R   0.586673 0.559091 0.102246 0.017913
C14   C     C_R   0.185246 0.460307 0.944971 0.033809
C15   C     C_R   0.765071 0.658660 0.066970 0.031103
C16   C     C_R   0.502507 0.573354 0.963092 0.027012
C17   C     C_R   0.448962 0.522365 0.051153 0.029764
C18   C     C_3   0.021592 0.700285 0.248444 -0.239370
C19   C     C_3   0.990897 0.850782 0.301330 -0.283523
C20   C     C_3   0.132239 0.900327 0.357862 -0.428824
C21   C     C_3   0.986804 0.548486 0.761442 -0.242360
C22   C     C_3   0.064919 0.726901 0.740700 -0.296955
C23   C     C_R   0.258547 0.443065 0.084792 -0.145535
C24   C     C_3   0.934044 0.805634 0.705713 -0.456937
C25   C     C_R   0.673348 0.683185 0.934044 -0.156739
C26   C     C_R   0.127252 0.418954 0.033220 -0.133470
C27   C     C_R   0.803664 0.724041 0.984607 -0.138526
C28   C     C_2   0.571005 0.967963 0.503131 -0.165669
C29   C     C_2   0.426471 0.032266 0.502240 -0.164309
C30   C     C_R   0.384750 0.496956 0.666621 0.539286
Cu1   Cu    Cu3+1 0.322120 0.483240 0.490330 0.917017
Cu2   Cu    Cu3+1 0.677880 0.516760 0.509670 0.910202
H1    H     H_    0.980072 0.367361 0.062431 0.118629
H2    H     H_    0.285977 0.961172 0.504405 0.115271
H3    H     H_    0.010160 0.623148 0.563320 0.240183
H4    H     H_    0.993173 0.379194 0.434232 0.236367
H5    H     H_    0.115130 0.805181 0.404749 0.187514
H6    H     H_    0.279355 0.924580 0.316531 0.149974
H7    H     H_    0.106187 0.009469 0.395185 0.146878
H8    H     H_    0.007738 0.948457 0.255892 0.146528
H9    H     H_    0.845512 0.831788 0.343975 0.188710
H10   H     H_    0.033087 0.605678 0.289296 0.173205
H11   H     H_    0.161965 0.728479 0.200895 0.134576
H12   H     H_    0.935912 0.806705 0.958867 0.110082
H13   H     H_    0.016787 0.878900 0.648038 0.141780
H14   H     H_    0.819689 0.717897 0.685619 0.177797
H15   H     H_    0.870074 0.886512 0.755544 0.139069
H16   H     H_    0.093728 0.791790 0.800636 0.158515
H17   H     H_    0.202537 0.742961 0.691469 0.174181
H18   H     H_    0.963078 0.477691 0.702783 0.179938
H19   H     H_    0.846909 0.531522 0.806922 0.130714
H20   H     H_    0.420440 0.424221 0.216431 0.117388
H21   H     H_    0.586957 0.558894 0.785285 0.113802
H22   H     H_    0.904091 0.421082 0.924611 0.118596
H23   H     H_    0.038778 0.772292 0.086091 0.112095
H24   H     H_    0.203849 0.407311 0.152048 0.098928
H25   H     H_    0.705100 0.741662 0.872540 0.117221
H26   H     H_    0.711224 0.038965 0.502622 0.129119
N1    N     N_2   0.945180 0.542040 0.524240 -0.276377
N2    N     N_2   0.054820 0.457960 0.475760 -0.267948
O1    O     O_R   0.384450 0.714270 0.493720 -0.510330
O2    O     O_R   0.615550 0.285730 0.506280 -0.495512
O3    O     O_R   0.684880 0.742590 0.510050 -0.507859
O4    O     O_R   0.315120 0.257410 0.489950 -0.499421
O5    O     O_R   0.265540 0.477900 0.617090 -0.502043
O6    O     O_R   0.734460 0.522100 0.382910 -0.508189
O7    O     O_R   0.565970 0.506210 0.633420 -0.509148
O8    O     O_R   0.434030 0.493790 0.366580 -0.502766

loop_
_geom_bond_atom_site_label_1
_geom_bond_atom_site_label_2
_ccdc_geom_bond_type
Cu1   N2    S    
C1    C28   S    
C2    C4    S    
C3    C9    A    
C28   H26   S    
C12   C29   S    
C25   C27   A    
C20   H6    S    
C11   C16   A    
Cu1   O1    S    
C26   H1    S    
C22   H16   S    
Cu1   Cu2   S    
Cu1   O4    S    
C13   C17   A    
C6    H23   S    
C4    C8    A    
C10   H20   S    
C24   H15   S    
C19   C20   S    
C13   C15   A    
C24   H14   S    
N1    N2    D    
C7    C21   S    
C21   C22   S    
C14   C26   A    
C20   H5    S    
C9    C11   A    
C5    C14   A    
C17   C23   A    
C25   H25   S    
Cu2   O7    S    
C24   H13   S    
C1    O3    A    
C3    C30   S    
H3    N1    S    
C28   C29   D    
C3    C7    A    
C18   H10   S    
Cu1   O8    S    
C12   O4    A    
C11   C14   A    
C22   C24   S    
C27   H12   S    
C30   O5    A    
C9    H21   S    
C19   H8    S    
C4    C10   A    
C19   H9    S    
C5    H22   S    
C23   H24   S    
C21   H19   S    
C12   O2    A    
Cu2   O6    S    
C18   C19   S    
C23   C26   A    
C22   H17   S    
C16   C25   A    
C5    C7    A    
C20   H7    S    
Cu1   O5    S    
C21   H18   S    
C6    C8    A    
Cu2   O2    S    
Cu2   N1    S    
H4    N2    S    
C6    C15   A    
C18   H11   S    
C2    O8    A    
C15   C27   A    
C29   H2    S    
C8    C18   S    
C30   O7    A    
Cu2   O3    S    
C16   C17   A    
C2    O6    A    
C10   C13   A    
C1    O1    A    
