data_mof_unit_34233.cif
_audit_creation_date              2013-03-05T16:48:47-0500
_audit_creation_method            fapswitch 2.2
_symmetry_space_group_name_H-M    P1
_symmetry_Int_Tables_number       1
_space_group_crystal_system       triclinic
_cell_length_a                    10.92363
_cell_length_b                    10.892155
_cell_length_c                    13.126691
_cell_angle_alpha                 90.234926
_cell_angle_beta                  90.708491
_cell_angle_gamma                 89.758921
_cell_volume                      1561.69222831

loop_
_atom_site_label
_atom_site_type_symbol
_atom_site_description
_atom_site_fract_x
_atom_site_fract_y
_atom_site_fract_z
_atom_type_partial_charge
O1    O     O_R   0.499980 0.319630 0.578260 -0.571089
O2    O     O_R   0.500020 0.680370 0.421740 -0.571089
O3    O     O_R   0.500000 0.319650 0.421740 -0.594772
O4    O     O_R   0.500000 0.680350 0.578260 -0.594772
C1    C     C_R   0.492568 0.259722 0.499597 0.857791
C2    C     C_R   0.507432 0.740278 0.500403 0.857790
O5    O     O_R   0.319630 0.500000 0.578260 -0.535972
O6    O     O_R   0.680370 0.500000 0.421740 -0.535971
O7    O     O_R   0.319650 0.500020 0.421740 -0.600723
O8    O     O_R   0.680350 0.499980 0.578260 -0.600723
C3    C     C_R   0.259616 0.499261 0.499217 0.905941
C4    C     C_R   0.740384 0.500739 0.500783 0.905940
Cu1   Cu    Cu3+1 0.499990 0.499990 0.592680 1.040239
Cu2   Cu    Cu3+1 0.500010 0.500010 0.407320 1.040239
C5    C     C_R   0.206712 0.805300 0.260490 -0.197603
C6    C     C_R   0.793289 0.194698 0.739510 -0.197603
H1    H     H_    0.227566 0.901879 0.267939 0.185930
H2    H     H_    0.772435 0.098120 0.732062 0.185930
C7    C     C_R   0.153853 0.744751 0.342633 -0.146487
C8    C     C_R   0.846148 0.255248 0.657367 -0.146488
H3    H     H_    0.135065 0.795087 0.412077 0.206954
H4    H     H_    0.864936 0.204911 0.587924 0.206954
C9    C     C_R   0.123517 0.620259 0.334346 0.157836
C10   C     C_R   0.876482 0.379740 0.665654 0.157837
C11   C     C_R   0.147168 0.556776 0.243643 -0.103714
C12   C     C_R   0.852831 0.443223 0.756356 -0.103712
H5    H     H_    0.122564 0.461157 0.236056 0.152404
H6    H     H_    0.877434 0.538842 0.763944 0.152404
C13   C     C_R   0.200646 0.616884 0.161805 -0.218800
C14   C     C_R   0.799353 0.383115 0.838194 -0.218800
H7    H     H_    0.217776 0.565625 0.092577 0.177651
H8    H     H_    0.782222 0.434375 0.907423 0.177651
C15   C     C_R   0.230808 0.741975 0.169210 0.400936
C16   C     C_R   0.769191 0.258025 0.830790 0.400936
C17   C     C_R   0.933847 0.560710 0.421920 0.350764
C18   C     C_R   0.066153 0.439289 0.578079 0.350762
C19   C     C_R   0.872869 0.502611 0.502285 -0.228038
C20   C     C_R   0.127131 0.497388 0.497715 -0.228038
C21   C     C_R   0.938732 0.443025 0.581179 -0.128708
C22   C     C_R   0.061267 0.556974 0.418821 -0.128709
H9    H     H_    0.269216 0.273224 0.075894 0.171532
H10   H     H_    0.730783 0.726776 0.924106 0.171532
C23   C     C_R   0.230629 0.214281 0.228345 -0.178230
C24   C     C_R   0.769370 0.785718 0.771656 -0.178230
H11   H     H_    0.136096 0.243805 0.223063 0.181081
H12   H     H_    0.863903 0.756194 0.776938 0.181081
C25   C     C_R   0.275902 0.158379 0.317707 0.330077
C26   C     C_R   0.724098 0.841621 0.682293 0.330076
C27   C     C_R   0.399789 0.117973 0.320651 -0.041517
C28   C     C_R   0.600210 0.882027 0.679349 -0.041517
C29   C     C_R   0.473452 0.133182 0.234706 -0.107416
C30   C     C_R   0.526547 0.866819 0.765294 -0.107417
H13   H     H_    0.567863 0.102296 0.235960 0.182327
H14   H     H_    0.432136 0.897705 0.764039 0.182327
C31   C     C_R   0.426483 0.189188 0.147107 -0.043965
C32   C     C_R   0.573516 0.810813 0.852893 -0.043964
H15   H     H_    0.483818 0.200689 0.081299 0.203959
H16   H     H_    0.516181 0.799312 0.918701 0.203959
C33   C     C_R   0.305479 0.230058 0.144061 -0.163300
C34   C     C_R   0.694520 0.769942 0.855940 -0.163301
C35   C     C_R   0.465431 0.933127 0.413468 -0.157745
C36   C     C_R   0.534569 0.066873 0.586532 -0.157745
H17   H     H_    0.436892 0.881169 0.346781 0.157787
H18   H     H_    0.563108 0.118831 0.653218 0.157787
C37   C     C_R   0.507622 0.872869 0.500983 -0.047761
C38   C     C_R   0.492378 0.127131 0.499017 -0.047761
C39   C     C_R   0.544825 0.940110 0.587909 0.059232
C40   C     C_R   0.455175 0.059890 0.412091 0.059231
N1    N     N_1   0.500030 0.500030 0.268070 -0.128889
N2    N     N_1   0.499970 0.499970 0.731930 -0.128889
C41   C     C_1   0.500106 0.500105 0.173588 0.193008
C42   C     C_1   0.499894 0.499895 0.826412 0.193007
C43   C     C_1   0.500056 0.500061 0.050682 -0.022959
C44   C     C_1   0.499944 0.499939 0.949318 -0.022959
N3    N     N_R   0.284116 0.804378 0.084266 0.121555
O9    O     O_R   0.320041 0.917714 0.093010 -0.360378
O10   O     O_R   0.295317 0.749037 0.996799 -0.382780
N4    N     N_R   0.715883 0.195621 0.915733 0.121555
O11   O     O_R   0.704683 0.250963 0.003201 -0.382779
O12   O     O_R   0.679958 0.082285 0.906990 -0.360378
N5    N     N_R   0.866671 0.628611 0.345706 0.137263
O13   O     O_R   0.801762 0.723938 0.371544 -0.297140
O14   O     O_R   0.868622 0.594043 0.250757 -0.347122
N6    N     N_R   0.133329 0.371387 0.654293 0.137264
O15   O     O_R   0.198242 0.276063 0.628454 -0.297142
O16   O     O_R   0.131374 0.405950 0.749243 -0.347122
N7    N     N_R   0.194807 0.142210 0.402519 0.124705
O17   O     O_R   0.211952 0.053914 0.467658 -0.335058
O18   O     O_R   0.095740 0.208415 0.409269 -0.358803
N8    N     N_R   0.805192 0.857789 0.597481 0.124704
O19   O     O_R   0.788047 0.946085 0.532342 -0.335058
O20   O     O_R   0.904260 0.791584 0.590731 -0.358803

loop_
_geom_bond_atom_site_label_1
_geom_bond_atom_site_label_2
_geom_bond_distance
_ccdc_geom_bond_type
C38   C40   1.409873 A    
N7    O17   1.300921 A    
C27   C40   1.480561 S    
C31   C33   1.393138 A    
C43   C44   1.330561 T    
O7    Cu2   1.981586 S    
N5    O13   1.301052 A    
C17   N5    1.438644 S    
C25   C27   1.421420 A    
C5    C7    1.398380 A    
C36   C39   1.384972 A    
O1    C1    1.221239 A    
C7    H3    1.083158 S    
C10   C12   1.400647 A    
N4    O12   1.301116 A    
Cu1   N2    1.827895 S    
C9    C22   1.481894 S    
C13   C15   1.405817 A    
O4    Cu1   1.974380 S    
C10   C21   1.481894 S    
C35   H17   1.083703 S    
C4    C19   1.447334 S    
N1    C41   1.240248 T    
C36   H18   1.083702 S    
C6    C16   1.407210 A    
C15   N3    1.438741 S    
C2    C37   1.444206 S    
C8    C10   1.400729 A    
C24   H12   1.081758 S    
C27   C29   1.404561 A    
C28   C30   1.404560 A    
C28   C39   1.480560 S    
C6    C8    1.398380 A    
C26   C28   1.421421 A    
C20   C22   1.412275 A    
C26   N8    1.443084 S    
Cu1   Cu2   2.433167 S    
O2    C2    1.221239 A    
N5    O14   1.300911 A    
C30   H14   1.083401 S    
O5    C3    1.220469 A    
C11   C13   1.395862 A    
C14   C16   1.405817 A    
N6    O15   1.301052 A    
H9    C33   1.082480 S    
C42   C44   1.613339 S    
H10   C34   1.082479 S    
C41   C43   1.613339 S    
C36   C38   1.397653 A    
N4    O11   1.301449 A    
C37   C39   1.409874 A    
C32   C34   1.393139 A    
C29   H13   1.083402 S    
C25   N7    1.443084 S    
C3    C20   1.447334 S    
C7    C9    1.400729 A    
N3    O9    1.301116 A    
O7    C3    1.216994 A    
N8    O20   1.301636 A    
O6    C4    1.220470 A    
C6    H2    1.081050 S    
C24   C34   1.395428 A    
C23   H11   1.081758 S    
O3    Cu2   1.974380 S    
O8    C4    1.216993 A    
O4    C2    1.218659 A    
C8    H4    1.083159 S    
C12   C14   1.395863 A    
C31   H15   1.081248 S    
Cu2   N1    1.827897 S    
O1    Cu1   1.972836 S    
C5    H1    1.081049 S    
O6    Cu2   1.976925 S    
C17   C19   1.408337 A    
C18   C21   1.393406 A    
N6    O16   1.300912 A    
C1    C38   1.444206 S    
O3    C1    1.218660 A    
O8    Cu1   1.981586 S    
C23   C33   1.395428 A    
C11   H5    1.080604 S    
C12   H6    1.080604 S    
C18   C20   1.408337 A    
C17   C22   1.393404 A    
C19   C21   1.412276 A    
C16   N4    1.438742 S    
C14   H8    1.082462 S    
C35   C40   1.384972 A    
N8    O19   1.300922 A    
C30   C32   1.395038 A    
C18   N6    1.438647 S    
C32   H16   1.081248 S    
C29   C31   1.395039 A    
C9    C11   1.400647 A    
O2    Cu2   1.972834 S    
C35   C37   1.397653 A    
O5    Cu1   1.976927 S    
C13   H7    1.082461 S    
N3    O10   1.301450 A    
N7    O18   1.301635 A    
N2    C42   1.240248 T    
C23   C25   1.407231 A    
C5    C15   1.407211 A    
C24   C26   1.407231 A    
