data_mof_unit_23693.cif
_audit_creation_date              2012-12-11T15:48:08-0500
_audit_creation_method            fapswitch 2.2
_symmetry_space_group_name_H-M    P1
_symmetry_Int_Tables_number       1
_space_group_crystal_system       triclinic
_cell_length_a                    6.925479
_cell_length_b                    17.624626
_cell_length_c                    19.471349
_cell_angle_alpha                 108.659865
_cell_angle_beta                  89.78009
_cell_angle_gamma                 90.737402
_cell_volume                      2251.53672283

loop_
_atom_site_label
_atom_site_type_symbol
_atom_type_description
_atom_site_fract_x
_atom_site_fract_y
_atom_site_fract_z
_atom_type_partial_charge
O1    O     O_R   0.494330 0.415710 0.413720 -0.543420
O2    O     O_R   0.819360 0.430070 0.560210 -0.520546
O3    O     O_R   0.994320 0.584290 0.586280 -0.536194
C1    C     C_R   0.650145 0.415203 0.581895 0.850083
O4    O     O_R   0.823740 0.406290 0.412670 -0.522008
O5    O     O_R   0.998730 0.560340 0.437690 -0.540597
C2    C     C_R   0.654669 0.383976 0.384349 0.793024
O6    O     O_R   0.489920 0.439660 0.562310 -0.520094
O7    O     O_3   0.662330 0.550570 0.508380 -0.376191
V1    V     V_3+5 0.935370 0.490620 0.498440 1.621574
O8    O     O_R   0.328720 0.569930 0.439790 -0.534127
C3    C     C_R   0.160489 0.585114 0.418313 0.681409
O9    O     O_R   0.324340 0.593710 0.587330 -0.530943
C4    C     C_R   0.156433 0.615927 0.615951 0.765575
V2    V     V_3+5 0.435940 0.509380 0.501560 1.601837
O10   O     O_3   0.159110 0.449430 0.491620 -0.353215
C5    C     C_R   0.297251 0.701137 0.737214 0.307874
C6    C     C_R   0.281282 0.766119 0.801123 -0.166367
H1    H     H_    0.397554 0.777925 0.840342 0.161674
C7    C     C_R   0.116304 0.814259 0.815949 -0.167098
C8    C     C_R   0.964554 0.795877 0.764244 0.403158
C9    C     C_R   0.983836 0.732672 0.699305 -0.134171
H2    H     H_    0.867697 0.721238 0.660020 0.173493
C10   C     C_R   0.147928 0.684085 0.684835 -0.171191
C11   C     C_R   0.007368 0.620088 0.315335 0.384755
C12   C     C_R   0.150892 0.635795 0.370072 -0.274986
C13   C     C_R   0.281544 0.700883 0.379545 0.330371
C14   C     C_R   0.274406 0.747835 0.332583 0.019555
C15   C     C_R   0.125048 0.733665 0.279858 -0.150630
C16   C     C_R   0.984977 0.672594 0.274030 -0.013106
C17   C     C_R   0.411206 0.810012 0.337521 0.392665
C18   C     C_R   0.402631 0.854310 0.290038 -0.129952
C19   C     C_R   0.256179 0.841435 0.237916 0.011448
C20   C     C_R   0.116580 0.780454 0.232464 0.002416
C21   C     C_R   0.968006 0.766784 0.180063 -0.098126
C22   C     C_R   0.811786 0.714981 0.183078 0.221003
C23   C     C_R   0.824678 0.665183 0.227074 0.450514
C24   C     C_R   0.244989 0.889444 0.192227 0.187546
C25   C     C_R   0.110175 0.870020 0.134767 -0.140985
C26   C     C_R   0.978628 0.806091 0.126579 0.292025
H3    H     H_    0.513831 0.899390 0.295201 0.209383
C27   C     C_R   0.684539 0.216121 0.895668 0.300032
C28   C     C_R   0.623221 0.134698 0.869876 -0.202778
C29   C     C_R   0.560459 0.100888 0.797628 0.207926
C30   C     C_R   0.563855 0.147099 0.750080 0.027455
C31   C     C_R   0.619243 0.228817 0.775796 -0.060344
C32   C     C_R   0.671089 0.264392 0.849637 -0.067723
C33   C     C_R   0.517540 0.112457 0.676607 -0.144831
C34   C     C_R   0.520995 0.156486 0.628546 0.310423
C35   C     C_R   0.563399 0.240005 0.653877 0.012310
C36   C     C_R   0.623383 0.274932 0.727429 -0.069493
C37   C     C_R   0.689823 0.355671 0.752560 -0.086987
C38   C     C_R   0.715549 0.393174 0.828162 0.304248
C39   C     C_R   0.704861 0.348346 0.876011 0.363444
C40   C     C_R   0.549156 0.290334 0.609565 0.224492
C41   C     C_R   0.640335 0.366413 0.631636 -0.205548
C42   C     C_R   0.724281 0.396019 0.701166 0.267426
H4    H     H_    0.484903 0.049189 0.654436 0.204549
C43   C     C_R   0.756822 0.248126 0.306116 0.335980
C44   C     C_R   0.744736 0.182328 0.241043 0.195058
C45   C     C_R   0.624064 0.186057 0.183544 -0.305072
C46   C     C_R   0.516634 0.256547 0.191858 0.358047
C47   C     C_R   0.525633 0.320872 0.256839 0.330759
C48   C     C_R   0.644419 0.316700 0.314762 -0.290403
O11   O     O_R   0.774940 0.060470 0.937800 -0.541188
O12   O     O_R   0.440880 0.093730 0.087350 -0.529190
O13   O     O_R   0.266130 0.939630 0.062280 -0.534518
C49   C     C_R   0.610457 0.116666 0.115433 0.797384
O14   O     O_R   0.445480 0.069960 0.939820 -0.535802
O15   O     O_R   0.270770 0.915690 0.913690 -0.538970
C50   C     C_R   0.614713 0.085120 0.918624 0.733891
O16   O     O_R   0.770300 0.084410 0.086380 -0.528802
O17   O     O_3   0.602600 0.949510 0.991670 -0.368912
V3    V     V_3+5 0.329470 0.009370 0.001550 1.580101
O18   O     O_R   0.940760 0.906160 0.912560 -0.546372
C51   C     C_R   0.108611 0.883409 0.884290 0.750446
O19   O     O_R   0.936150 0.929930 0.060100 -0.507972
C52   C     C_R   0.104041 0.916440 0.082977 0.842367
V4    V     V_3+5 0.828930 0.990450 0.998310 1.593948
O20   O     O_3   0.105670 0.050490 0.008320 -0.373618
Br1   Br    Br    0.521497 0.635645 0.728108 -0.464139
O21   O     O_3   0.871219 0.780429 0.063480 -0.630957
H5    H     H_    0.852649 0.721641 0.050110 0.345356
O22   O     O_3   0.639418 0.715342 0.147663 -0.640938
H6    H     H_    0.617277 0.770446 0.146730 0.329507
O23   O     O_3   0.675612 0.612613 0.228778 -0.587368
H7    H     H_    0.580934 0.608799 0.189852 0.347918
O24   O     O_3   0.762498 0.249842 0.964370 -0.615118
H8    H     H_    0.757032 0.212022 0.992359 0.277411
Br2   Br    Br    0.475000 0.989785 0.764536 -0.504068
Br3   Br    Br    0.506168 0.091010 0.528225 -0.373015
Br4   Br    Br    0.390814 0.262795 0.523019 -0.391327
Br5   Br    Br    0.912212 0.482706 0.719327 -0.413405
Br6   Br    Br    0.712483 0.508244 0.873126 -0.321884
O25   O     O_3   0.716114 0.389713 0.949150 -0.565437
H9    H     H_    0.606096 0.371313 0.972774 0.345175
O26   O     O_3   0.870624 0.246379 0.363834 -0.593922
H10   H     H_    0.972702 0.206073 0.346810 0.359317
Br7   Br    Br    0.880369 0.084608 0.233782 -0.432978
O27   O     O_3   0.405666 0.266774 0.136669 -0.584613
H11   H     H_    0.457199 0.233385 0.089347 0.280139
O28   O     O_3   0.421863 0.388371 0.259804 -0.593046
H12   H     H_    0.482468 0.436010 0.295154 0.299445
O29   O     O_3   0.799531 0.840513 0.773756 -0.604159
H13   H     H_    0.734120 0.834550 0.817077 0.312233
O30   O     O_3   0.891589 0.552172 0.299627 -0.591021
H14   H     H_    0.968609 0.507734 0.305650 0.294337
O31   O     O_3   0.417653 0.719028 0.434178 -0.607082
H15   H     H_    0.354574 0.714921 0.478644 0.287703
O32   O     O_3   0.557524 0.828878 0.387812 -0.595357
H16   H     H_    0.493940 0.853354 0.435385 0.343126
Br8   Br    Br    0.403107 0.985463 0.212092 -0.451029

loop_
_geom_bond_atom_site_label_1
_geom_bond_atom_site_label_2
_ccdc_geom_bond_type
O12   C49   A    
C40   C41   A    
O11   V4    S    
O17   V3    S    
O25   H9    S    
C1    O6    A    
C44   Br7   S    
O26   H10   S    
O19   C52   A    
C41   C42   A    
C43   C48   A    
C15   C16   A    
C22   C23   A    
C6    H1    S    
O16   V4    S    
O5    C3    A    
C24   C25   A    
C42   Br5   S    
O30   H14   S    
V2    O10   S    
O12   V3    S    
O31   H15   S    
C7    C51   S    
C20   C21   A    
C4    C10   S    
O14   C50   A    
O32   H16   S    
C8    O29   S    
O8    V2    S    
C21   C22   A    
O15   V3    S    
C18   H3    S    
O1    V2    S    
O7    V1    S    
C6    C7    A    
C43   C44   A    
V3    O20   S    
C8    C9    A    
C1    C41   S    
O28   H12   S    
O13   C52   A    
C34   Br3   S    
C47   O28   S    
O29   H13   S    
C11   O30   S    
C5    C6    A    
O19   V4    S    
C5    C10   A    
C36   C37   A    
C25   C52   S    
C26   O21   S    
C23   O23   S    
O22   H6    S    
C25   C26   A    
O4    C2    A    
O23   H7    S    
C35   C36   A    
C11   C12   A    
C38   C39   A    
C31   C36   A    
V4    O20   S    
C16   C23   A    
C3    C12   S    
C44   C45   A    
O2    C1    A    
O18   C51   A    
C46   C47   A    
C17   C18   A    
C49   O16   A    
C19   C20   A    
O17   V4    S    
O14   V3    S    
O13   V3    S    
C7    C8    A    
C39   O25   S    
O3    C4    A    
C32   C39   A    
C46   O27   S    
C33   C34   A    
C40   Br4   S    
O21   H5    S    
O6    V2    S    
O9    V2    S    
C28   C29   A    
C12   C13   A    
C43   O26   S    
C9    C10   A    
C27   O24   S    
C27   C28   A    
C24   Br8   S    
O2    V1    S    
C29   Br2   S    
C37   C38   A    
C30   C33   A    
C11   C16   A    
C31   C32   A    
C14   C15   A    
C28   C50   S    
C38   Br6   S    
O1    C2    A    
C14   C17   A    
C29   C30   A    
C19   C24   A    
O5    V1    S    
O8    C3    A    
C33   H4    S    
C35   C40   A    
C18   C19   A    
C21   C26   A    
O7    V2    S    
O4    V1    S    
O3    V1    S    
O11   C50   A    
O15   C51   A    
C45   C49   S    
C13   O31   S    
C22   O22   S    
C15   C20   A    
O27   H11   S    
C17   O32   S    
C5    Br1   S    
C27   C32   A    
C45   C46   A    
C2    C48   S    
C37   C42   A    
C47   C48   A    
C30   C31   A    
O24   H8    S    
C34   C35   A    
C13   C14   A    
C9    H2    S    
V1    O10   S    
O9    C4    A    
O18   V4    S    
