data_mof_unit_67431.cif
_audit_creation_date              2013-03-05T15:40:04-0500
_audit_creation_method            fapswitch 2.2
_symmetry_space_group_name_H-M    P1
_symmetry_Int_Tables_number       1
_space_group_crystal_system       triclinic
_cell_length_a                    7.528849
_cell_length_b                    8.682984
_cell_length_c                    11.057496
_cell_angle_alpha                 87.339914
_cell_angle_beta                  73.52386
_cell_angle_gamma                 101.266346
_cell_volume                      675.824245505

loop_
_atom_site_label
_atom_site_type_symbol
_atom_site_description
_atom_site_fract_x
_atom_site_fract_y
_atom_site_fract_z
_atom_type_partial_charge
O1    O     O_R   0.622710 0.286400 0.490790 -0.587203
O2    O     O_R   0.377290 0.713600 0.509210 -0.548473
O3    O     O_R   0.303660 0.256330 0.514730 -0.569346
O4    O     O_R   0.696340 0.743670 0.485270 -0.556292
C1    C     C_R   0.455850 0.200828 0.506600 0.845989
C2    C     C_R   0.547867 0.798711 0.484994 0.800249
O5    O     O_R   0.600900 0.509520 0.671740 -0.509276
O6    O     O_R   0.399100 0.490480 0.328260 -0.539213
O7    O     O_R   0.281840 0.479450 0.695690 -0.550954
O8    O     O_R   0.718160 0.520550 0.304310 -0.586013
C3    C     C_R   0.426736 0.493006 0.741959 0.873082
C4    C     C_R   0.575141 0.509941 0.259138 0.870692
Cu1   Cu    Cu3+1 0.688910 0.517800 0.485820 1.076327
Cu2   Cu    Cu3+1 0.311090 0.482200 0.514180 1.089436
C5    C     C_2   0.397199 0.475181 0.878624 -0.347305
C6    C     C_2   0.614759 0.540272 0.124689 -0.333267
C7    C     C_2   0.544367 0.502886 0.927937 0.238554
C8    C     C_2   0.513064 0.452664 0.061448 0.225244
H1    H     H_    0.719363 0.647206 0.080086 0.142599
H2    H     H_    0.253945 0.426984 0.939750 0.151811
C9    C     C_2   0.444483 0.036022 0.535853 -0.147259
C10   C     C_2   0.568376 0.964822 0.456071 -0.169144
N1    N     N_2   0.027170 0.455360 0.535550 0.080188
N2    N     N_2   0.972830 0.544640 0.464450 0.065654
Br1   Br    Br    0.352224 0.249569 0.135636 -0.565293
Br2   Br    Br    0.803227 0.609576 0.833106 -0.521193
C11   C     C_R   0.347182 0.972841 0.671597 0.075244
C12   C     C_R   0.448913 0.918973 0.748033 -0.122084
C13   C     C_R   0.361624 0.873480 0.877698 -0.120400
C14   C     C_R   0.174242 0.885230 0.933094 -0.044766
C15   C     C_R   0.073599 0.940672 0.858360 -0.097067
C16   C     C_R   0.158195 0.982431 0.728273 -0.059509
H3    H     H_    0.596655 0.914698 0.707961 0.159178
H4    H     H_    0.439629 0.830074 0.935369 0.138962
H5    H     H_    0.106734 0.850825 0.033621 0.164330
H6    H     H_    0.927865 0.947325 0.900190 0.142163
H7    H     H_    0.076134 0.022421 0.672019 0.177349
C17   C     C_R   0.676718 0.033241 0.322382 0.048841
C18   C     C_R   0.833959 0.161120 0.294540 -0.014851
C19   C     C_R   0.905978 0.243375 0.173033 -0.077826
C20   C     C_R   0.838063 0.187813 0.074757 -0.103292
C21   C     C_R   0.695854 0.050833 0.098568 -0.105141
C22   C     C_R   0.615274 0.974288 0.221517 -0.120170
H8    H     H_    0.895875 0.201768 0.367578 0.185366
H9    H     H_    0.013615 0.351205 0.155323 0.176642
H10   H     H_    0.895445 0.250642 0.980409 0.176019
H11   H     H_    0.642754 0.007374 0.022678 0.151127
H12   H     H_    0.502332 0.871389 0.237982 0.167500
Br3   Br    Br    0.858124 0.288783 0.651661 -0.409876
Br4   Br    Br    0.140528 0.702633 0.341420 -0.417334

loop_
_geom_bond_atom_site_label_1
_geom_bond_atom_site_label_2
_geom_bond_distance
_ccdc_geom_bond_type
Cu2   N1    2.047722 S    
C20   H10   1.082618 S    
C18   H8    1.081584 S    
C22   H12   1.074577 S    
C15   C16   1.395673 A    
O6    C4    1.302027 A    
O7    Cu2   1.954504 S    
C11   C12   1.410759 A    
C9    C10   1.356365 D    
C7    C8    1.458728 S    
C9    C11   1.494450 S    
C17   C22   1.404667 A    
O2    C2    1.297255 A    
C16   H7    1.082115 S    
O5    C3    1.296730 A    
O7    C3    1.318210 A    
C13   C14   1.395626 A    
O3    Cu2   1.950745 S    
O8    C4    1.299224 A    
C14   H5    1.082851 S    
C6    H1    1.084916 S    
O1    C1    1.288211 A    
C7    Br2   1.949665 S    
C17   C18   1.406088 A    
O4    C2    1.299425 A    
C19   C20   1.393752 A    
O4    Cu1   1.950744 S    
C12   H3    1.083089 S    
C21   H11   1.080345 S    
N2    Br4   1.871487 S    
C14   C15   1.396260 A    
O2    Cu2   1.967588 S    
C8    Br1   1.927949 S    
N1    Br3   1.881939 S    
O1    Cu1   1.967588 S    
C21   C22   1.395989 A    
N1    N2    1.279152 D    
C10   C17   1.499575 S    
O5    Cu1   1.966102 S    
C1    C9    1.432902 S    
C19   H9    1.080822 S    
C6    C8    1.333940 D    
C20   C21   1.394188 A    
C18   C19   1.398452 A    
C5    C7    1.354102 D    
C15   H6    1.077278 S    
C12   C13   1.398261 A    
O6    Cu2   1.966101 S    
C11   C16   1.403399 A    
Cu1   Cu2   2.725214 S    
C3    C5    1.459889 S    
C13   H4    1.081770 S    
C4    C6    1.431760 S    
Cu1   N2    2.047722 S    
C5    H2    1.085864 S    
O3    C1    1.309419 A    
O8    Cu1   1.954504 S    
C2    C10   1.431299 S    
