data_mof_unit_6403.cif
_audit_creation_date              2013-03-05T16:06:41-0500
_audit_creation_method            fapswitch 2.2
_symmetry_space_group_name_H-M    P1
_symmetry_Int_Tables_number       1
_space_group_crystal_system       triclinic
_cell_length_a                    10.849247
_cell_length_b                    9.591881
_cell_length_c                    15.069501
_cell_angle_alpha                 90.020148
_cell_angle_beta                  92.477248
_cell_angle_gamma                 89.988006
_cell_volume                      1566.73722363

loop_
_atom_site_label
_atom_site_type_symbol
_atom_site_description
_atom_site_fract_x
_atom_site_fract_y
_atom_site_fract_z
_atom_type_partial_charge
O1    O     O_R   0.319640 0.618740 0.499990 -0.576058
O2    O     O_R   0.680360 0.381260 0.500010 -0.558069
O3    O     O_R   0.680360 0.618740 0.500010 -0.560734
O4    O     O_R   0.319640 0.381260 0.499990 -0.578630
N1    N     N_R   0.500000 0.852070 0.500000 -0.321807
N2    N     N_R   0.500000 0.147930 0.500000 -0.322021
C1    C     C_R   0.262263 0.500012 0.499984 0.758570
C2    C     C_R   0.737622 0.499997 0.497889 0.806902
O5    O     O_R   0.499990 0.618780 0.371460 -0.540316
O6    O     O_R   0.500010 0.381220 0.628540 -0.536753
O7    O     O_R   0.500010 0.618780 0.628540 -0.544581
O8    O     O_R   0.499990 0.381220 0.371460 -0.538675
C3    C     C_R   0.499324 0.500005 0.330458 0.805305
C4    C     C_R   0.484591 0.500040 0.669047 0.871643
Cu1   Cu    Cu3+1 0.500000 0.640660 0.500000 1.058792
Cu2   Cu    Cu3+1 0.500000 0.359340 0.500000 1.060013
C5    C     C_R   0.429449 0.074132 0.438472 0.284199
C6    C     C_R   0.572598 0.925830 0.560327 0.296930
C7    C     C_R   0.572742 0.074179 0.560246 0.299063
C8    C     C_R   0.429424 0.925790 0.438487 0.290402
C9    C     C_R   0.063682 0.373622 0.496749 -0.110011
C10   C     C_R   0.936050 0.626377 0.494004 -0.099678
C11   C     C_R   0.936063 0.373716 0.493223 -0.099298
C12   C     C_R   0.063675 0.626449 0.497485 -0.109257
C13   C     C_R   0.591072 0.525861 0.093394 0.397232
C14   C     C_R   0.458952 0.374435 0.905655 0.462322
C15   C     C_R   0.450982 0.629425 0.904001 0.390740
C16   C     C_R   0.369616 0.474375 0.095362 0.465552
C17   C     C_R   0.598802 0.525957 0.186026 0.384914
C18   C     C_R   0.446638 0.373393 0.812396 0.294055
C19   C     C_R   0.441862 0.627390 0.811411 0.408802
C20   C     C_R   0.376289 0.474815 0.188801 0.330483
C21   C     C_R   0.491604 0.500124 0.233949 -0.327814
C22   C     C_R   0.456247 0.500254 0.764827 -0.436055
H1    H     H_    0.111221 0.274550 0.498412 0.204622
H2    H     H_    0.888560 0.725268 0.490696 0.209970
H3    H     H_    0.888587 0.274874 0.489235 0.209490
H4    H     H_    0.111221 0.725502 0.499716 0.204084
C23   C     C_R   0.476193 0.500263 0.048365 -0.168601
C24   C     C_R   0.464439 0.502296 0.950899 -0.171481
C25   C     C_R   0.871463 0.500027 0.494594 -0.058144
C26   C     C_R   0.128271 0.500027 0.498682 -0.046802
N3    N     N_R   0.357786 0.145636 0.370976 0.184944
O9    O     O_R   0.240605 0.163955 0.381227 -0.326599
O10   O     O_R   0.398788 0.151694 0.291206 -0.269150
N4    N     N_R   0.653642 0.854423 0.622290 0.185378
O11   O     O_R   0.769033 0.841880 0.604113 -0.341440
O12   O     O_R   0.624997 0.848350 0.705021 -0.234222
N5    N     N_R   0.654690 0.145525 0.621640 0.186795
O13   O     O_R   0.769748 0.157792 0.602522 -0.342548
O14   O     O_R   0.627511 0.151278 0.704670 -0.238885
N6    N     N_R   0.357168 0.854154 0.371327 0.184247
O15   O     O_R   0.239963 0.836673 0.381896 -0.330159
O16   O     O_R   0.397845 0.846772 0.291498 -0.287463
O17   O     O_3   0.698711 0.550833 0.049887 -0.602574
H5    H     H_    0.684329 0.541152 0.984974 0.339214
O18   O     O_3   0.462522 0.252634 0.954993 -0.633201
H6    H     H_    0.467056 0.171030 0.915030 0.406930
O19   O     O_3   0.443439 0.757845 0.945407 -0.601193
H7    H     H_    0.445613 0.746635 0.010638 0.344525
O20   O     O_3   0.259913 0.451107 0.047120 -0.647494
H8    H     H_    0.192283 0.432777 0.087509 0.400802
O21   O     O_3   0.713854 0.550762 0.226450 -0.617324
H9    H     H_    0.711055 0.542219 0.291659 0.308405
O22   O     O_3   0.418010 0.249043 0.770488 -0.639469
H10   H     H_    0.358651 0.269214 0.720275 0.343491
O23   O     O_3   0.412324 0.751015 0.769010 -0.582963
H11   H     H_    0.355105 0.729354 0.717807 0.325834
O24   O     O_3   0.268569 0.451461 0.232813 -0.655256
H12   H     H_    0.281432 0.466148 0.297418 0.350073

loop_
_geom_bond_atom_site_label_1
_geom_bond_atom_site_label_2
_geom_bond_distance
_ccdc_geom_bond_type
C4    C22   1.488696 S    
C12   H4    1.081016 S    
N3    O9    1.299182 A    
C5    N3    1.428764 S    
O4    Cu2   1.967983 S    
C20   O24   1.386765 S    
O1    Cu1   1.968071 S    
C17   C21   1.417173 A    
O2    Cu2   1.968070 S    
C7    N5    1.429486 S    
C11   C25   1.400137 A    
C15   C24   1.413982 A    
O17   H5    0.988227 S    
C16   O20   1.385663 S    
C17   O21   1.385665 S    
O5    Cu1   1.948292 S    
C19   C22   1.418823 A    
O3    Cu1   1.967982 S    
O19   H7    0.988168 S    
C8    N6    1.429026 S    
N1    C8    1.372754 A    
O6    Cu2   1.948292 S    
C12   C26   1.400181 A    
C13   C23   1.414572 A    
C3    C21   1.453137 S    
N2    C7    1.373235 A    
N3    O10   1.300992 A    
C14   C24   1.403023 A    
O18   H6    0.989944 S    
O24   H12   0.987578 S    
O7    Cu1   1.948439 S    
O4    C1    1.297939 A    
C9    H1    1.080912 S    
C6    N4    1.429459 S    
O23   H11   0.991187 S    
C14   O18   1.384662 S    
C11   H3    1.079472 S    
N6    O16   1.301059 A    
C14   C18   1.405981 A    
N4    O12   1.299159 A    
C9    C11   1.383295 A    
C13   C17   1.394821 A    
O20   H8    0.989178 S    
O7    C4    1.306592 A    
C10   C12   1.383359 A    
O3    C2    1.298318 A    
C18   O22   1.378627 S    
N1    Cu1   2.027820 S    
C19   O23   1.378310 S    
N2    Cu2   2.027821 S    
Cu1   Cu2   2.698388 S    
C10   C25   1.400272 A    
O8    Cu2   1.948438 S    
C16   C20   1.406811 A    
C5    C8    1.422878 A    
C10   H2    1.079496 S    
O8    C3    1.296188 A    
O22   H10   0.991293 S    
O6    C4    1.306826 A    
C1    C26   1.452990 S    
C23   C24   1.468934 S    
N5    O13   1.298552 A    
N2    C5    1.372964 A    
C18   C22   1.418630 A    
N4    O11   1.298595 A    
C6    C7    1.422943 A    
O5    C3    1.295721 A    
N1    C6    1.373053 A    
C15   O19   1.384620 S    
C16   C23   1.404010 A    
C2    C25   1.455063 S    
O1    C1    1.297969 A    
C15   C19   1.394646 A    
C9    C26   1.400194 A    
O2    C2    1.298511 A    
C13   O17   1.384708 S    
C20   C21   1.418963 A    
N6    O15   1.299236 A    
O21   H9    0.987878 S    
N5    O14   1.298997 A    
