data_mof_unit_25616.cif
_audit_creation_date              2013-03-05T16:25:44-0500
_audit_creation_method            fapswitch 2.2
_symmetry_space_group_name_H-M    P1
_symmetry_Int_Tables_number       1
_space_group_crystal_system       triclinic
_cell_length_a                    10.842548
_cell_length_b                    15.185259
_cell_length_c                    13.850023
_cell_angle_alpha                 91.058263
_cell_angle_beta                  89.578516
_cell_angle_gamma                 89.709034
_cell_volume                      2279.88169252

loop_
_atom_site_label
_atom_site_type_symbol
_atom_site_description
_atom_site_fract_x
_atom_site_fract_y
_atom_site_fract_z
_atom_type_partial_charge
O1    O     O_R   0.500010 0.371450 0.581430 -0.582781
O2    O     O_R   0.499990 0.628550 0.418570 -0.575395
O3    O     O_R   0.500010 0.371460 0.418560 -0.583395
O4    O     O_R   0.499990 0.628540 0.581440 -0.594656
C1    C     C_R   0.502992 0.330245 0.498816 0.785847
C2    C     C_R   0.497483 0.670484 0.501263 0.806585
O5    O     O_R   0.319640 0.500000 0.581430 -0.578261
O6    O     O_R   0.680360 0.500000 0.418570 -0.603873
O7    O     O_R   0.319640 0.500010 0.418560 -0.590725
O8    O     O_R   0.680360 0.499990 0.581440 -0.585356
C3    C     C_R   0.262381 0.500149 0.500176 0.816024
C4    C     C_R   0.737545 0.500105 0.500020 0.829598
Cu1   Cu    Cu3+1 0.500000 0.499990 0.596430 0.931265
Cu2   Cu    Cu3+1 0.500000 0.500010 0.403570 0.932306
H1    H     H_    0.292605 0.830774 0.271966 0.122667
H2    H     H_    0.684492 0.174244 0.722792 0.122028
C5    C     C_R   0.212480 0.788484 0.405975 -0.120718
C6    C     C_R   0.787908 0.210784 0.596572 -0.131445
H3    H     H_    0.228513 0.850585 0.443290 0.144247
H4    H     H_    0.779139 0.146827 0.561630 0.135712
C7    C     C_R   0.156341 0.719380 0.454613 -0.172277
C8    C     C_R   0.851221 0.278126 0.550145 -0.217304
H5    H     H_    0.127934 0.728855 0.529110 0.124848
H6    H     H_    0.891321 0.265683 0.479346 0.115790
C9    C     C_R   0.133987 0.639157 0.406220 0.116901
C10   C     C_R   0.864829 0.360729 0.595797 0.133781
C11   C     C_R   0.169710 0.628454 0.309043 -0.108813
C12   C     C_R   0.813229 0.375134 0.688231 -0.084192
H7    H     H_    0.151752 0.567190 0.270521 0.113655
H8    H     H_    0.823787 0.438212 0.724971 0.124836
C13   C     C_R   0.227974 0.697143 0.261136 -0.136435
C14   C     C_R   0.747473 0.308313 0.733423 -0.134169
H9    H     H_    0.256053 0.688507 0.186392 0.125941
H10   H     H_    0.706788 0.320148 0.804108 0.125814
C15   C     C_R   0.248468 0.777340 0.309348 -0.115907
C16   C     C_R   0.734934 0.226122 0.687643 -0.102496
C17   C     C_R   0.935131 0.571076 0.457691 0.110847
C18   C     C_R   0.064570 0.430453 0.546572 0.104769
C19   C     C_R   0.871410 0.500975 0.501200 -0.138993
C20   C     C_R   0.128338 0.499113 0.500178 -0.149750
C21   C     C_R   0.934764 0.431996 0.547451 -0.064639
C22   C     C_R   0.064728 0.568310 0.454937 -0.067431
C23   C     C_R   0.418609 0.099668 0.556790 -0.182503
C24   C     C_R   0.512173 0.901926 0.411586 -0.204145
H11   H     H_    0.354289 0.068409 0.605286 0.130781
H12   H     H_    0.523832 0.932141 0.341977 0.130221
C25   C     C_R   0.425995 0.190699 0.559571 -0.248070
C26   C     C_R   0.515647 0.810790 0.415965 -0.230687
H13   H     H_    0.368970 0.227275 0.610994 0.143997
H14   H     H_    0.533050 0.773895 0.349534 0.165623
C27   C     C_R   0.503413 0.234348 0.495265 -0.035049
C28   C     C_R   0.494609 0.767722 0.503518 -0.048882
C29   C     C_R   0.575702 0.185578 0.427117 0.157830
C30   C     C_R   0.471501 0.819193 0.589120 0.149463
C31   C     C_R   0.570774 0.093608 0.427860 -0.208188
C32   C     C_R   0.474934 0.910970 0.583619 -0.210639
H15   H     H_    0.630847 0.056256 0.379377 0.127282
H16   H     H_    0.463547 0.950154 0.649188 0.118968
C33   C     C_R   0.492958 0.050016 0.492494 0.083022
C34   C     C_R   0.492799 0.952931 0.495529 0.086026
C35   C     C_R   0.598336 0.536832 0.108178 -0.292590
C36   C     C_R   0.440301 0.433508 0.891131 -0.298313
H17   H     H_    0.677658 0.564791 0.072511 0.123217
H18   H     H_    0.393974 0.379834 0.926334 0.127392
C37   C     C_R   0.595557 0.536959 0.209644 0.083716
C38   C     C_R   0.440776 0.435108 0.789691 0.069636
H19   H     H_    0.670871 0.566445 0.248928 0.106814
H20   H     H_    0.395331 0.383252 0.749614 0.127911
N1    N     N_R   0.500000 0.500020 0.258690 -0.164853
N2    N     N_R   0.500000 0.499980 0.741310 -0.164493
C39   C     C_R   0.404873 0.462744 0.208978 0.065396
C40   C     C_R   0.564057 0.562561 0.791395 0.073466
H21   H     H_    0.329447 0.433017 0.247837 0.118215
H22   H     H_    0.616494 0.610961 0.752648 0.104559
C41   C     C_R   0.402977 0.462524 0.107455 -0.295595
C42   C     C_R   0.564360 0.564384 0.892917 -0.292258
H23   H     H_    0.324152 0.434264 0.071153 0.126187
H24   H     H_    0.613026 0.617067 0.929544 0.123466
C43   C     C_R   0.500915 0.499597 0.054605 0.134371
C44   C     C_R   0.501474 0.499378 0.945260 0.134033
C45   C     C_3   0.865364 0.651444 0.420484 -0.401969
C46   C     C_3   0.824136 0.712305 0.503779 -0.837284
H25   H     H_    0.761506 0.677577 0.553942 0.243855
H26   H     H_    0.905237 0.736391 0.544777 0.246560
H27   H     H_    0.774428 0.770072 0.474707 0.242944
H28   H     H_    0.921394 0.690552 0.369791 0.208592
H29   H     H_    0.784428 0.631960 0.377302 0.204283
C47   C     C_3   0.134360 0.354176 0.592145 -0.371164
C48   C     C_3   0.141747 0.365258 0.701747 -0.815090
H30   H     H_    0.181386 0.430292 0.721576 0.261581
H31   H     H_    0.049596 0.360044 0.735833 0.248643
H32   H     H_    0.200673 0.312296 0.731178 0.215346
H33   H     H_    0.090909 0.290216 0.573846 0.196421
H34   H     H_    0.229097 0.347163 0.562468 0.184032
C49   C     C_3   0.664009 0.227890 0.356615 -0.406780
C50   C     C_3   0.606889 0.233832 0.256537 -0.793285
H35   H     H_    0.519904 0.272701 0.259755 0.265170
H36   H     H_    0.672256 0.266674 0.206892 0.234106
H37   H     H_    0.586982 0.166880 0.227171 0.233455
H38   H     H_    0.692988 0.294327 0.381714 0.214400
H39   H     H_    0.750303 0.188187 0.351027 0.180459
C51   C     C_3   0.441687 0.781578 0.687371 -0.389879
C52   C     C_3   0.311462 0.743741 0.691534 -0.797505
H40   H     H_    0.298848 0.689834 0.637622 0.263423
H41   H     H_    0.293826 0.717043 0.764415 0.235332
H42   H     H_    0.242675 0.796432 0.677859 0.228661
H43   H     H_    0.511805 0.732824 0.708281 0.206603
H44   H     H_    0.446739 0.833516 0.744852 0.179314

loop_
_geom_bond_atom_site_label_1
_geom_bond_atom_site_label_2
_geom_bond_distance
_ccdc_geom_bond_type
C38   H20   1.078335 S    
C31   C33   1.402804 A    
C29   C49   1.516148 S    
C49   C50   1.526307 S    
C40   C42   1.405870 A    
C45   C46   1.527622 S    
C25   H13   1.083257 S    
O5    C3    1.289288 A    
O1    C1    1.294058 A    
C14   C16   1.397145 A    
C8    H6    1.082731 S    
C36   C44   1.410262 A    
C18   C20   1.415453 A    
C42   H24   1.081202 S    
C11   H7    1.083087 S    
Cu1   N2    2.006594 S    
C50   H37   1.110804 S    
C17   C22   1.405801 A    
N1    C39   1.363918 A    
O4    Cu1   1.966883 S    
C35   H17   1.081281 S    
C36   H18   1.081456 S    
C24   H12   1.082170 S    
C37   H19   1.079163 S    
C50   H36   1.110360 S    
C49   H39   1.111931 S    
C13   H9    1.082351 S    
C51   H44   1.112070 S    
C48   H31   1.105752 S    
C23   C25   1.384893 A    
C45   H28   1.107919 S    
C23   C33   1.403494 A    
C20   C22   1.412697 A    
C33   C34   1.475647 S    
Cu1   Cu2   2.671122 S    
C17   C45   1.531924 S    
O2    C2    1.300136 A    
H1    C15   1.082258 S    
C28   C30   1.427837 A    
C47   H34   1.107465 S    
C29   C31   1.398108 A    
C30   C32   1.397804 A    
C36   C38   1.405575 A    
C11   C13   1.397634 A    
C51   C52   1.528199 S    
C12   C14   1.397830 A    
C18   C21   1.407472 A    
C40   H22   1.079698 S    
C39   H21   1.080957 S    
C49   H38   1.108713 S    
C25   C27   1.397724 A    
C5    C7    1.397153 A    
C32   C34   1.399475 A    
C18   C47   1.528973 S    
C27   C29   1.418128 A    
C14   H10   1.082434 S    
O7    Cu2   1.965034 S    
O7    C3    1.285600 A    
O5    Cu1   1.968085 S    
O6    C4    1.291228 A    
C50   H35   1.110236 S    
C51   H43   1.102461 S    
C52   H41   1.110358 S    
C24   C34   1.398995 A    
C48   H32   1.109905 S    
C23   H11   1.082163 S    
C41   H23   1.081430 S    
C45   H29   1.104158 S    
O3    Cu2   1.966883 S    
O8    C4    1.282914 A    
O4    C2    1.290712 A    
C46   H26   1.110127 S    
C7    H5    1.081455 S    
Cu2   N1    2.006593 S    
C13   C15   1.397567 A    
O1    Cu1   1.959120 S    
C7    C9    1.402588 A    
C47   H33   1.107611 S    
O6    Cu2   1.968085 S    
C6    C8    1.398346 A    
C30   C51   1.518747 S    
C42   C44   1.410983 A    
O3    C1    1.286195 A    
O8    Cu1   1.965031 S    
C9    C22   1.484630 S    
C9    C11   1.404101 A    
C46   H27   1.110649 S    
C10   C12   1.406298 A    
C4    C19   1.451770 S    
C31   H15   1.082868 S    
C12   H8    1.083277 S    
C17   C19   1.413738 A    
H2    C16   1.082281 S    
C39   C41   1.406339 A    
C38   N2    1.362437 A    
C6    C16   1.397225 A    
C35   C43   1.410002 A    
C37   N1    1.363510 A    
C26   H14   1.083212 S    
C5    H3    1.082399 S    
C32   H16   1.082423 S    
C52   H42   1.110831 S    
C6    H4    1.082010 S    
C3    C20   1.453538 S    
O2    Cu2   1.959120 S    
C43   C44   1.514341 S    
C35   C37   1.405379 A    
C26   C28   1.406024 A    
C47   C48   1.526929 S    
C19   C21   1.415381 A    
C46   H25   1.110012 S    
C8    C10   1.403162 A    
C52   H40   1.107432 S    
C1    C27   1.456115 S    
N2    C40   1.362389 A    
C5    C15   1.398274 A    
C2    C28   1.476505 S    
C48   H30   1.109706 S    
C41   C43   1.410745 A    
C24   C26   1.386709 A    
C10   C21   1.490690 S    
