data_mof_unit_58422.cif
_audit_creation_date              2012-12-10T16:57:50-0500
_audit_creation_method            fapswitch 2.2
_symmetry_space_group_name_H-M    P1
_symmetry_Int_Tables_number       1
_space_group_crystal_system       triclinic
_cell_length_a                    7.796667
_cell_length_b                    8.563999
_cell_length_c                    18.993128
_cell_angle_alpha                 91.906807
_cell_angle_beta                  84.293123
_cell_angle_gamma                 93.491931
_cell_volume                      1259.08201349

loop_
_atom_site_label
_atom_site_type_symbol
_atom_type_description
_atom_site_fract_x
_atom_site_fract_y
_atom_site_fract_z
_atom_type_partial_charge
C1    C     C_R   0.545587 0.794662 0.498300 0.966108
C2    C     C_R   0.654211 0.477840 0.170215 0.072272
C3    C     C_R   0.488706 0.370726 0.850348 0.072208
C4    C     C_R   0.501753 0.413462 0.143646 0.073557
C5    C     C_R   0.640278 0.433562 0.813401 -0.216960
C6    C     C_R   0.350175 0.390425 0.188984 -0.220943
C7    C     C_R   0.640886 0.475237 0.743638 -0.247444
C8    C     C_R   0.349725 0.425564 0.260523 -0.247474
C9    C     C_R   0.490186 0.454456 0.709367 -0.051023
C10   C     C_R   0.500941 0.484169 0.288323 -0.049020
C11   C     C_R   0.493881 0.380391 0.068115 0.305931
C12   C     C_R   0.454408 0.205342 0.501769 0.963077
C13   C     C_R   0.485450 0.354239 0.926634 0.312546
C14   C     C_2   0.569733 0.958022 0.497300 -0.380742
C15   C     C_2   0.430249 0.042006 0.502915 -0.381219
C16   C     C_R   0.498030 0.492194 0.634628 0.876051
C17   C     C_R   0.500706 0.500210 0.365073 0.881665
C18   C     C_R   0.337975 0.384402 0.744950 0.052533
C19   C     C_R   0.653648 0.513872 0.243086 0.050389
C20   C     C_R   0.337691 0.342292 0.815921 0.070624
H1    H     H_    0.757214 0.456709 0.839335 0.156634
H2    H     H_    0.906235 0.506940 0.260232 0.177667
H3    H     H_    0.152749 0.164633 0.826426 0.182469
H4    H     H_    0.084558 0.343699 0.853594 0.190920
H5    H     H_    0.841004 0.630210 0.125885 0.187906
H6    H     H_    0.907264 0.448589 0.138752 0.187641
H7    H     H_    0.995164 0.361332 0.386885 0.164228
H8    H     H_    0.975447 0.237196 0.453895 0.169437
H9    H     H_    0.999191 0.632525 0.614174 0.168327
H10   H     H_    0.026882 0.761640 0.548908 0.167902
H11   H     H_    0.231669 0.342882 0.169158 0.155296
H12   H     H_    0.759216 0.525946 0.716675 0.159816
H13   H     H_    0.231752 0.401869 0.294455 0.161459
H14   H     H_    0.701638 0.008634 0.491900 0.172932
H15   H     H_    0.298341 0.991404 0.508333 0.172452
H16   H     H_    0.154576 0.232247 0.708368 0.177555
H17   H     H_    0.084103 0.410930 0.735170 0.174767
H18   H     H_    0.841260 0.688707 0.246682 0.180375
N1    N     N_R   0.632382 0.329446 0.956131 -0.184115
N2    N     N_3   0.806774 0.510457 0.122966 -0.440527
N3    N     N_3   0.030700 0.345897 0.437657 -0.321791
N4    N     N_3   0.968662 0.652596 0.563050 -0.320166
N5    N     N_R   0.345567 0.399847 0.038770 -0.183624
N6    N     N_R   0.636186 0.341504 0.025813 -0.137883
N7    N     N_R   0.341698 0.387638 0.969192 -0.139573
N8    N     N_2   0.950330 0.457950 0.481240 0.001032
N9    N     N_2   0.049670 0.542050 0.518760 0.001329
N10   N     N_3   0.186268 0.352578 0.708492 -0.434513
N11   N     N_3   0.806071 0.582517 0.271215 -0.441966
N12   N     N_3   0.185958 0.269138 0.853073 -0.444702
O1    O     O_R   0.389250 0.738570 0.504600 -0.624167
O2    O     O_R   0.610750 0.261430 0.495400 -0.625481
O3    O     O_R   0.678400 0.711620 0.492580 -0.609672
O4    O     O_R   0.321600 0.288380 0.507420 -0.610939
O5    O     O_R   0.355380 0.513500 0.607880 -0.599419
O6    O     O_R   0.644620 0.486500 0.392120 -0.599993
O7    O     O_R   0.644530 0.486550 0.595850 -0.614756
O8    O     O_R   0.355470 0.513450 0.404150 -0.615044
Zn1   Zn    Zn3+2 0.306930 0.517990 0.508030 0.967742
Zn2   Zn    Zn3+2 0.693070 0.482010 0.491970 0.968310

loop_
_geom_bond_atom_site_label_1
_geom_bond_atom_site_label_2
_ccdc_geom_bond_type
C14   H14   S    
H7    N3    S    
C2    C4    A    
N3    N8    S    
C5    C7    A    
C11   N5    A    
N1    N6    A    
C7    H12   S    
O5    Zn1   S    
H9    N4    S    
N5    N7    A    
C10   C19   A    
C3    C13   S    
C12   C15   S    
C17   O8    A    
C16   O7    A    
C1    O3    A    
C3    C5    A    
C6    H11   S    
O7    Zn2   S    
C16   O5    A    
C3    C20   A    
H18   N11   S    
H17   N10   S    
C13   N7    A    
C1    O1    A    
C17   O6    A    
H6    N2    S    
H2    N11   S    
C6    C8    A    
C4    C6    A    
N4    N9    S    
C12   O2    A    
C9    C16   S    
H16   N10   S    
C18   C20   A    
O4    Zn1   S    
H5    N2    S    
H4    N12   S    
C14   C15   D    
C13   N1    A    
O1    Zn1   S    
C10   C17   S    
N9    Zn1   S    
C2    N2    S    
C9    C18   A    
C11   N6    A    
C5    H1    S    
C8    C10   A    
C15   H15   S    
C7    C9    A    
C19   N11   S    
N8    N9    D    
H10   N4    S    
H3    N12   S    
C20   N12   S    
C1    C14   S    
O2    Zn2   S    
N8    Zn2   S    
O8    Zn1   S    
C2    C19   A    
O3    Zn2   S    
C12   O4    A    
H8    N3    S    
O6    Zn2   S    
C8    H13   S    
C4    C11   S    
C18   N10   S    
