data_mof_unit_25820.cif
_audit_creation_date              2012-12-10T18:21:15-0500
_audit_creation_method            fapswitch 2.2
_symmetry_space_group_name_H-M    P1
_symmetry_Int_Tables_number       1
_space_group_crystal_system       triclinic
_cell_length_a                    15.040807
_cell_length_b                    14.013147
_cell_length_c                    10.644613
_cell_angle_alpha                 90.099541
_cell_angle_beta                  89.815497
_cell_angle_gamma                 89.855548
_cell_volume                      2243.53267754

loop_
_atom_site_label
_atom_site_type_symbol
_atom_type_description
_atom_site_fract_x
_atom_site_fract_y
_atom_site_fract_z
_atom_type_partial_charge
C1    C     C_R   0.326608 0.500194 0.502846 0.957629
C2    C     C_3   0.584766 0.453072 0.928340 -0.429203
C3    C     C_R   0.815408 0.420258 0.469017 -0.254541
C4    C     C_R   0.769108 0.500920 0.509530 -0.218622
C5    C     C_R   0.813932 0.581478 0.556810 0.495232
C6    C     C_R   0.906799 0.582564 0.555388 -0.093273
C7    C     C_R   0.953457 0.500277 0.513748 -0.110587
C8    C     C_R   0.907460 0.418472 0.471617 -0.057612
C9    C     C_R   0.954199 0.663861 0.594480 0.634254
C10   C     C_R   0.046082 0.662497 0.595597 -0.270612
C11   C     C_R   0.092668 0.581143 0.556491 -0.034154
C12   C     C_R   0.498876 0.500171 0.257570 0.916704
C13   C     C_R   0.046329 0.500039 0.513426 -0.051826
C14   C     C_R   0.092922 0.418919 0.469693 -0.086713
C15   C     C_R   0.046899 0.338048 0.428250 0.539353
C16   C     C_R   0.954250 0.336627 0.431487 0.419782
C17   C     C_R   0.185222 0.579633 0.560150 0.487076
C18   C     C_R   0.230875 0.500580 0.509810 -0.207017
C19   C     C_R   0.185019 0.420570 0.466617 -0.179598
C20   C     C_R   0.548907 0.798317 0.412896 -0.125125
C21   C     C_R   0.549978 0.201189 0.414149 -0.189086
C22   C     C_R   0.451728 0.797513 0.588944 0.781563
C23   C     C_R   0.449293 0.203096 0.586549 0.758113
C24   C     C_R   0.449889 0.898614 0.592595 -0.288061
C25   C     C_R   0.447614 0.101929 0.590260 -0.284998
C26   C     C_R   0.673412 0.500140 0.502006 0.878950
C27   C     C_R   0.499481 0.949394 0.502200 -0.030532
C28   C     C_R   0.499254 0.050669 0.502026 -0.019877
C29   C     C_R   0.549972 0.898806 0.411977 0.069501
C30   C     C_R   0.550515 0.100729 0.412668 0.074345
C31   C     C_R   0.400442 0.950026 0.683737 0.433857
C32   C     C_R   0.395875 0.050856 0.678721 0.413930
C33   C     C_R   0.600900 0.049550 0.323873 -0.174256
C34   C     C_R   0.600383 0.949496 0.323251 -0.160015
C35   C     C_R   0.499385 0.500155 0.742599 0.871730
C36   C     C_3   0.492273 0.605338 0.071274 0.524578
C37   C     C_3   0.417414 0.442497 0.072365 0.521932
C38   C     C_3   0.493174 0.604804 0.928557 -0.425254
C39   C     C_3   0.416960 0.444119 0.928028 -0.431706
C40   C     C_3   0.584982 0.454624 0.072439 -0.634329
C41   C     C_3   0.497820 0.500926 0.121369 -0.047391
C42   C     C_3   0.498570 0.500595 0.879016 0.001208
H1    H     H_    0.550483 0.647119 0.104957 0.055992
H2    H     H_    0.422897 0.367113 0.104400 0.091973
H3    H     H_    0.080582 0.726048 0.626607 0.220094
H4    H     H_    0.221396 0.359723 0.429661 0.233316
H5    H     H_    0.587135 0.758283 0.344314 0.155986
H6    H     H_    0.589198 0.240841 0.346686 0.159652
H7    H     H_    0.640533 0.086944 0.254590 0.142579
H8    H     H_    0.639597 0.911725 0.253477 0.138217
H9    H     H_    0.432043 0.640437 0.892749 0.243392
H10   H     H_    0.354367 0.477069 0.893948 0.195091
H11   H     H_    0.551362 0.646722 0.894737 0.136666
H12   H     H_    0.418605 0.369459 0.892167 0.208398
H13   H     H_    0.643526 0.495579 0.106538 0.195963
H14   H     H_    0.591723 0.380300 0.108102 0.215103
H15   H     H_    0.644313 0.491273 0.892955 0.169951
H16   H     H_    0.589422 0.377915 0.894803 0.213441
H17   H     H_    0.779200 0.359141 0.433513 0.215357
N1    N     N_R   0.500070 0.750030 0.500050 -0.156465
N2    N     N_R   0.500070 0.249970 0.500050 -0.157104
O1    O     O_R   0.367860 0.580280 0.500020 -0.524391
O2    O     O_R   0.367860 0.419720 0.500020 -0.600465
O3    O     O_R   0.500000 0.580270 0.314790 -0.597392
O4    O     O_R   0.500000 0.419730 0.314790 -0.649410
O5    O     O_R   0.632160 0.580270 0.499960 -0.584812
O6    O     O_R   0.632160 0.419730 0.499960 -0.642406
O7    O     O_R   0.500030 0.580270 0.685200 -0.599494
O8    O     O_R   0.500030 0.419730 0.685200 -0.582906
Zn1   Zn    Zn3+2 0.500020 0.607200 0.499990 1.053166
Zn2   Zn    Zn3+2 0.500020 0.392800 0.499990 0.993919
O9    O     O_3   0.230678 0.655936 0.611923 -0.572731
C43   C     C_3   0.240770 0.638937 0.741788 -0.132027
H18   H     H_    0.177322 0.617941 0.788376 0.119787
H19   H     H_    0.263081 0.705679 0.787877 0.251073
H20   H     H_    0.292327 0.583580 0.757363 0.138369
F1    F     F_    0.091544 0.260285 0.384477 -0.647157
O10   O     O_3   0.909666 0.257253 0.387168 -0.579985
C44   C     C_3   0.899771 0.192104 0.487018 -0.238810
H21   H     H_    0.862028 0.129433 0.452578 0.200169
H22   H     H_    0.861268 0.223966 0.566245 0.136174
H23   H     H_    0.965425 0.165964 0.520694 0.195043
F2    F     F_    0.405491 0.745637 0.673648 -0.643073
F3    F     F_    0.400638 0.255590 0.669014 -0.641175
O11   O     O_3   0.351803 0.902269 0.774326 -0.561336
C45   C     C_3   0.403753 0.895674 0.884083 -0.170476
H24   H     H_    0.417074 0.967425 0.924687 0.168227
H25   H     H_    0.467451 0.857232 0.866093 0.141892
H26   H     H_    0.366244 0.854126 0.955195 0.210835
O12   O     O_3   0.344096 0.098982 0.765867 -0.562329
C46   C     C_3   0.256278 0.103584 0.720097 -0.120960
H27   H     H_    0.226407 0.031276 0.712192 0.169773
H28   H     H_    0.253196 0.140946 0.627931 0.165630
H29   H     H_    0.215305 0.145138 0.787687 0.186019
F4    F     F_    0.415713 0.650748 0.113903 -0.612292
F5    F     F_    0.338001 0.479021 0.118769 -0.615251
O13   O     O_3   0.767081 0.660798 0.598487 -0.537257
C47   C     C_3   0.745314 0.647794 0.726294 -0.174252
H30   H     H_    0.711211 0.713025 0.761005 0.183358
H31   H     H_    0.805707 0.636734 0.784756 0.153625
H32   H     H_    0.698701 0.587306 0.738408 0.100984
F6    F     F_    0.912737 0.745549 0.631038 -0.630604

loop_
_geom_bond_atom_site_label_1
_geom_bond_atom_site_label_2
_ccdc_geom_bond_type
C7    C13   A    
C31   O11   S    
C27   C29   A    
C43   H18   S    
C24   C27   A    
C1    O1    A    
C6    C9    A    
O13   C47   S    
C19   H4    S    
C7    C8    A    
O5    Zn1   S    
O11   C45   S    
C25   C28   A    
C1    C18   S    
C26   O6    A    
C38   C42   S    
C22   N1    A    
C5    C6    A    
C12   O3    A    
C45   H25   S    
C39   H12   S    
C2    H15   S    
C15   C16   A    
O1    Zn1   S    
C18   C19   A    
O8    Zn2   S    
C35   C42   S    
C32   O12   S    
C9    F6    S    
C40   H14   S    
O6    Zn2   S    
O3    Zn1   S    
C20   N1    A    
C9    C10   A    
C21   N2    A    
C21   H6    S    
N2    Zn2   S    
C25   C32   A    
C39   H10   S    
C8    C16   A    
C13   C14   A    
C43   H19   S    
C36   C41   S    
C1    O2    A    
C33   C34   A    
C39   C42   S    
C20   C29   A    
C34   H8    S    
C23   F3    S    
C26   O5    A    
C3    C8    A    
C46   H27   S    
C44   H22   S    
O10   C44   S    
C4    C5    A    
C38   H9    S    
O4    Zn2   S    
C29   C34   A    
C37   F5    S    
C12   C41   S    
C46   H28   S    
C31   C32   A    
N1    Zn1   S    
C40   H13   S    
C10   H3    S    
C17   C18   A    
C40   C41   S    
O2    Zn2   S    
C47   H31   S    
C43   H20   S    
C22   C24   A    
C3    C4    A    
C21   C30   A    
C11   C17   A    
C30   C33   A    
C45   H24   S    
C14   C19   A    
C5    O13   S    
O9    C43   S    
C45   H26   S    
C44   H23   S    
C4    C26   S    
C2    H16   S    
C6    C7    A    
C47   H32   S    
C12   O4    A    
C22   F2    S    
C37   H2    S    
C36   C38   S    
C24   C31   A    
C37   C39   S    
C46   H29   S    
C11   C13   A    
C36   F4    S    
O12   C46   S    
C15   F1    S    
C38   H11   S    
C35   O7    A    
C2    C42   S    
C28   C30   A    
C16   O10   S    
C23   C25   A    
C37   C41   S    
C20   H5    S    
C10   C11   A    
C44   H21   S    
C2    C40   S    
C23   N2    A    
C35   O8    A    
C17   O9    S    
O7    Zn1   S    
C47   H30   S    
C27   C28   A    
C14   C15   A    
C36   H1    S    
C33   H7    S    
C3    H17   S    
