data_mof_unit_10187.cif
_audit_creation_date              2012-12-11T16:35:15-0500
_audit_creation_method            fapswitch 2.2
_symmetry_space_group_name_H-M    P1
_symmetry_Int_Tables_number       1
_space_group_crystal_system       triclinic
_cell_length_a                    6.934899
_cell_length_b                    17.669716
_cell_length_c                    19.505254
_cell_angle_alpha                 109.072954
_cell_angle_beta                  90.425817
_cell_angle_gamma                 90.53159
_cell_volume                      2258.68293703

loop_
_atom_site_label
_atom_site_type_symbol
_atom_type_description
_atom_site_fract_x
_atom_site_fract_y
_atom_site_fract_z
_atom_type_partial_charge
O1    O     O_R   0.505700 0.440210 0.561730 -0.513881
O2    O     O_R   0.169350 0.406300 0.412660 -0.539420
O3    O     O_R   0.005650 0.559790 0.438270 -0.540566
C1    C     C_R   0.337989 0.383379 0.384738 0.689572
O4    O     O_R   0.175560 0.430650 0.559600 -0.551733
O5    O     O_R   0.011900 0.584320 0.586250 -0.538179
C2    C     C_R   0.344541 0.416116 0.581460 0.712980
O6    O     O_R   0.499450 0.415680 0.413750 -0.535899
O7    O     O_3   0.341370 0.550390 0.508570 -0.371941
V1    V     V_3+5 0.063940 0.490650 0.498410 1.417835
O8    O     O_R   0.682570 0.593700 0.587340 -0.534183
C3    C     C_R   0.852850 0.616559 0.615037 0.715681
O9    O     O_R   0.676370 0.569350 0.440400 -0.549407
C4    C     C_R   0.845146 0.584279 0.418744 0.679928
V2    V     V_3+5 0.564750 0.509350 0.501590 1.435079
O10   O     O_3   0.837190 0.449610 0.491430 -0.363153
C5    C     C_R   0.038471 0.680865 0.284867 -0.148559
H1    H     H_    0.171082 0.679563 0.255616 0.101824
C6    C     C_R   0.027173 0.635714 0.331815 -0.154513
H2    H     H_    0.152073 0.601942 0.337803 0.117532
C7    C     C_R   0.856393 0.633062 0.369492 -0.050646
C8    C     C_R   0.697267 0.677007 0.359162 -0.177830
H3    H     H_    0.563765 0.676636 0.387528 0.121375
C9    C     C_R   0.709332 0.723073 0.312895 -0.145572
H4    H     H_    0.585114 0.757602 0.307886 0.101071
C10   C     C_R   0.880061 0.725584 0.274830 0.089201
C11   C     C_R   0.729832 0.784474 0.185383 -0.146919
H5    H     H_    0.593155 0.756271 0.189468 0.100290
C12   C     C_R   0.741311 0.830264 0.138965 -0.162206
H6    H     H_    0.612659 0.836809 0.109673 0.121861
C13   C     C_R   0.916714 0.866156 0.129703 -0.049403
C14   C     C_R   0.080223 0.855496 0.168424 -0.171548
H7    H     H_    0.217150 0.882970 0.163170 0.114076
C15   C     C_R   0.068161 0.810678 0.215730 -0.147637
H8    H     H_    0.196187 0.805796 0.246005 0.098705
C16   C     C_R   0.892823 0.774196 0.224808 0.092249
H9    H     H_    0.126357 0.635999 0.923651 0.113405
C17   C     C_R   0.777760 0.905490 0.752609 -0.140012
C18   C     C_R   0.706172 0.917764 0.690219 -0.124178
C19   C     C_R   0.688063 0.853896 0.625990 -0.119054
C20   C     C_R   0.741314 0.777269 0.623670 -0.136416
C21   C     C_R   0.812162 0.762664 0.686410 0.067909
C22   C     C_R   0.830807 0.828125 0.752265 0.070806
C23   C     C_R   0.868672 0.684883 0.683929 -0.196443
C24   C     C_R   0.944643 0.672714 0.747316 0.064694
C25   C     C_R   0.960202 0.737907 0.813424 0.070249
C26   C     C_R   0.904774 0.815694 0.815752 -0.187338
C27   C     C_R   0.999623 0.595593 0.746976 -0.162292
C28   C     C_R   0.063028 0.582774 0.810147 -0.148758
C29   C     C_R   0.077090 0.646297 0.874687 -0.115681
C30   C     C_R   0.026486 0.723055 0.876646 -0.132376
H10   H     H_    0.792403 0.957551 0.800715 0.105451
H11   H     H_    0.665965 0.977320 0.691633 0.119824
H12   H     H_    0.633875 0.863849 0.577483 0.114610
H13   H     H_    0.727757 0.730053 0.571966 0.103280
H14   H     H_    0.989450 0.543797 0.698524 0.125796
H15   H     H_    0.100910 0.523058 0.808961 0.117756
H16   H     H_    0.037266 0.770102 0.928548 0.103453
H17   H     H_    0.590691 0.482302 0.195474 0.119397
C31   C     C_R   0.228063 0.220004 0.372471 -0.141041
C32   C     C_R   0.183402 0.141969 0.369560 -0.118526
C33   C     C_R   0.216428 0.078284 0.306672 -0.124666
C34   C     C_R   0.294545 0.092104 0.246186 -0.135398
C35   C     C_R   0.339492 0.170761 0.247005 0.073603
C36   C     C_R   0.305275 0.236161 0.311657 0.068812
C37   C     C_R   0.420591 0.184401 0.185224 -0.188289
C38   C     C_R   0.467790 0.263819 0.188583 0.067471
C39   C     C_R   0.433445 0.329222 0.253219 0.073393
C40   C     C_R   0.352321 0.315570 0.314979 -0.185887
C41   C     C_R   0.545327 0.279991 0.127829 -0.140382
C42   C     C_R   0.590175 0.358031 0.130788 -0.118359
C43   C     C_R   0.556894 0.421716 0.193645 -0.125833
C44   C     C_R   0.478396 0.407894 0.254064 -0.137423
H18   H     H_    0.201817 0.267205 0.423025 0.104051
H19   H     H_    0.123972 0.130836 0.416589 0.113004
H20   H     H_    0.182786 0.017702 0.304888 0.118954
H21   H     H_    0.321325 0.040256 0.199228 0.101402
H22   H     H_    0.571763 0.232795 0.077296 0.108684
H23   H     H_    0.649954 0.369175 0.083819 0.115380
H24   H     H_    0.451450 0.459766 0.300996 0.102808
C45   C     C_R   0.505509 0.338788 0.733603 -0.213181
H25   H     H_    0.609966 0.354384 0.777727 0.110719
C46   C     C_R   0.492697 0.387239 0.689099 0.293312
C47   C     C_R   0.354892 0.368715 0.631894 -0.078758
C48   C     C_R   0.227217 0.303893 0.622919 -0.233264
H26   H     H_    0.119856 0.288722 0.579783 0.130932
C49   C     C_R   0.239164 0.256834 0.668329 -0.147292
H27   H     H_    0.140393 0.206579 0.659066 0.116372
C50   C     C_R   0.379438 0.273295 0.723929 0.049182
C51   C     C_R   0.224255 0.196514 0.797998 -0.147495
H28   H     H_    0.083187 0.211091 0.782090 0.099345
C52   C     C_R   0.236016 0.151637 0.845237 -0.157329
H29   H     H_    0.103267 0.132071 0.863442 0.118562
C53   C     C_R   0.416109 0.132620 0.868835 -0.052233
C54   C     C_R   0.584177 0.159378 0.843389 -0.176411
H30   H     H_    0.725310 0.145383 0.859746 0.116847
C55   C     C_R   0.572303 0.204373 0.796161 -0.146540
H31   H     H_    0.704610 0.223358 0.777174 0.101443
C56   C     C_R   0.392144 0.223743 0.772949 0.108273
O11   O     O_R   0.273230 0.084330 0.086440 -0.534174
O12   O     O_R   0.596660 0.069390 0.940470 -0.548316
O13   O     O_R   0.760270 0.915710 0.913690 -0.535651
C57   C     C_R   0.427424 0.084209 0.918659 0.684728
O14   O     O_R   0.603330 0.093680 0.087390 -0.537057
O15   O     O_R   0.766990 0.940160 0.061660 -0.539351
C58   C     C_R   0.434766 0.116598 0.115420 0.698354
O16   O     O_R   0.266510 0.059870 0.938470 -0.539103
O17   O     O_3   0.431050 0.949630 0.991510 -0.367906
V3    V     V_3+5 0.708490 0.009340 0.001580 1.409592
O18   O     O_R   0.096270 0.930570 0.059390 -0.547017
C59   C     C_R   0.927550 0.915439 0.080912 0.684975
O19   O     O_R   0.089600 0.906290 0.912460 -0.538295
C60   C     C_R   0.919483 0.883727 0.884729 0.697667
V4    V     V_3+5 0.207670 0.990600 0.998190 1.413146
O20   O     O_3   0.935250 0.050360 0.008480 -0.367849
N1    N     N_2   0.612493 0.456787 0.704627 -0.523363
H32   H     H_    0.742219 0.452068 0.729048 0.247119
C61   C     C_3   0.514634 0.530310 0.742784 -0.516297
H33   H     H_    0.470245 0.530003 0.797307 0.186466
H34   H     H_    0.386573 0.538150 0.711506 0.193167
H35   H     H_    0.611811 0.582278 0.749712 0.204781

loop_
_geom_bond_atom_site_label_1
_geom_bond_atom_site_label_2
_ccdc_geom_bond_type
C49   H27   S    
C41   H22   S    
C20   C21   A    
C54   H30   S    
C1    O6    A    
O19   V4    S    
C55   H31   S    
C18   H11   S    
C48   H26   S    
C32   H19   S    
C12   H6    S    
C50   C56   S    
C5    C10   A    
C4    C7    S    
C6    C7    A    
C9    C10   A    
O5    C3    A    
O14   V3    S    
C11   C12   A    
O12   V3    S    
V2    O10   S    
C28   H15   S    
O17   V3    S    
C27   H14   S    
C15   H8    S    
O17   V4    S    
C61   H33   S    
C20   H13   S    
C55   C56   A    
O18   C59   A    
O8    V2    S    
C46   C47   A    
C39   C40   A    
C41   C42   A    
O1    V2    S    
O7    V1    S    
O18   V4    S    
H17   C43   S    
C45   C50   A    
C2    C47   S    
O15   C59   A    
O12   C57   A    
O9    C4    A    
O19   C60   A    
C33   H20   S    
C53   C54   A    
C21   C23   A    
C37   C58   S    
C42   H23   S    
C1    C40   S    
C45   C46   A    
C29   C30   A    
C48   C49   A    
C38   C39   A    
O11   V4    S    
C9    H4    S    
C18   C19   A    
O4    C2    A    
C39   C44   A    
C24   C25   A    
C25   C30   A    
C45   H25   S    
C31   C32   A    
C61   H35   S    
C35   C37   A    
O2    C1    A    
O16   V4    S    
O5    V1    S    
C33   C34   A    
C51   C52   A    
C13   C14   A    
C52   C53   A    
C5    H1    S    
C30   H16   S    
C47   C48   A    
O3    C4    A    
C10   C16   S    
C19   C20   A    
C31   C36   A    
O6    V2    S    
C19   H12   S    
C49   C50   A    
C8    C9    A    
C21   C22   A    
O2    V1    S    
C51   C56   A    
C23   C24   A    
C34   H21   S    
C24   C27   A    
C26   C60   S    
O15   V3    S    
C25   C26   A    
C27   C28   A    
O1    C2    A    
C46   N1    S    
C43   C44   A    
C53   C57   S    
O8    C3    A    
C54   C55   A    
V4    O20   S    
O14   C58   A    
C11   C16   A    
O11   C58   A    
C38   C41   A    
C35   C36   A    
C6    H2    S    
O9    V2    S    
O7    V2    S    
O4    V1    S    
C12   C13   A    
O3    V1    S    
V1    O10   S    
C14   H7    S    
H9    C29   S    
C51   H28   S    
C17   C18   A    
C36   C40   A    
C31   H18   S    
C52   H29   S    
C5    C6    A    
C44   H24   S    
N1    C61   S    
N1    H32   S    
C37   C38   A    
C15   C16   A    
C32   C33   A    
C61   H34   S    
V3    O20   S    
C34   C35   A    
C17   C22   A    
C17   H10   S    
C3    C23   S    
C28   C29   A    
C11   H5    S    
O13   C60   A    
C13   C59   S    
C8    H3    S    
O13   V3    S    
C57   O16   A    
C42   C43   A    
C7    C8    A    
C22   C26   A    
C14   C15   A    
