data_mof_unit_48249.cif
_audit_creation_date              2012-10-26T19:25:16-0400
_audit_creation_method            fapswitch 2.2
_symmetry_space_group_name_H-M    P1
_symmetry_Int_Tables_number       1
_space_group_crystal_system       triclinic
_cell_length_a                    12.386382
_cell_length_b                    13.216944
_cell_length_c                    19.323904
_cell_angle_alpha                 75.907899
_cell_angle_beta                  100.846518
_cell_angle_gamma                 116.946847
_cell_volume                      2724.07125051

loop_
_atom_site_label
_atom_site_type_symbol
_atom_type_description
_atom_site_fract_x
_atom_site_fract_y
_atom_site_fract_z
_atom_type_partial_charge
C1    C     C_R   0.854831 0.286280 0.508871 0.529644
C2    C     C_R   0.992145 0.490343 0.147349 0.034456
C3    C     C_R   0.279514 0.034260 0.418934 -0.111446
C4    C     C_R   0.999535 0.499417 0.632347 0.538040
C5    C     C_R   0.224762 0.838875 0.484172 -0.012194
C6    C     C_R   0.806078 0.088672 0.576006 -0.135042
C7    C     C_R   0.719596 0.981720 0.605015 -0.152554
C8    C     C_R   0.597012 0.948037 0.581309 -0.127284
C9    C     C_R   0.558925 0.017446 0.523381 0.019933
C10   C     C_R   0.648394 0.124404 0.492007 0.000149
C11   C     C_R   0.435307 0.983771 0.495027 0.002283
C12   C     C_R   0.999306 0.498236 0.708554 -0.006918
C13   C     C_R   0.402318 0.062221 0.441421 0.075568
C14   C     C_R   0.492434 0.165538 0.409403 0.085059
C15   C     C_R   0.613878 0.191564 0.431612 -0.111520
C16   C     C_R   0.144410 0.714154 0.491757 0.550304
C17   C     C_R   0.344622 0.871895 0.514842 -0.137889
C18   C     C_R   0.189493 0.924458 0.441451 -0.041610
C19   C     C_R   0.770804 0.163013 0.522076 -0.001723
C20   C     C_R   0.336739 0.316279 0.611275 -0.153718
C21   C     C_R   0.752286 0.629230 0.394677 0.063925
C22   C     C_R   0.643845 0.631325 0.361239 -0.162105
C23   C     C_R   0.991624 0.489134 0.071321 0.336282
C24   C     C_R   0.539003 0.569206 0.396874 -0.130043
C25   C     C_R   0.542741 0.512492 0.468529 -0.009362
C26   C     C_R   0.650856 0.499064 0.496149 0.173474
C27   C     C_R   0.440251 0.460473 0.511002 -0.018335
C28   C     C_R   0.999580 0.499301 0.367849 0.539841
C29   C     C_R   0.438219 0.374586 0.571418 0.026846
C30   C     C_R   0.539660 0.350716 0.593010 -0.170052
C31   C     C_R   0.645475 0.414865 0.557886 -0.102803
C32   C     C_R   0.345577 0.497979 0.500065 0.120915
C33   C     C_R   0.240171 0.347431 0.593838 0.029201
C34   C     C_R   0.996042 0.491342 0.931200 0.363926
C35   C     C_R   0.090873 0.481826 0.758255 -0.128833
C36   C     C_R   0.091982 0.479828 0.831023 0.096247
C37   C     C_R   0.999320 0.493755 0.854907 0.072701
C38   C     C_R   0.908354 0.511030 0.804738 -0.152859
C39   C     C_R   0.908190 0.513100 0.732331 -0.151803
C40   C     C_R   0.372357 0.616513 0.458193 0.083103
C41   C     C_R   0.320222 0.635649 0.387716 -0.065193
C42   C     C_R   0.361380 0.745926 0.345590 -0.127226
C43   C     C_R   0.461727 0.837183 0.370993 -0.106896
C44   C     C_R   0.519882 0.818053 0.438663 -0.119502
C45   C     C_R   0.053373 0.436789 0.200642 -0.122604
C46   C     C_R   0.472895 0.710094 0.483206 -0.101157
C47   C     C_R   0.061512 0.906293 0.420711 0.050487
C48   C     C_R   0.019736 0.925935 0.348100 -0.112227
C49   C     C_R   0.904799 0.925168 0.328796 -0.133252
C50   C     C_R   0.831038 0.905341 0.381702 -0.108516
C51   C     C_R   0.871258 0.884481 0.454060 -0.104042
C52   C     C_R   0.986282 0.885381 0.473602 -0.054364
C53   C     C_R   0.055797 0.439654 0.272465 -0.149138
C54   C     C_R   0.997336 0.496323 0.292226 0.007196
C55   C     C_R   0.935101 0.548880 0.239199 -0.136767
C56   C     C_R   0.932719 0.546133 0.167339 -0.121212
Cu1   Cu    Cu3+1 0.098280 0.475420 0.516260 0.930781
Cu2   Cu    Cu3+1 0.901720 0.524580 0.483740 0.915614
H1    H     H_    0.162721 0.471140 0.740877 0.126882
H2    H     H_    0.332667 0.247579 0.656301 0.097494
H3    H     H_    0.832817 0.673364 0.365894 0.139918
H4    H     H_    0.454571 0.559671 0.366027 0.114811
H5    H     H_    0.640001 0.676960 0.306777 0.104133
H6    H     H_    0.719461 0.392638 0.579232 0.178841
H7    H     H_    0.836133 0.521747 0.821582 0.134770
H8    H     H_    0.836315 0.525776 0.695120 0.133057
H9    H     H_    0.099659 0.392687 0.187008 0.138534
H10   H     H_    0.102544 0.396631 0.312520 0.124714
H11   H     H_    0.889155 0.593080 0.253155 0.119655
H12   H     H_    0.252909 0.097756 0.383007 0.157215
H13   H     H_    0.884674 0.588103 0.127549 0.136117
H14   H     H_    0.497840 0.323333 0.367469 0.243387
H15   H     H_    0.502967 0.252233 0.307185 0.230779
H16   H     H_    0.189377 0.388803 0.876679 0.231465
H17   H     H_    0.271224 0.533660 0.862891 0.227996
H18   H     H_    0.260008 0.564272 0.361574 0.118206
H19   H     H_    0.320686 0.758826 0.291413 0.112679
H20   H     H_    0.497292 0.921571 0.337278 0.115412
H21   H     H_    0.602555 0.886766 0.456210 0.121667
H22   H     H_    0.520004 0.697356 0.535481 0.096837
H23   H     H_    0.366562 0.805986 0.550465 0.127352
H24   H     H_    0.077165 0.944064 0.306600 0.109355
H25   H     H_    0.873273 0.940859 0.272807 0.112796
H26   H     H_    0.742423 0.905318 0.366491 0.115409
H27   H     H_    0.813889 0.868882 0.494976 0.107582
H28   H     H_    0.017979 0.872608 0.529827 0.107666
H29   H     H_    0.899380 0.116421 0.599340 0.123500
H30   H     H_    0.534490 0.867472 0.609574 0.103292
H31   H     H_    0.747075 0.926654 0.648561 0.117667
H32   H     H_    0.680796 0.266189 0.400952 0.146119
H33   H     H_    0.161175 0.300988 0.624014 0.119776
H34   H     H_    0.539174 0.285070 0.639415 0.114546
N1    N     N_R   0.937669 0.544320 0.950577 -0.245792
N2    N     N_R   0.935663 0.543385 0.019304 -0.236335
N3    N     N_R   0.048759 0.435095 0.051942 -0.235356
N4    N     N_R   0.050707 0.436029 0.983269 -0.173306
N5    N     N_R   0.246290 0.438200 0.540910 -0.234997
N6    N     N_R   0.754310 0.561190 0.459520 -0.238554
N7    N     N_3   0.461369 0.242703 0.352169 -0.655721
N8    N     N_3   0.189173 0.466579 0.879839 -0.599389
O1    O     O_R   0.972510 0.318130 0.520450 -0.500736
O2    O     O_R   0.806530 0.359650 0.492990 -0.519129
O3    O     O_R   0.083010 0.479220 0.613590 -0.507247
O4    O     O_R   0.917030 0.520740 0.586130 -0.522126
O5    O     O_R   0.193470 0.640350 0.507010 -0.490331
O6    O     O_R   0.027490 0.681870 0.479550 -0.492462
O7    O     O_R   0.082970 0.479260 0.413870 -0.509309
O8    O     O_R   0.916990 0.520780 0.386410 -0.514629

loop_
_geom_bond_atom_site_label_1
_geom_bond_atom_site_label_2
_ccdc_geom_bond_type
Cu1   O5    S    
C55   C56   A    
N1    N2    A    
C27   C29   A    
C34   C37   S    
C41   C42   A    
N3    N4    A    
Cu2   N6    S    
C34   N1    A    
C18   C47   S    
C51   H27   S    
C50   H26   S    
C7    C8    A    
C53   C54   A    
C43   H20   S    
C40   C46   A    
C6    C19   A    
C37   C38   A    
C36   C37   A    
C34   N4    A    
C10   C15   A    
C33   H33   S    
C30   C31   A    
C5    C17   A    
C28   O7    A    
C7    H31   S    
C4    O3    A    
C32   N5    A    
C3    C18   A    
C35   H1    S    
C53   H10   S    
C5    C16   S    
C22   H5    S    
C35   C36   A    
C23   N3    A    
C8    C9    A    
C45   H9    S    
Cu2   O2    S    
C20   H2    S    
C17   H23   S    
C9    C10   A    
C21   H3    S    
C3    C13   A    
C16   O6    A    
C45   C53   A    
C26   C31   A    
C21   C22   A    
C44   C46   A    
C6    C7    A    
C20   C29   A    
C2    C45   A    
Cu1   O3    S    
C1    C19   S    
C51   C52   A    
C14   N7    S    
C3    H12   S    
C24   C25   A    
C30   H34   S    
C28   C54   S    
H16   N8    S    
C5    C18   A    
C25   C26   A    
C6    H29   S    
C8    H30   S    
C43   C44   A    
C29   C30   A    
C47   C48   A    
C38   H7    S    
C10   C19   A    
C56   H13   S    
Cu1   N5    S    
C50   C51   A    
C36   N8    S    
C12   C35   A    
C9    C11   A    
C55   H11   S    
C16   O5    A    
C26   N6    A    
C20   C33   A    
C40   C41   A    
Cu1   O7    S    
C39   H8    S    
C22   C24   A    
C4    C12   S    
C42   C43   A    
C1    O1    A    
H15   N7    S    
C54   C55   A    
C11   C17   A    
C24   H4    S    
C27   C32   A    
C31   H6    S    
C44   H21   S    
C47   C52   A    
C25   C27   A    
Cu1   O1    S    
C23   N2    A    
C49   H25   S    
C12   C39   A    
C52   H28   S    
C2    C56   A    
C15   H32   S    
C46   H22   S    
C21   N6    A    
C11   C13   A    
Cu1   Cu2   S    
C38   C39   A    
C28   O8    A    
C48   C49   A    
C4    O4    A    
H17   N8    S    
C48   H24   S    
Cu2   O8    S    
C32   C40   S    
Cu2   O4    S    
C42   H19   S    
C49   C50   A    
C2    C23   S    
C14   C15   A    
C33   N5    A    
Cu2   O6    S    
C13   C14   A    
C1    O2    A    
C41   H18   S    
H14   N7    S    
