data_mof_unit_43813.cif
_audit_creation_date              2012-12-10T17:25:22-0500
_audit_creation_method            fapswitch 2.2
_symmetry_space_group_name_H-M    P1
_symmetry_Int_Tables_number       1
_space_group_crystal_system       triclinic
_cell_length_a                    27.745173
_cell_length_b                    10.806357
_cell_length_c                    9.609078
_cell_angle_alpha                 89.932886
_cell_angle_beta                  90.843761
_cell_angle_gamma                 93.573988
_cell_volume                      2875.11943967

loop_
_atom_site_label
_atom_site_type_symbol
_atom_type_description
_atom_site_fract_x
_atom_site_fract_y
_atom_site_fract_z
_atom_type_partial_charge
C1    C     C_R   0.504634 0.263254 0.499995 0.895241
C2    C     C_R   0.274852 0.450682 0.405726 0.313742
C3    C     C_R   0.254538 0.526660 0.505260 0.119871
C4    C     C_R   0.102627 0.534254 0.519741 -0.110030
C5    C     C_R   0.125562 0.423970 0.546334 -0.102693
C6    C     C_R   0.097811 0.312773 0.562648 -0.150540
C7    C     C_R   0.130681 0.642675 0.481246 -0.114645
C8    C     C_R   0.354991 0.507243 0.499810 -0.247501
C9    C     C_R   0.645914 0.503475 0.508597 -0.133119
C10   C     C_R   0.973286 0.427732 0.579913 0.046012
C11   C     C_R   0.977858 0.649756 0.524549 -0.103425
C12   C     C_R   0.407641 0.500287 0.499388 0.868689
C13   C     C_R   0.950158 0.538307 0.551745 0.022254
C14   C     C_R   0.945813 0.329361 0.642106 -0.207192
C15   C     C_R   0.895712 0.327792 0.647846 0.374466
C16   C     C_R   0.871444 0.429291 0.595078 -0.071578
C17   C     C_R   0.899015 0.538327 0.556885 -0.170111
C18   C     C_R   0.875562 0.647691 0.525492 -0.174728
C19   C     C_R   0.824678 0.641491 0.517572 0.694533
C20   C     C_R   0.820771 0.427963 0.582879 0.618656
C21   C     C_R   0.724955 0.513536 0.398667 0.447089
C22   C     C_R   0.674064 0.502098 0.388139 -0.367632
C23   C     C_R   0.495086 0.736787 0.500297 0.814177
C24   C     C_R   0.669053 0.514850 0.639493 -0.212133
C25   C     C_R   0.719071 0.526771 0.650831 0.378740
C26   C     C_R   0.747124 0.526667 0.530802 0.190942
C27   C     C_R   0.023760 0.423061 0.558979 -0.006510
C28   C     C_R   0.051543 0.534885 0.529609 0.039506
C29   C     C_R   0.028566 0.646506 0.506119 0.009879
C30   C     C_R   0.047664 0.310298 0.558585 0.327425
C31   C     C_R   0.106579 0.749953 0.445173 0.399099
C32   C     C_R   0.953840 0.762094 0.527199 0.309736
C33   C     C_R   0.903471 0.760435 0.509873 0.370614
C34   C     C_R   0.592591 0.499841 0.501396 0.841806
C35   C     C_R   0.056569 0.749427 0.454672 -0.215053
C36   C     C_R   0.542920 0.108448 0.739150 0.411108
C37   C     C_R   0.541219 0.042476 0.863949 -0.155042
C38   C     C_R   0.509987 0.938223 0.878537 -0.184638
C39   C     C_R   0.487036 0.886240 0.761162 -0.134425
C40   C     C_R   0.496017 0.938903 0.628668 -0.005695
C41   C     C_R   0.515341 0.062062 0.623130 -0.036788
C42   C     C_R   0.509731 0.128576 0.498648 -0.296762
C43   C     C_R   0.501890 0.063128 0.372621 0.375154
C44   C     C_R   0.488601 0.936827 0.374847 0.326611
C45   C     C_R   0.175999 0.425266 0.546657 0.639716
C46   C     C_R   0.489561 0.871720 0.502396 -0.287194
C47   C     C_R   0.564671 0.667891 0.145708 -0.216183
C48   C     C_R   0.597356 0.749260 0.073890 0.458071
C49   C     C_R   0.596907 0.745351 0.930157 -0.234948
C50   C     C_R   0.565316 0.663393 0.858077 -0.221663
C51   C     C_R   0.532159 0.580671 0.926449 0.195439
C52   C     C_R   0.532013 0.581671 0.075800 0.054679
C53   C     C_R   0.469942 0.421590 0.070955 0.450493
C54   C     C_R   0.469921 0.422401 0.923760 -0.098407
C55   C     C_R   0.181502 0.637138 0.475681 0.648442
C56   C     C_R   0.284779 0.594203 0.600602 0.389358
C57   C     C_R   0.334653 0.585828 0.595704 -0.355133
C58   C     C_R   0.324763 0.434009 0.409675 0.321629
Cu1   Cu    Cu3+1 0.500000 0.499990 0.640660 0.951294
Cu2   Cu    Cu3+1 0.500000 0.500010 0.359340 0.982460
H1    H     H_    0.648354 0.516739 0.734076 0.211934
H2    H     H_    0.040023 0.830190 0.414942 0.238510
H3    H     H_    0.565252 0.069167 0.948064 0.174391
H4    H     H_    0.506816 0.891988 0.978138 0.200972
H5    H     H_    0.463662 0.803429 0.774813 0.167489
H6    H     H_    0.565370 0.676286 0.255107 0.207602
H7    H     H_    0.620811 0.809202 0.872622 0.189064
H8    H     H_    0.567802 0.670957 0.748315 0.216861
H9    H     H_    0.445464 0.358486 0.866544 0.174901
H10   H     H_    0.115032 0.225524 0.567946 0.233932
H11   H     H_    0.656450 0.496889 0.286966 0.172074
H12   H     H_    0.963112 0.255020 0.693851 0.205376
H13   H     H_    0.357656 0.640308 0.667821 0.205313
N1    N     N_R   0.202861 0.530634 0.511612 -0.430966
N2    N     N_R   0.798843 0.532369 0.543297 -0.443830
N3    N     N_R   0.500460 0.501210 0.147910 -0.245246
N4    N     N_R   0.500480 0.501290 0.852040 -0.209053
O1    O     O_R   0.500000 0.319640 0.618810 -0.551759
O2    O     O_2   0.793261 0.322995 0.606612 -0.467385
O3    O     O_2   0.209647 0.736088 0.434308 -0.448686
O4    O     O_2   0.800955 0.742824 0.483895 -0.485487
O5    O     O_R   0.500000 0.319660 0.381240 -0.517342
O6    O     O_R   0.430260 0.500010 0.618770 -0.602306
O7    O     O_R   0.430270 0.500030 0.381200 -0.510138
O8    O     O_R   0.500000 0.680340 0.618760 -0.614575
O9    O     O_R   0.500000 0.680360 0.381190 -0.566259
O10   O     O_R   0.569730 0.499970 0.618800 -0.564402
O11   O     O_R   0.569740 0.499990 0.381230 -0.632077
O12   O     O_2   0.198173 0.321585 0.581283 -0.516149
O13   O     O_3   0.344034 0.347303 0.324322 -0.554372
C59   C     C_3   0.332496 0.225817 0.375147 0.178334
H14   H     H_    0.329129 0.162596 0.283954 0.186101
H15   H     H_    0.297243 0.215482 0.429718 0.176063
C60   C     C_3   0.372975 0.183539 0.470945 -0.404083
H16   H     H_    0.407401 0.188139 0.413494 0.260180
H17   H     H_    0.377262 0.245885 0.562675 0.212597
C61   C     C_3   0.362330 0.050961 0.521870 -0.863400
H18   H     H_    0.329006 0.044912 0.584806 0.294018
H19   H     H_    0.392923 0.022399 0.587767 0.256508
H20   H     H_    0.357602 0.986248 0.432386 0.246255
Cl1   Cl    Cl    0.261197 0.688313 0.729108 -0.599967
Cl2   Cl    Cl    0.135745 0.889233 0.384315 -0.494003
O14   O     O_3   0.978203 0.875188 0.555857 -0.577215
C62   C     C_3   0.991215 0.882140 0.699003 0.110741
H21   H     H_    0.024583 0.944039 0.708674 0.211989
H22   H     H_    0.000242 0.791462 0.745100 0.118335
C63   C     C_3   0.951232 0.938006 0.782154 -0.282229
H23   H     H_    0.942108 0.026785 0.733275 0.284383
H24   H     H_    0.918403 0.873663 0.780397 0.239401
C64   C     C_3   0.966812 0.961952 0.933116 -0.889036
H25   H     H_    0.975960 0.874066 0.984348 0.254543
H26   H     H_    0.936766 0.000963 0.990235 0.273361
H27   H     H_    0.998672 0.029437 0.938154 0.271039
O15   O     O_3   0.881538 0.872073 0.502951 -0.539404
C65   C     C_3   0.889419 0.926877 0.370755 0.130238
H28   H     H_    0.864661 0.879627 0.292586 0.152389
H29   H     H_    0.927321 0.921357 0.335247 0.160003
C66   C     C_3   0.878826 0.063755 0.378763 -0.263532
H30   H     H_    0.840444 0.072147 0.406896 0.251543
H31   H     H_    0.902170 0.109377 0.461026 0.275033
C67   C     C_3   0.888761 0.130197 0.241004 -0.900498
H32   H     H_    0.927516 0.127439 0.214535 0.281378
H33   H     H_    0.880006 0.228682 0.250169 0.266999
H34   H     H_    0.866222 0.085941 0.156128 0.267319
Cl3   Cl    Cl    0.745994 0.544642 0.817084 -0.608411
O16   O     O_3   0.509946 0.120922 0.245757 -0.533320
C68   C     C_3   0.560554 0.139198 0.227384 0.072052
H35   H     H_    0.573769 0.055037 0.178330 0.177897
H36   H     H_    0.581456 0.155363 0.326669 0.121615
C69   C     C_3   0.571777 0.253240 0.136347 -0.314022
H37   H     H_    0.548279 0.251329 0.041926 0.243379
H38   H     H_    0.564521 0.337288 0.195569 0.257296
C70   C     C_3   0.624695 0.263493 0.095478 -0.895026
H39   H     H_    0.647834 0.266261 0.190757 0.242182
H40   H     H_    0.632177 0.349801 0.034589 0.281140
H41   H     H_    0.633695 0.183163 0.031160 0.287859
Cl4   Cl    Cl    0.588640 0.228354 0.724340 -0.653725
O17   O     O_3   0.245107 0.383939 0.312445 -0.574898
C71   C     C_3   0.244624 0.448947 0.185040 0.064537
H42   H     H_    0.281193 0.453940 0.138062 0.182321
H43   H     H_    0.232790 0.544743 0.200298 0.157729
C72   C     C_3   0.209026 0.380111 0.085003 -0.332545
H44   H     H_    0.219785 0.283578 0.070906 0.251688
H45   H     H_    0.172303 0.376281 0.130216 0.235006
C73   C     C_3   0.207589 0.443755 0.943292 -0.794123
H46   H     H_    0.196781 0.540446 0.954634 0.279032
H47   H     H_    0.180827 0.392513 0.874277 0.265589
H48   H     H_    0.243588 0.444610 0.894082 0.280558
O18   O     O_3   0.477677 0.876999 0.249914 -0.582757
C74   C     C_3   0.427079 0.851139 0.241234 0.107419
H49   H     H_    0.408599 0.939142 0.228440 0.160873
H50   H     H_    0.413130 0.801914 0.335992 0.125481
C75   C     C_3   0.414750 0.768194 0.115278 -0.339896
H51   H     H_    0.423032 0.820617 0.018258 0.210547
H52   H     H_    0.437004 0.686406 0.118940 0.241772
C76   C     C_3   0.361481 0.723127 0.112416 -0.839765
H53   H     H_    0.352647 0.666411 0.206241 0.252391
H54   H     H_    0.353678 0.664870 0.018650 0.269488
H55   H     H_    0.338294 0.803265 0.108594 0.270506
Cl5   Cl    Cl    0.430422 0.312026 0.150439 -0.554527
O19   O     O_3   0.626339 0.844373 0.136288 -0.620652
C77   C     C_3   0.646412 0.813218 0.267065 0.077211
H56   H     H_    0.685743 0.839572 0.264849 0.199432
H57   H     H_    0.643603 0.712846 0.290857 0.132273
C78   C     C_3   0.624113 0.888474 0.381644 -0.393907
H58   H     H_    0.634608 0.988301 0.365892 0.226117
H59   H     H_    0.584241 0.875419 0.374912 0.218004
C79   C     C_3   0.640813 0.850610 0.526567 -0.837747
H60   H     H_    0.627215 0.754291 0.549427 0.228962
H61   H     H_    0.626099 0.912716 0.605303 0.266291
H62   H     H_    0.680868 0.857682 0.534683 0.287467
O20   O     O_3   0.754237 0.525067 0.282731 -0.595938
C80   C     C_3   0.747464 0.422194 0.192083 0.095547
H63   H     H_    0.771009 0.441904 0.101255 0.235792
H64   H     H_    0.710196 0.412675 0.149346 0.151155
C81   C     C_3   0.762532 0.301050 0.259569 -0.421212
H65   H     H_    0.799379 0.316176 0.305638 0.241394
H66   H     H_    0.737142 0.272593 0.343781 0.241419
C82   C     C_3   0.762578 0.196305 0.153203 -0.803509
H67   H     H_    0.726226 0.179797 0.104532 0.268395
H68   H     H_    0.772457 0.109726 0.205816 0.260642
H69   H     H_    0.789327 0.219632 0.070845 0.288954
Cl6   Cl    Cl    0.866437 0.200043 0.733602 -0.579495
Cl7   Cl    Cl    0.018582 0.164254 0.518850 -0.638863

loop_
_geom_bond_atom_site_label_1
_geom_bond_atom_site_label_2
_ccdc_geom_bond_type
C10   C27   A    
C21   C26   A    
O16   C68   S    
C70   H39   S    
C71   H43   S    
C41   C42   A    
C7    C55   A    
Cu1   N4    S    
C66   H31   S    
C62   H22   S    
O15   C65   S    
Cu2   O11   S    
C80   H63   S    
O20   C80   S    
C40   C46   A    
C12   O7    A    
C33   O15   S    
C78   H58   S    
C28   C29   A    
Cu1   O6    S    
C56   Cl1   S    
C38   C39   A    
C71   C72   S    
C9    C22   A    
C65   H28   S    
C61   H18   S    
C11   C13   A    
C56   C57   A    
Cu1   O1    S    
C18   C19   A    
C57   H13   S    
C3    N1    S    
C25   Cl3   S    
C64   H25   S    
C67   H34   S    
O14   C62   S    
C61   H19   S    
C66   H30   S    
C55   N1    A    
Cu2   O5    S    
C81   C82   S    
C16   C17   A    
C65   H29   S    
C74   C75   S    
C15   Cl6   S    
C70   H41   S    
C63   H23   S    
C75   H52   S    
C45   O12   S    
C36   Cl4   S    
C47   H6    S    
C38   H4    S    
C8    C12   S    
C82   H69   S    
C8    C58   A    
C79   H61   S    
Cu1   Cu2   S    
C78   H59   S    
C23   C46   S    
C21   C22   A    
C27   C30   A    
C1    O1    A    
C63   H24   S    
C72   C73   S    
C36   C41   A    
C14   H12   S    
C68   H36   S    
C4    C7    A    
C43   O16   S    
C62   H21   S    
C37   H3    S    
C44   C46   A    
C73   H46   S    
C77   H57   S    
C79   H62   S    
C7    C31   A    
C73   H47   S    
C51   C52   A    
C2    O17   S    
C31   Cl2   S    
C79   H60   S    
C24   C25   A    
Cu1   O10   S    
C10   C14   A    
C39   C40   A    
Cu2   O9    S    
C48   O19   S    
C60   C61   S    
C50   C51   A    
C1    O5    A    
C53   C54   A    
C5    C45   A    
C23   O9    A    
C20   N2    A    
C45   N1    A    
C66   C67   S    
C76   H53   S    
C69   H38   S    
C43   C44   A    
C51   N4    A    
C37   C38   A    
C8    C57   A    
C59   H15   S    
C77   C78   S    
C3    C56   A    
C47   C48   A    
C16   C20   A    
C65   C66   S    
C17   C18   A    
C32   O14   S    
C34   O11   A    
C26   N2    S    
C75   C76   S    
C60   H17   S    
C58   O13   S    
C64   H27   S    
C67   H32   S    
C80   H64   S    
C24   H1    S    
C40   C41   A    
C6    C30   A    
C11   C32   A    
C78   C79   S    
C9    C34   S    
C63   C64   S    
C74   H50   S    
C69   C70   S    
C42   C43   A    
C68   H35   S    
C22   H11   S    
C59   H14   S    
C61   H20   S    
C73   H48   S    
C77   H56   S    
C80   C81   S    
C6    H10   S    
C29   C35   A    
C4    C28   A    
C81   H65   S    
C53   Cl5   S    
C49   H7    S    
C20   O2    S    
C72   H44   S    
C30   Cl7   S    
C76   H55   S    
C12   O6    A    
C4    C5    A    
C52   N3    A    
C10   C13   A    
C71   H42   S    
C2    C58   A    
C9    C24   A    
C47   C52   A    
C21   O20   S    
C39   H5    S    
C44   O18   S    
C74   H49   S    
C13   C17   A    
C32   C33   A    
C54   N4    A    
C76   H54   S    
C2    C3    A    
C25   C26   A    
C68   C69   S    
O19   C77   S    
O18   C74   S    
C59   C60   S    
C55   O3    S    
Cu2   O7    S    
O13   C59   S    
C5    C6    A    
C54   H9    S    
C48   C49   A    
C19   N2    A    
Cu2   N3    S    
C69   H37   S    
C35   H2    S    
C31   C35   A    
C34   O10   A    
C60   H16   S    
C18   C33   A    
C64   H26   S    
C67   H33   S    
O17   C71   S    
C82   H67   S    
C53   N3    A    
C1    C42   S    
C11   C29   A    
C36   C37   A    
C49   C50   A    
C23   O8    A    
C27   C28   A    
C70   H40   S    
C14   C15   A    
C75   H51   S    
C19   O4    S    
C50   H8    S    
Cu1   O8    S    
C62   C63   S    
C72   H45   S    
C15   C16   A    
C81   H66   S    
C82   H68   S    
