data_mof_unit_35914.cif
_audit_creation_date              2012-12-10T17:46:13-0500
_audit_creation_method            fapswitch 2.2
_symmetry_space_group_name_H-M    P1
_symmetry_Int_Tables_number       1
_space_group_crystal_system       triclinic
_cell_length_a                    14.136727
_cell_length_b                    10.691066
_cell_length_c                    9.966332
_cell_angle_alpha                 89.99884
_cell_angle_beta                  89.166468
_cell_angle_gamma                 93.126176
_cell_volume                      1503.87713644

loop_
_atom_site_label
_atom_site_type_symbol
_atom_type_description
_atom_site_fract_x
_atom_site_fract_y
_atom_site_fract_z
_atom_type_partial_charge
C1    C     C_R   0.511979 0.260993 0.500025 0.907744
C2    C     C_R   0.520058 0.064369 0.374704 0.548153
C3    C     C_R   0.485298 0.938850 0.371660 -0.095368
C4    C     C_R   0.329310 0.499514 0.500930 0.857826
C5    C     C_R   0.473144 0.872973 0.495493 -0.251616
C6    C     C_R   0.351353 0.333852 0.130688 -0.265602
C7    C     C_R   0.285167 0.270493 0.044719 0.569191
C8    C     C_R   0.299066 0.269684 0.907772 -0.269760
C9    C     C_R   0.373437 0.340040 0.851179 -0.236108
C10   C     C_R   0.435347 0.420324 0.925441 0.165487
C11   C     C_R   0.430900 0.420053 0.071260 0.069877
C12   C     C_1   0.772235 0.502394 0.497686 -0.222545
C13   C     C_R   0.562546 0.575516 0.070461 -0.109638
C14   C     C_R   0.562005 0.576176 0.927904 -0.134488
C15   C     C_R   0.489376 0.739244 0.499134 0.863718
C16   C     C_R   0.670751 0.503147 0.499130 0.874353
C17   C     C_1   0.227839 0.498890 0.502211 -0.202212
C18   C     C_1   0.142468 0.498778 0.501833 0.008425
C19   C     C_1   0.042712 0.499327 0.500704 0.021914
C20   C     C_1   0.957366 0.500043 0.499489 0.016424
C21   C     C_1   0.857597 0.501222 0.498132 -0.007739
C22   C     C_3   0.630022 0.100294 0.208562 -0.301625
C23   C     C_R   0.563338 0.102336 0.741874 0.512276
C24   C     C_3   0.683421 0.259741 0.725408 -0.212032
C25   C     C_3   0.297977 0.763498 0.686857 -0.225882
C26   C     C_2   0.450422 0.887007 0.241236 0.412909
C27   C     C_2   0.327429 0.296697 0.270647 0.557984
C28   C     C_3   0.195473 0.094888 0.115696 -0.124204
C29   C     C_R   0.520900 0.059843 0.857403 -0.253655
C30   C     C_R   0.469518 0.944928 0.857890 -0.094446
C31   C     C_R   0.427861 0.899616 0.737538 0.506423
C32   C     C_R   0.475620 0.939525 0.618214 -0.046316
C33   C     C_R   0.525015 0.057379 0.619583 -0.086777
C34   C     C_R   0.529593 0.127042 0.498655 -0.246217
H1    H     H_    0.248059 0.218526 0.844027 0.186609
H2    H     H_    0.681723 0.281049 0.617184 0.155365
H3    H     H_    0.757569 0.280283 0.757063 0.175865
H4    H     H_    0.638868 0.320360 0.788575 0.186185
H5    H     H_    0.308514 0.755390 0.577150 0.145985
H6    H     H_    0.220191 0.751027 0.707710 0.180361
H7    H     H_    0.331380 0.688691 0.744802 0.186521
H8    H     H_    0.457952 0.793331 0.207807 0.103568
H9    H     H_    0.394496 0.295502 0.249902 0.174552
H10   H     H_    0.154671 0.072581 0.208489 0.202395
H11   H     H_    0.262657 0.051890 0.120728 0.221510
H12   H     H_    0.375752 0.331761 0.746004 0.243815
H13   H     H_    0.155232 0.046612 0.034036 0.142731
H14   H     H_    0.612887 0.639011 0.873631 0.145496
H15   H     H_    0.550015 0.095455 0.955797 0.196066
H16   H     H_    0.515552 0.873135 0.899979 0.102884
H17   H     H_    0.613528 0.637275 0.123005 0.133194
H18   H     H_    0.629870 0.003046 0.167625 0.153507
H19   H     H_    0.683978 0.114350 0.288177 0.152294
H20   H     H_    0.652392 0.166259 0.125791 0.192419
N1    N     N_R   0.499190 0.498800 0.142780 -0.102752
N2    N     N_R   0.499160 0.498720 0.857170 -0.118928
O1    O     O_R   0.500000 0.316780 0.614690 -0.656335
O2    O     O_3   0.661068 0.131021 0.748307 -0.627817
O3    O     O_3   0.329320 0.884339 0.733708 -0.595560
O4    O     O_2   0.410551 0.954274 0.162227 -0.563642
O5    O     O_2   0.293714 0.195824 0.322047 -0.581289
O6    O     O_3   0.197255 0.224306 0.094856 -0.614513
O7    O     O_R   0.499990 0.316750 0.385360 -0.586293
O8    O     O_R   0.373720 0.500010 0.614690 -0.631097
O9    O     O_R   0.373710 0.499990 0.385360 -0.629048
O10   O     O_R   0.500010 0.683250 0.614640 -0.612656
O11   O     O_R   0.500000 0.683220 0.385310 -0.641054
O12   O     O_R   0.626290 0.500010 0.614640 -0.617198
O13   O     O_R   0.626280 0.499990 0.385310 -0.584693
O14   O     O_3   0.539093 0.129162 0.255011 -0.567232
Zn1   Zn    Zn3+2 0.500010 0.500020 0.653130 0.900503
Zn2   Zn    Zn3+2 0.499990 0.499980 0.346870 0.941810

loop_
_geom_bond_atom_site_label_1
_geom_bond_atom_site_label_2
_ccdc_geom_bond_type
O13   Zn2   S    
C24   H4    S    
C7    O6    S    
C6    C7    A    
C16   O12   A    
C1    O1    A    
C23   O2    S    
O9    Zn2   S    
C10   N2    A    
C9    C10   A    
C4    O8    A    
N1    Zn2   S    
C14   N2    A    
O10   Zn1   S    
C30   C31   A    
C3    C5    A    
C5    C32   A    
C15   O11   A    
C32   C33   A    
C2    C34   A    
C19   C20   T    
C17   C18   T    
C30   H16   S    
C9    H12   S    
C22   H20   S    
C24   H2    S    
C13   C14   A    
O1    Zn1   S    
C1    O7    A    
C29   C30   A    
C2    O14   S    
O12   Zn1   S    
C4    C17   S    
C23   C29   A    
C28   H13   S    
C24   O2    S    
C22   O14   S    
C33   C34   A    
C1    C34   S    
C24   H3    S    
C22   H19   S    
C2    C3    A    
C25   H6    S    
C4    O9    A    
C31   C32   A    
C28   H11   S    
C5    C15   S    
C10   C11   A    
C31   O3    S    
C12   C16   S    
C7    C8    A    
C11   N1    A    
O7    Zn2   S    
C26   H8    S    
C22   H18   S    
O11   Zn2   S    
O8    Zn1   S    
C25   H7    S    
C6    C11   A    
C27   H9    S    
C14   H14   S    
C18   C19   S    
C29   H15   S    
C25   O3    S    
C13   N1    A    
C20   C21   S    
C13   H17   S    
C15   O10   A    
C26   O4    D    
C12   C21   T    
C28   H10   S    
C3    C26   S    
C25   H5    S    
C16   O13   A    
C6    C27   S    
N2    Zn1   S    
C28   O6    S    
C8    C9    A    
C23   C33   A    
C8    H1    S    
C27   O5    D    
