data_mof_unit_29114.cif
_audit_creation_date              2012-12-10T16:59:21-0500
_audit_creation_method            fapswitch 2.2
_symmetry_space_group_name_H-M    P1
_symmetry_Int_Tables_number       1
_space_group_crystal_system       triclinic
_cell_length_a                    7.762455
_cell_length_b                    8.561653
_cell_length_c                    27.724397
_cell_angle_alpha                 90.994786
_cell_angle_beta                  86.19868
_cell_angle_gamma                 93.796882
_cell_volume                      1834.30329694

loop_
_atom_site_label
_atom_site_type_symbol
_atom_type_description
_atom_site_fract_x
_atom_site_fract_y
_atom_site_fract_z
_atom_type_partial_charge
Br1   Br    Br    0.898196 0.551849 0.744027 -0.506247
Br2   Br    Br    0.101747 0.448402 0.255979 -0.506455
C1    C     C_R   0.545882 0.794751 0.498734 0.971827
C2    C     C_R   0.513629 0.643129 0.127999 -0.024384
C3    C     C_R   0.510302 0.498968 0.646244 -0.100881
C4    C     C_R   0.489683 0.500981 0.353755 -0.100922
C5    C     C_R   0.532449 0.643395 0.025764 0.048588
C6    C     C_R   0.467359 0.356438 0.974237 0.048585
C7    C     C_R   0.457970 0.357676 0.025494 0.048501
C8    C     C_R   0.541855 0.642155 0.974508 0.048503
C9    C     C_R   0.490969 0.501084 0.050897 0.076088
C10   C     C_R   0.508861 0.498746 0.949104 0.076092
C11   C     C_R   0.562890 0.782686 0.053074 -0.222080
C12   C     C_R   0.454117 0.205249 0.501266 0.971815
C13   C     C_R   0.436881 0.217153 0.946926 -0.222096
C14   C     C_R   0.553110 0.782196 0.103116 -0.129983
C15   C     C_R   0.446712 0.217637 0.896884 -0.129999
C16   C     C_R   0.502943 0.499910 0.593830 0.895418
C17   C     C_R   0.497055 0.500084 0.406170 0.895438
C18   C     C_R   0.583517 0.779930 0.947460 -0.221255
C19   C     C_R   0.416332 0.219897 0.052544 -0.221234
C20   C     C_2   0.569990 0.958351 0.498006 -0.362882
C21   C     C_2   0.430010 0.041649 0.501994 -0.362883
C22   C     C_R   0.556877 0.634978 0.821834 0.578410
C23   C     C_R   0.516995 0.497709 0.897855 -0.048248
C24   C     C_R   0.443014 0.364847 0.178169 0.578367
C25   C     C_R   0.494296 0.358372 0.821488 0.541817
C26   C     C_R   0.505631 0.641449 0.178511 0.541921
C27   C     C_R   0.365589 0.472210 0.725699 -0.104071
C28   C     C_R   0.634397 0.527422 0.274290 -0.104152
C29   C     C_R   0.357826 0.474398 0.675876 -0.172592
C30   C     C_R   0.642177 0.525282 0.324114 -0.172531
C31   C     C_R   0.670327 0.521540 0.667014 -0.237224
C32   C     C_R   0.329626 0.478606 0.332991 -0.237197
C33   C     C_R   0.677845 0.520979 0.716985 0.340139
C34   C     C_R   0.482864 0.502119 0.102146 -0.048244
C35   C     C_R   0.322102 0.479088 0.283019 0.340126
C36   C     C_R   0.524607 0.496511 0.746357 0.231054
C37   C     C_R   0.475349 0.503317 0.253642 0.231120
C38   C     C_R   0.554825 0.637838 0.872301 -0.030159
C39   C     C_R   0.445044 0.361988 0.127702 -0.030158
C40   C     C_R   0.588758 0.777551 0.897439 -0.128827
C41   C     C_R   0.411101 0.222275 0.102565 -0.128837
C42   C     C_R   0.486247 0.356698 0.872001 -0.024373
H1    H     H_    0.789269 0.540704 0.644577 0.181802
H2    H     H_    0.421402 0.107993 0.877734 0.195015
H3    H     H_    0.595192 0.895347 0.037225 0.139928
H4    H     H_    0.404499 0.104502 0.962773 0.139955
H5    H     H_    0.613322 0.892813 0.963504 0.140231
H6    H     H_    0.386551 0.107007 0.036500 0.140209
H7    H     H_    0.013712 0.383229 0.463416 0.194328
H8    H     H_    0.986288 0.616771 0.536583 0.194330
H9    H     H_    0.702097 0.009678 0.494199 0.182372
H10   H     H_    0.297903 0.990322 0.505801 0.182372
H11   H     H_    0.210664 0.459651 0.355432 0.181811
H12   H     H_    0.620625 0.886322 0.878491 0.193990
H13   H     H_    0.379240 0.113501 0.121514 0.193976
H14   H     H_    0.766879 0.544165 0.339378 0.190788
H15   H     H_    0.233160 0.455336 0.660604 0.190726
H16   H     H_    0.751678 0.548011 0.251407 0.200157
H17   H     H_    0.248309 0.451445 0.748574 0.200091
H18   H     H_    0.578405 0.891841 0.122266 0.195006
N1    N     N_R   0.528133 0.496349 0.797681 -0.348569
N2    N     N_R   0.471799 0.503472 0.202320 -0.348575
N3    N     N_2   0.950320 0.457960 0.486880 -0.173841
N4    N     N_2   0.049680 0.542040 0.513120 -0.173837
O1    O     O_R   0.389250 0.738570 0.503220 -0.610726
O2    O     O_2   0.414088 0.230345 0.203000 -0.498988
O3    O     O_2   0.531976 0.776237 0.203759 -0.513529
O4    O     O_2   0.467987 0.223578 0.796239 -0.513560
O5    O     O_R   0.610750 0.261430 0.496780 -0.610727
O6    O     O_R   0.678390 0.711630 0.494810 -0.629661
O7    O     O_R   0.321610 0.288370 0.505190 -0.629667
O8    O     O_R   0.355440 0.513440 0.575450 -0.617298
O9    O     O_R   0.644560 0.486560 0.424550 -0.617318
O10   O     O_R   0.644590 0.486500 0.567040 -0.629072
O11   O     O_R   0.355410 0.513500 0.432960 -0.629078
O12   O     O_2   0.585779 0.769487 0.797006 -0.498963
Zn1   Zn    Zn3+2 0.306940 0.517990 0.505620 0.960215
Zn2   Zn    Zn3+2 0.693060 0.482010 0.494380 0.960212

loop_
_geom_bond_atom_site_label_1
_geom_bond_atom_site_label_2
_ccdc_geom_bond_type
C5    C8    A    
C4    C30   A    
C2    C34   A    
C32   C35   A    
C31   H1    S    
C12   O5    A    
C26   O3    S    
C30   H14   S    
C5    C9    A    
N4    Zn1   S    
C9    C34   A    
C23   C38   A    
O6    Zn2   S    
H7    N3    S    
C29   H15   S    
C17   O11   A    
C24   N2    A    
C19   H6    S    
C31   C33   A    
C19   C41   A    
C25   C42   A    
C8    C18   A    
C6    C7    A    
C28   H16   S    
C27   C36   A    
O9    Zn2   S    
C40   H12   S    
C38   C40   A    
C32   H11   S    
C16   O8    A    
N3    Zn2   S    
C39   C41   A    
C34   C39   A    
C14   H18   S    
C13   H4    S    
C8    C10   A    
C23   C42   A    
O5    Zn2   S    
C2    C26   A    
C20   H9    S    
O11   Zn1   S    
C27   H17   S    
C37   N2    S    
C12   O7    A    
C33   C36   A    
O1    Zn1   S    
C15   H2    S    
C11   H3    S    
C3    C16   S    
C4    C32   A    
C3    C31   A    
C12   C21   S    
C2    C14   A    
C18   H5    S    
C4    C17   S    
C6    C10   A    
O7    Zn1   S    
C7    C9    A    
C25   O4    S    
C25   N1    A    
C26   N2    A    
C22   O12   S    
C22   N1    A    
O8    Zn1   S    
H8    N4    S    
Br1   C33   S    
C21   H10   S    
C36   N1    S    
C13   C15   A    
C16   O10   A    
C1    O1    A    
O10   Zn2   S    
C18   C40   A    
C6    C13   A    
C10   C23   A    
C24   O2    S    
C17   O9    A    
C1    O6    A    
C15   C42   A    
C35   C37   A    
C28   C30   A    
Br2   C35   S    
C7    C19   A    
C22   C38   A    
C28   C37   A    
C41   H13   S    
C5    C11   A    
C27   C29   A    
N3    N4    D    
C11   C14   A    
C20   C21   D    
C1    C20   S    
C24   C39   A    
C3    C29   A    
