data_mof_unit_18529.cif
_audit_creation_date              2012-12-11T15:52:14-0500
_audit_creation_method            fapswitch 2.2
_symmetry_space_group_name_H-M    P1
_symmetry_Int_Tables_number       1
_space_group_crystal_system       triclinic
_cell_length_a                    11.105478
_cell_length_b                    11.099919
_cell_length_c                    18.782124
_cell_angle_alpha                 90.000239
_cell_angle_beta                  89.773471
_cell_angle_gamma                 119.61859
_cell_volume                      2012.72415202

loop_
_atom_site_label
_atom_site_type_symbol
_atom_type_description
_atom_site_fract_x
_atom_site_fract_y
_atom_site_fract_z
_atom_type_partial_charge
C1    C     C_R   0.519538 0.458421 0.148307 0.534335
C2    C     C_R   0.542254 0.060762 0.148018 0.543898
C3    C     C_R   0.940430 0.481798 0.148638 0.536482
C4    C     C_R   0.449312 0.520434 0.855244 0.546749
C5    C     C_R   0.123084 0.579893 0.860164 0.586936
C6    C     C_R   0.481551 0.935406 0.853674 0.547574
C7    C     C_3   0.739916 0.024477 0.539609 -0.278112
C8    C     C_3   0.975211 0.715870 0.539822 -0.277893
C9    C     C_3   0.286519 0.260476 0.540479 -0.277847
C10   C     C_3   0.960090 0.710496 0.459890 -0.269530
C11   C     C_3   0.749893 0.039141 0.459621 -0.269831
C12   C     C_3   0.291201 0.250522 0.460502 -0.269659
C13   C     C_R   0.517657 0.457503 0.352846 0.544399
C14   C     C_R   0.542332 0.059985 0.352871 0.545292
C15   C     C_R   0.939631 0.481843 0.352938 0.544544
C16   C     C_R   0.453035 0.522738 0.644109 0.544892
C17   C     C_R   0.069668 0.547081 0.644097 0.550428
C18   C     C_R   0.477403 0.930604 0.644111 0.545888
C19   C     C_R   0.512489 0.986168 0.927160 0.007181
C20   C     C_R   0.087322 0.564559 0.936136 0.026154
C21   C     C_R   0.463995 0.495274 0.930333 0.012469
C22   C     C_R   0.018240 0.513102 0.082461 0.006169
C23   C     C_R   0.506474 0.005600 0.076088 0.007550
C24   C     C_R   0.496534 0.502079 0.079391 0.000621
C25   C     C_R   0.452727 0.056133 0.957399 -0.028046
C26   C     C_R   0.025249 0.434577 0.964509 -0.010504
C27   C     C_R   0.591044 0.573469 0.961213 -0.038038
C28   C     C_R   0.990569 0.407652 0.034804 -0.019200
C29   C     C_R   0.450046 0.065693 0.031315 -0.040241
C30   C     C_R   0.608872 0.575429 0.033452 0.004134
C31   C     C_R   0.573715 0.939107 0.044682 0.158477
C32   C     C_R   0.098376 0.651189 0.058376 0.124128
C33   C     C_R   0.361823 0.436663 0.050851 0.111877
C34   C     C_R   0.120508 0.676999 0.983532 0.126910
C35   C     C_R   0.596237 0.951271 0.970283 0.170980
C36   C     C_R   0.345786 0.417383 0.975880 0.143864
C37   C     C_3   0.508285 0.207926 0.950771 -0.297118
C38   C     C_3   0.904113 0.308289 0.939036 -0.271322
C39   C     C_3   0.721356 0.572992 0.945059 -0.293957
C40   C     C_3   0.862655 0.276398 0.016973 -0.250410
C41   C     C_3   0.486025 0.212366 0.029416 -0.239612
C42   C     C_3   0.744944 0.579228 0.024626 -0.236728
C43   C     C_R   0.485482 0.960019 0.568661 0.018070
C44   C     C_R   0.039840 0.525342 0.568728 0.017065
C45   C     C_R   0.474521 0.514709 0.568620 0.017606
C46   C     C_R   0.012005 0.511478 0.420405 0.016563
C47   C     C_R   0.499724 0.986904 0.420329 0.016479
C48   C     C_R   0.487069 0.500287 0.420299 0.016404
C49   C     C_R   0.586818 0.949339 0.529954 0.043782
C50   C     C_R   0.050304 0.636877 0.529898 0.043275
C51   C     C_R   0.363389 0.413680 0.530348 0.044631
C52   C     C_R   0.037489 0.631306 0.457489 0.030008
C53   C     C_R   0.594203 0.961626 0.457510 0.029500
C54   C     C_R   0.368220 0.406260 0.457918 0.029611
C55   C     C_R   0.381472 0.970323 0.456674 -0.165746
C56   C     C_R   0.028285 0.409669 0.456774 -0.165215
C57   C     C_R   0.587946 0.618270 0.456178 -0.164979
C58   C     C_R   0.040785 0.415882 0.531200 -0.160247
C59   C     C_R   0.375061 0.958361 0.531136 -0.160364
C60   C     C_R   0.582422 0.624770 0.530634 -0.160488
Cr1   Cr    Cr6+3 0.769160 0.541570 0.250690 0.980793
Cr2   Cr    Cr6+3 0.458430 0.227590 0.250690 0.979863
Cr3   Cr    Cr6+3 0.772410 0.230840 0.250690 0.982328
Cr4   Cr    Cr6+3 0.541570 0.769160 0.749310 0.991751
Cr5   Cr    Cr6+3 0.227590 0.458430 0.749310 1.010006
Cr6   Cr    Cr6+3 0.230840 0.772410 0.749310 1.000712
H1    H     H_    0.446509 0.236282 0.916725 0.142203
H2    H     H_    0.941294 0.243014 0.913357 0.161080
H3    H     H_    0.791060 0.666459 0.915392 0.118620
H4    H     H_    0.767904 0.279033 0.031280 0.134481
H5    H     H_    0.578701 0.279934 0.060778 0.135654
H6    H     H_    0.747484 0.487953 0.045943 0.139200
H7    H     H_    0.618311 0.259467 0.935306 0.120497
H8    H     H_    0.835563 0.331565 0.906060 0.127599
H9    H     H_    0.706021 0.477620 0.918934 0.131846
H10   H     H_    0.867465 0.185507 0.036632 0.165297
H11   H     H_    0.393907 0.220256 0.043032 0.161369
H12   H     H_    0.832973 0.679194 0.041469 0.135552
H13   H     H_    0.300787 0.978506 0.428737 0.119601
H14   H     H_    0.019913 0.320574 0.428897 0.119311
H15   H     H_    0.676164 0.698656 0.427867 0.120045
H16   H     H_    0.046093 0.333584 0.559232 0.128475
H17   H     H_    0.287338 0.953005 0.559171 0.128812
H18   H     H_    0.664109 0.712225 0.558292 0.129410
H19   H     H_    0.779332 0.956965 0.560484 0.134705
H20   H     H_    0.042789 0.822266 0.560320 0.134228
H21   H     H_    0.180169 0.221518 0.561716 0.134840
H22   H     H_    0.850631 0.647110 0.443367 0.167741
H23   H     H_    0.794844 0.148598 0.442615 0.168450
H24   H     H_    0.355827 0.205215 0.443372 0.168548
H25   H     H_    0.778084 0.124824 0.567879 0.136436
H26   H     H_    0.875072 0.655183 0.568596 0.136477
H27   H     H_    0.348720 0.221813 0.568656 0.135760
H28   H     H_    0.018495 0.813926 0.434024 0.124564
H29   H     H_    0.795753 0.980634 0.434080 0.124082
H30   H     H_    0.187416 0.205102 0.435321 0.124607
O1    O     O_R   0.911480 0.572650 0.170990 -0.520244
O2    O     O_R   0.427350 0.338830 0.170990 -0.523056
O3    O     O_R   0.661170 0.088520 0.170990 -0.525019
O4    O     O_R   0.572650 0.911480 0.829010 -0.535979
O5    O     O_R   0.338830 0.427350 0.829010 -0.503702
O6    O     O_R   0.088520 0.661170 0.829010 -0.523981
O7    O     O_R   0.640340 0.528970 0.175680 -0.509220
O8    O     O_R   0.471030 0.111370 0.175680 -0.507754
O9    O     O_R   0.888630 0.359660 0.175680 -0.505972
O10   O     O_R   0.528970 0.640340 0.824320 -0.520669
O11   O     O_R   0.111370 0.471030 0.824320 -0.492341
O12   O     O_R   0.359660 0.888630 0.824320 -0.491498
O13   O     O_R   0.909980 0.572450 0.331530 -0.528161
O14   O     O_R   0.427550 0.337530 0.331530 -0.527671
O15   O     O_R   0.662470 0.090020 0.331530 -0.529337
O16   O     O_R   0.572450 0.909980 0.668470 -0.519458
O17   O     O_R   0.337530 0.427550 0.668470 -0.522810
O18   O     O_R   0.090020 0.662470 0.668470 -0.520506
O19   O     O_R   0.638950 0.528780 0.324500 -0.510749
O20   O     O_R   0.471220 0.110170 0.324500 -0.509849
O21   O     O_R   0.889830 0.361050 0.324500 -0.511155
O22   O     O_R   0.528780 0.638950 0.675500 -0.506671
O23   O     O_R   0.110170 0.471220 0.675500 -0.506496
O24   O     O_R   0.361050 0.889830 0.675500 -0.511572
O25   O     O_3   0.666667 0.333333 0.250560 -0.247803
O26   O     O_3   0.333333 0.666667 0.749440 -0.276131
N1    N     N_2   0.600634 0.846291 0.085544 -0.502273
H31   H     H_    0.521128 0.783811 0.119786 0.238525
C61   C     C_3   0.736368 0.896605 0.116915 -0.270351
H32   H     H_    0.733076 0.914272 0.174866 0.155469
H33   H     H_    0.816121 0.992426 0.090970 0.145382
H34   H     H_    0.767737 0.816694 0.111594 0.130264
N2    N     N_2   0.166942 0.760402 0.109170 -0.518723
H35   H     H_    0.199654 0.733269 0.154701 0.248058
C62   C     C_3   0.114201 0.854830 0.121935 -0.288609
H36   H     H_    0.200497 0.963025 0.117720 0.144938
H37   H     H_    0.069960 0.839511 0.176475 0.151768
H38   H     H_    0.033602 0.840682 0.083346 0.129581
N3    N     N_2   0.244863 0.394153 0.097292 -0.511782
H39   H     H_    0.261456 0.459285 0.139836 0.247564
C63   C     C_3   0.159681 0.248171 0.114962 -0.281534
H40   H     H_    0.171284 0.230153 0.172038 0.156341
H41   H     H_    0.185461 0.181264 0.082075 0.130628
H42   H     H_    0.049464 0.216260 0.106763 0.128664
N4    N     N_2   0.177239 0.814294 0.957453 -0.486405
H43   H     H_    0.226159 0.883526 0.996860 0.281897
C64   C     C_3   0.083524 0.852106 0.924297 -0.293411
H44   H     H_    0.037489 0.890393 0.964681 0.083689
H45   H     H_    0.999418 0.765460 0.896471 0.179348
H46   H     H_    0.141469 0.933903 0.884117 0.154559
N5    N     N_2   0.731960 0.991972 0.944433 -0.526303
H47   H     H_    0.758549 0.053726 0.899930 0.261418
C65   C     C_3   0.771796 0.888790 0.935438 -0.296940
H48   H     H_    0.774417 0.843345 0.986839 0.179254
H49   H     H_    0.876743 0.936702 0.911962 0.091164
H50   H     H_    0.701802 0.810890 0.897453 0.210185
N6    N     N_2   0.212364 0.322181 0.947836 -0.470465
H51   H     H_    0.134838 0.296960 0.983959 0.278741
C66   C     C_3   0.192584 0.192331 0.919857 -0.311733
H52   H     H_    0.212037 0.134002 0.961780 0.119124
H53   H     H_    0.257056 0.205552 0.872540 0.176950
H54   H     H_    0.084173 0.129408 0.901859 0.118038

loop_
_geom_bond_atom_site_label_1
_geom_bond_atom_site_label_2
_ccdc_geom_bond_type
C64   H46   S    
C49   C53   A    
C34   N4    S    
C55   C59   A    
C66   H53   S    
N1    H31   S    
Cr6   O6    S    
N5    H47   S    
C9    C51   S    
Cr5   O5    S    
C62   H38   S    
C10   C52   S    
C16   O17   A    
N3    H39   S    
C45   C60   A    
C5    C20   S    
C3    O9    A    
C48   C54   A    
C6    C19   S    
C63   H41   S    
C10   H22   S    
C22   C32   A    
C45   C51   A    
C23   C29   A    
C12   H24   S    
N5    C65   S    
C18   O16   A    
C58   H16   S    
C41   H11   S    
Cr3   O21   S    
C14   O20   A    
Cr4   O16   S    
C10   H28   S    
C11   H29   S    
C64   H44   S    
C46   C52   A    
C33   C36   A    
Cr4   O22   S    
Cr1   O25   S    
C3    O1    A    
Cr3   O3    S    
C25   C37   S    
Cr2   O2    S    
C18   O24   A    
N4    H43   S    
C44   C58   A    
Cr1   O19   S    
C61   H34   S    
C50   C52   A    
Cr6   O26   S    
C8    H26   S    
C39   H9    S    
Cr3   O9    S    
C1    O7    A    
C11   C53   S    
C43   C59   A    
C47   C53   A    
C20   C34   A    
C21   C27   A    
Cr1   O13   S    
C22   C28   A    
C66   H54   S    
C37   C41   S    
C65   H49   S    
C32   N2    S    
Cr3   O25   S    
C36   N6    S    
C39   C42   S    
Cr2   O8    S    
C56   C58   A    
C25   C29   A    
C14   O15   A    
Cr1   O7    S    
C63   H42   S    
Cr1   O1    S    
C48   C57   A    
C7    C49   S    
C65   H50   S    
C27   C39   S    
C21   C36   A    
C43   C49   A    
C57   C60   A    
C4    O10   A    
C40   H10   S    
C32   C34   A    
C1    O2    A    
C7    C11   S    
Cr2   O20   S    
C13   O14   A    
C59   H17   S    
C16   O22   A    
C55   H13   S    
C33   N3    S    
Cr2   O14   S    
C2    O8    A    
C7    H25   S    
C4    O5    A    
C42   H6    S    
C39   H3    S    
C35   N5    S    
Cr5   O26   S    
N6    C66   S    
C13   O19   A    
C40   H4    S    
C12   H30   S    
C38   H2    S    
C2    O3    A    
C42   H12   S    
C15   O13   A    
C61   H32   S    
N3    C63   S    
C31   C35   A    
C11   H23   S    
C62   H36   S    
C9    H27   S    
C2    C23   S    
C47   C55   A    
N2    H35   S    
C5    O11   A    
C44   C50   A    
C64   H45   S    
C37   H7    S    
C5    O6    A    
C6    O12   A    
Cr6   O18   S    
C29   C41   S    
Cr5   O17   S    
C26   C38   S    
Cr6   O12   S    
C62   H37   S    
C16   C45   S    
C13   C48   S    
Cr4   O10   S    
C14   C47   S    
C6    O4    A    
C63   H40   S    
C26   C28   A    
C24   C33   A    
C56   H14   S    
C41   H5    S    
C51   C54   A    
N4    C64   S    
C17   C44   S    
C31   N1    S    
C19   C35   A    
C65   H48   S    
C9    H21   S    
C38   C40   S    
C4    C21   S    
C60   H18   S    
C7    H19   S    
C20   C26   A    
Cr4   O26   S    
C37   H1    S    
C17   O18   A    
C38   H8    S    
C8    C50   S    
C8    H20   S    
Cr3   O15   S    
C19   C25   A    
C57   H15   S    
C24   C30   A    
Cr5   O23   S    
N1    C61   S    
C9    C12   S    
C17   O23   A    
C15   O21   A    
Cr4   O4    S    
C1    C24   S    
C8    C10   S    
C46   C56   A    
C66   H52   S    
C61   H33   S    
C28   C40   S    
C30   C42   S    
C3    C22   S    
Cr6   O24   S    
C15   C46   S    
N2    C62   S    
N6    H51   S    
C18   C43   S    
Cr5   O11   S    
Cr2   O25   S    
C12   C54   S    
C23   C31   A    
C27   C30   A    
