data_mof_unit_41212.cif
_audit_creation_date              2012-12-11T15:36:43-0500
_audit_creation_method            fapswitch 2.2
_symmetry_space_group_name_H-M    P1
_symmetry_Int_Tables_number       1
_space_group_crystal_system       triclinic
_cell_length_a                    15.0415
_cell_length_b                    15.05998
_cell_length_c                    34.84775
_cell_angle_alpha                 91.156184
_cell_angle_beta                  91.742561
_cell_angle_gamma                 60.093017
_cell_volume                      6839.41652927

loop_
_atom_site_label
_atom_site_type_symbol
_atom_type_description
_atom_site_fract_x
_atom_site_fract_y
_atom_site_fract_z
_atom_type_partial_charge
C1    C     C_R   0.611001 0.301810 0.444241 0.577976
C2    C     C_R   0.751030 0.689944 0.185150 -0.043846
C3    C     C_R   0.626052 0.130286 0.827702 0.061255
C4    C     C_R   0.686025 0.161547 0.849279 -0.043642
C5    C     C_R   0.710608 0.133554 0.887629 -0.112266
C6    C     C_R   0.590756 0.239294 0.769753 0.419478
C7    C     C_R   0.595904 0.248078 0.730259 0.426913
C8    C     C_R   0.626603 0.162261 0.706174 0.004885
C9    C     C_R   0.648267 0.068004 0.721779 0.207216
C10   C     C_R   0.643125 0.059500 0.761416 -0.151373
C11   C     C_R   0.616363 0.144353 0.785717 -0.069025
C12   C     C_R   0.555030 0.185813 0.640019 -0.051933
C13   C     C_R   0.831245 0.619795 0.162513 -0.077296
C14   C     C_R   0.549453 0.218662 0.602462 0.382878
C15   C     C_R   0.708586 0.220623 0.613487 -0.133319
C16   C     C_R   0.714427 0.187024 0.651039 0.289994
C17   C     C_R   0.634869 0.173946 0.664879 0.043477
C18   C     C_R   0.623792 0.241368 0.589400 -0.021857
C19   C     C_R   0.044753 0.739387 0.048898 0.545444
C20   C     C_R   0.747591 0.746638 0.064483 0.582060
C21   C     C_R   0.750998 0.040708 0.050631 0.571037
C22   C     C_R   0.016397 0.722712 0.939604 0.545517
C23   C     C_R   0.717282 0.730339 0.954811 0.544922
C24   C     C_R   0.827919 0.632311 0.122768 0.196627
C25   C     C_R   0.721526 0.024086 0.941965 0.544439
C26   C     C_R   0.778842 0.585483 0.243479 -0.096620
C27   C     C_R   0.768101 0.579381 0.282761 -0.146338
C28   C     C_R   0.734657 0.666627 0.306286 0.073582
C29   C     C_R   0.719067 0.758478 0.290375 0.502648
C30   C     C_R   0.728725 0.764699 0.250981 -0.017264
C31   C     C_R   0.755561 0.679122 0.227160 -0.022685
C32   C     C_R   0.605638 0.733382 0.358175 0.452768
C33   C     C_R   0.593393 0.610359 0.449437 0.553979
C34   C     C_R   0.571605 0.719401 0.393097 -0.068045
C35   C     C_R   0.736346 0.567201 0.404743 -0.136535
C36   C     C_R   0.770920 0.581598 0.369992 -0.166666
C37   C     C_R   0.705115 0.663170 0.345973 0.060868
C38   C     C_R   0.635374 0.634394 0.416071 -0.041065
C39   C     C_R   0.098177 0.730215 0.086137 0.018396
C40   C     C_R   0.137146 0.638793 0.107007 -0.081195
C41   C     C_R   0.156274 0.637963 0.146365 -0.084391
C42   C     C_R   0.138896 0.727787 0.165394 0.035438
C43   C     C_R   0.110269 0.816554 0.144200 -0.080706
C44   C     C_R   0.303814 0.591573 0.442353 0.538895
C45   C     C_R   0.089805 0.817885 0.104709 -0.110906
C46   C     C_R   0.211944 0.748822 0.227840 -0.059562
C47   C     C_R   0.220534 0.740046 0.267784 0.368953
C48   C     C_R   0.156999 0.713978 0.287982 0.030285
C49   C     C_R   0.081407 0.701564 0.267586 0.207695
C50   C     C_R   0.074769 0.708667 0.227619 -0.051397
C51   C     C_R   0.141254 0.730100 0.207573 -0.065026
C52   C     C_R   0.203183 0.591770 0.342029 -0.053088
C53   C     C_R   0.237288 0.562354 0.379753 -0.107729
C54   C     C_R   0.218588 0.729360 0.393005 -0.104417
C55   C     C_R   0.605950 0.299501 0.553560 0.575723
C56   C     C_R   0.183356 0.759104 0.355306 -0.033985
C57   C     C_R   0.177890 0.689595 0.329295 0.088047
C58   C     C_R   0.248479 0.629712 0.405282 0.010416
C59   C     C_R   0.726638 0.096044 0.087638 0.027124
C60   C     C_R   0.807741 0.093163 0.109879 -0.144954
C61   C     C_R   0.795492 0.118608 0.148702 -0.071932
C62   C     C_R   0.701918 0.147870 0.165792 0.057207
C63   C     C_R   0.618072 0.159896 0.143257 -0.008554
C64   C     C_R   0.629377 0.135066 0.104248 0.240553
C65   C     C_R   0.628055 0.255590 0.224121 0.206986
C66   C     C_R   0.588371 0.606895 0.558783 0.576841
C67   C     C_R   0.616341 0.264669 0.263732 -0.029403
C68   C     C_R   0.668910 0.178570 0.287359 -0.017583
C69   C     C_R   0.735059 0.082877 0.271147 -0.063574
C70   C     C_R   0.747058 0.072524 0.231460 0.214161
C71   C     C_R   0.693233 0.159187 0.207657 0.031612
C72   C     C_R   0.742193 0.160136 0.353568 -0.126598
C73   C     C_R   0.730009 0.188540 0.392327 0.231870
C74   C     C_R   0.545070 0.269925 0.382853 -0.117602
C75   C     C_R   0.557752 0.241884 0.344319 0.398958
C76   C     C_R   0.656256 0.190778 0.329109 0.002428
C77   C     C_R   0.297663 0.589243 0.551616 0.542095
C78   C     C_R   0.630263 0.248462 0.406848 -0.024488
C79   C     C_R   0.693120 0.692399 0.918915 -0.079114
C80   C     C_R   0.772550 0.609996 0.899200 -0.110366
C81   C     C_R   0.760086 0.592875 0.860454 0.188121
C82   C     C_R   0.666609 0.657247 0.841196 0.030422
C83   C     C_R   0.583745 0.732707 0.861754 0.355287
C84   C     C_R   0.597009 0.750223 0.900415 -0.095463
C85   C     C_R   0.601695 0.615671 0.780906 -0.006674
C86   C     C_R   0.597489 0.611650 0.740919 -0.029902
C87   C     C_R   0.650164 0.647250 0.719054 0.088471
C88   C     C_R   0.742381 0.717584 0.104772 0.027599
C89   C     C_R   0.705418 0.688751 0.737378 -0.024443
C90   C     C_R   0.710157 0.692157 0.777350 -0.061828
C91   C     C_R   0.659131 0.654736 0.799193 0.096282
C92   C     C_R   0.694800 0.541774 0.659321 0.185430
C93   C     C_R   0.681237 0.533844 0.619999 -0.148765
C94   C     C_R   0.581644 0.719337 0.615013 0.252526
C95   C     C_R   0.595824 0.727196 0.654601 0.402430
C96   C     C_R   0.648715 0.638616 0.677037 -0.022114
C97   C     C_R   0.620889 0.621619 0.597686 -0.078338
C98   C     C_R   0.061984 0.700184 0.901532 -0.041189
C99   C     C_R   0.657542 0.783026 0.127981 0.212106
C100  C     C_R   0.089913 0.766875 0.885131 -0.073067
C101  C     C_R   0.114261 0.757555 0.846479 0.399469
C102  C     C_R   0.110141 0.681611 0.823679 0.023803
C103  C     C_R   0.088238 0.611178 0.840651 -0.162282
C104  C     C_R   0.064704 0.620118 0.879335 -0.125538
C105  C     C_R   0.185531 0.584490 0.763576 -0.088036
C106  C     C_R   0.195262 0.580559 0.723956 -0.086853
C107  C     C_R   0.143015 0.670369 0.702134 0.018881
C108  C     C_R   0.080544 0.764262 0.720393 -0.088342
C109  C     C_R   0.070076 0.768074 0.760083 -0.037717
C110  C     C_R   0.663597 0.769304 0.167582 -0.068849
C111  C     C_R   0.123227 0.678262 0.781947 0.055081
C112  C     C_R   0.191033 0.729321 0.644271 -0.091067
C113  C     C_R   0.228997 0.709579 0.607206 -0.107429
C114  C     C_R   0.195331 0.568129 0.601551 -0.096635
C115  C     C_R   0.157841 0.587673 0.638561 -0.100584
C116  C     C_R   0.159837 0.665343 0.660715 0.029560
C117  C     C_R   0.235921 0.625699 0.586299 0.017972
C118  C     C_R   0.675393 0.074065 0.905104 0.017693
C119  C     C_R   0.609348 0.048910 0.884333 -0.117199
C120  C     C_R   0.585486 0.076204 0.845746 -0.109118
Cr1   Cr    Cr6+3 0.426010 0.422500 0.497000 1.110404
Cr2   Cr    Cr6+3 0.651300 0.426310 0.501970 1.081858
Cr3   Cr    Cr6+3 0.422670 0.651170 0.501050 1.082733
Cr4   Cr    Cr6+3 0.905130 0.911420 0.992650 1.046062
Cr5   Cr    Cr6+3 0.911860 0.682710 0.002320 1.105825
Cr6   Cr    Cr6+3 0.682710 0.906840 0.004710 1.138024
H1    H     H_    0.493198 0.771926 0.401004 0.172486
H2    H     H_    0.898051 0.556294 0.175945 0.166322
H3    H     H_    0.787372 0.501263 0.422003 0.166575
H4    H     H_    0.145104 0.569787 0.093572 0.183724
H5    H     H_    0.059666 0.889539 0.089475 0.135138
H6    H     H_    0.164027 0.834982 0.346007 0.169768
H7    H     H_    0.263509 0.765586 0.212589 0.170938
H8    H     H_    0.179677 0.568475 0.162363 0.151480
H9    H     H_    0.018258 0.696423 0.212040 0.182756
H10   H     H_    0.201335 0.536295 0.322232 0.174684
H11   H     H_    0.260618 0.484787 0.388190 0.153601
H12   H     H_    0.096864 0.886449 0.158594 0.137170
H13   H     H_    0.226369 0.782928 0.412052 0.148606
H14   H     H_    0.883116 0.064017 0.098050 0.141640
H15   H     H_    0.566927 0.339421 0.276216 0.188406
H16   H     H_    0.847701 0.526649 0.361073 0.151976
H17   H     H_    0.860416 0.110404 0.165868 0.151935
H18   H     H_    0.775917 0.016103 0.289290 0.194264
H19   H     H_    0.818659 0.118895 0.342087 0.161545
H20   H     H_    0.544887 0.184714 0.156395 0.185960
H21   H     H_    0.467610 0.314655 0.393178 0.162084
H22   H     H_    0.847117 0.563708 0.912917 0.179386
H23   H     H_    0.534355 0.813886 0.914970 0.178282
H24   H     H_    0.780161 0.507934 0.294395 0.131461
H25   H     H_    0.553999 0.580025 0.726941 0.175612
H26   H     H_    0.561601 0.587204 0.797558 0.173873
H27   H     H_    0.746055 0.716690 0.720767 0.171840
H28   H     H_    0.754034 0.723341 0.791343 0.122842
H29   H     H_    0.713046 0.457981 0.607403 0.186854
H30   H     H_    0.089354 0.828542 0.901870 0.163978
H31   H     H_    0.799461 0.518705 0.225550 0.149871
H32   H     H_    0.042710 0.568118 0.891201 0.175659
H33   H     H_    0.132398 0.538651 0.650677 0.135872
H34   H     H_    0.245534 0.507619 0.710409 0.142246
H35   H     H_    0.227464 0.514502 0.779943 0.143846
H36   H     H_    0.039566 0.834176 0.703927 0.155547
H37   H     H_    0.019559 0.840872 0.773647 0.173207
H38   H     H_    0.193167 0.789618 0.661034 0.148897
H39   H     H_    0.259263 0.755527 0.596046 0.160967
H40   H     H_    0.084387 0.552247 0.823559 0.162753
H41   H     H_    0.599099 0.821087 0.184889 0.174835
H42   H     H_    0.198277 0.503945 0.585850 0.166111
H43   H     H_    0.582052 0.002122 0.897052 0.146395
H44   H     H_    0.761797 0.153681 0.903024 0.151224
H45   H     H_    0.538929 0.051541 0.829560 0.150275
H46   H     H_    0.664119 0.985564 0.773408 0.163004
H47   H     H_    0.493863 0.175098 0.650408 0.182446
H48   H     H_    0.719355 0.202048 0.835846 0.185202
H49   H     H_    0.767510 0.235957 0.603993 0.185061
H50   H     H_    0.712597 0.837053 0.238865 0.182000
O1    O     O_R   0.324990 0.503440 0.453910 -0.513784
O2    O     O_R   0.639980 0.519500 0.542640 -0.510481
O3    O     O_R   0.500750 0.673190 0.545480 -0.449508
O4    O     O_R   0.336260 0.640450 0.538210 -0.502534
O5    O     O_3   0.499990 0.499990 0.500010 -0.279756
O6    O     O_R   0.834210 0.019400 0.034570 -0.524536
O7    O     O_R   0.002210 0.824620 0.031030 -0.505150
O8    O     O_R   0.024400 0.669340 0.039790 -0.474077
O9    O     O_R   0.830490 0.694950 0.045870 -0.447096
O10   O     O_R   0.675430 0.831160 0.051290 -0.434970
O11   O     O_R   0.698870 0.998880 0.039560 -0.434505
O12   O     O_R   0.522030 0.339050 0.458320 -0.511041
O13   O     O_R   0.811290 0.006780 0.950620 -0.509138
O14   O     O_R   0.980960 0.812920 0.953200 -0.501752
O15   O     O_R   0.001480 0.656720 0.955830 -0.504380
O16   O     O_R   0.809240 0.683250 0.968050 -0.498093
O17   O     O_R   0.652500 0.818540 0.967340 -0.508001
O18   O     O_R   0.677620 0.987170 0.961730 -0.492675
O19   O     O_3   0.833240 0.833660 0.999890 -0.280936
O20   O     O_R   0.676180 0.324490 0.458320 -0.444236
O21   O     O_R   0.643570 0.521510 0.464260 -0.496808
O22   O     O_R   0.504630 0.675350 0.460920 -0.501019
O23   O     O_R   0.339850 0.642450 0.459830 -0.500029
O24   O     O_R   0.321120 0.501280 0.538470 -0.486359
O25   O     O_R   0.518440 0.337050 0.536710 -0.419357
O26   O     O_R   0.672300 0.322330 0.542880 -0.521179
Cl1   Cl    Cl    0.540453 0.884711 0.110050 -0.479506
F1    F     F_    0.295048 0.751042 0.286461 -0.599619
Cl2   Cl    Cl    0.993454 0.677475 0.291024 -0.589850
Cl3   Cl    Cl    0.934740 0.537968 0.097823 -0.556277
Cl4   Cl    Cl    0.520310 0.151654 0.077879 -0.483856
F2    F     F_    0.473484 0.268741 0.321476 -0.602544
Cl5   Cl    Cl    0.561559 0.367037 0.196067 -0.565107
Cl6   Cl    Cl    0.827124 0.949078 0.212484 -0.633970
Cl7   Cl    Cl    0.841645 0.149185 0.421086 -0.530078
F3    F     F_    0.553587 0.821103 0.671565 -0.537621
Cl8   Cl    Cl    0.865375 0.494755 0.836187 -0.556695
Cl9   Cl    Cl    0.767448 0.428341 0.685794 -0.444884
F4    F     F_    0.492811 0.795046 0.843596 -0.592988
Cl10  Cl    Cl    0.513501 0.833351 0.588400 -0.417521
F5    F     F_    0.139977 0.823745 0.831249 -0.596699
Cl11  Cl    Cl    0.819637 0.166748 0.680743 -0.450393
F6    F     F_    0.572175 0.340245 0.715403 -0.569451
F7    F     F_    0.561659 0.323230 0.792455 -0.586378
Cl12  Cl    Cl    0.686566 0.958443 0.692717 -0.508036
F8    F     F_    0.691797 0.842665 0.312722 -0.554686
F9    F     F_    0.467945 0.233907 0.579877 -0.581941
F10   F     F_    0.538328 0.810564 0.334995 -0.551014

loop_
_geom_bond_atom_site_label_1
_geom_bond_atom_site_label_2
_ccdc_geom_bond_type
C15   C18   A    
C101  C102  A    
C22   C98   S    
C93   H29   S    
C81   Cl8   S    
C41   C42   A    
C14   C18   A    
Cr3   O22   S    
C95   C96   A    
C72   C76   A    
C25   C118  S    
Cr4   O14   S    
C114  C115  A    
C85   C91   A    
C48   C57   S    
C85   C86   A    
C56   C57   A    
C69   H18   S    
C66   O2    A    
C59   C64   A    
C62   C63   A    
C105  C106  A    
C43   H12   S    
C53   H11   S    
C95   F3    S    
C19   C39   S    
C66   C97   S    
Cr3   O23   S    
Cr6   O11   S    
C21   C59   S    
C77   C117  S    
C50   H9    S    
C109  C111  A    
C113  H39   S    
C79   C84   A    
C98   C104  A    
C103  H40   S    
C106  C107  A    
Cr5   O19   S    
C10   H46   S    
C115  C116  A    
C55   O25   A    
C92   C96   A    
C108  C109  A    
C26   H31   S    
Cr5   O9    S    
C75   F2    S    
C49   C50   A    
C2    C13   A    
C36   H16   S    
C118  C119  A    
C23   O16   A    
C103  C104  A    
C20   O9    A    
C13   H2    S    
Cr6   O19   S    
C61   H17   S    
Cr2   O5    S    
C2    C110  A    
C35   C36   A    
C44   C58   S    
C8    C9    A    
C65   C67   A    
C12   C17   A    
C62   C71   S    
C48   C49   A    
C73   C78   A    
C16   Cl11  S    
C70   C71   A    
C22   O14   A    
C9    C10   A    
C35   H3    S    
C63   H20   S    
C65   Cl5   S    
C42   C51   S    
C39   C45   A    
Cr6   O10   S    
C7    F6    S    
C84   H23   S    
C100  H30   S    
C105  C111  A    
C59   C60   A    
C4    H48   S    
Cr5   O8    S    
C1    C78   S    
C112  C113  A    
C102  C111  S    
C102  C103  A    
C54   H13   S    
C30   H50   S    
Cr4   O13   S    
C32   F10   S    
C21   O11   A    
C104  H32   S    
C21   O6    A    
C112  H38   S    
C64   Cl4   S    
C54   C56   A    
C77   O4    A    
C74   C75   A    
C5    H44   S    
C67   C68   A    
C114  C117  A    
C47   C48   A    
C14   F9    S    
C7    C8    A    
C1    O20   A    
Cr4   O7    S    
Cr3   O3    S    
C109  H37   S    
C34   H1    S    
C19   O7    A    
C6    C11   A    
C28   C37   S    
C86   C87   A    
C68   C69   A    
Cr1   O1    S    
C94   C97   A    
C65   C71   A    
C55   O26   A    
C108  H36   S    
C46   C51   A    
C81   C82   A    
C82   C91   S    
C63   C64   A    
C13   C24   A    
C115  H33   S    
C60   C61   A    
C32   C34   A    
C19   O8    A    
C80   H22   S    
C75   C76   A    
Cr1   O24   S    
Cr4   O6    S    
C29   C30   A    
C9    Cl12  S    
C43   C45   A    
C110  H41   S    
Cr6   O18   S    
C89   H27   S    
C83   C84   A    
C33   O21   A    
C30   C31   A    
C107  C108  A    
C87   C96   S    
C23   O17   A    
C50   C51   A    
C26   C27   A    
C94   C95   A    
Cr5   O15   S    
C32   C37   A    
C119  C120  A    
C92   Cl9   S    
C24   C88   A    
C56   H6    S    
C74   H21   S    
C18   C55   S    
C60   H14   S    
C113  C117  A    
C40   C41   A    
C49   Cl2   S    
C45   H5    S    
C27   H24   S    
C98   C100  A    
C87   C89   A    
C52   H10   S    
C6    F7    S    
C90   H28   S    
C42   C43   A    
C3    C4    A    
C67   H15   S    
C93   C97   A    
C112  C116  A    
C119  H43   S    
C52   C53   A    
Cr1   O5    S    
C54   C58   A    
C1    O12   A    
C3    C120  A    
Cr2   O2    S    
C40   H4    S    
C46   C47   A    
C28   C29   A    
C99   Cl1   S    
C34   C38   A    
C73   Cl7   S    
C33   C38   S    
Cr2   O20   S    
C80   C81   A    
C44   O1    A    
C52   C57   A    
C83   F4    S    
C53   C58   A    
C120  H45   S    
C114  H42   S    
C6    C7    A    
Cr3   O4    S    
C15   H49   S    
C68   C76   S    
C66   O3    A    
C94   Cl10  S    
C8    C17   S    
C29   F8    S    
C5    C118  A    
Cr2   O26   S    
C12   C14   A    
C85   H26   S    
Cr1   O25   S    
Cr3   O5    S    
C25   O13   A    
C86   H25   S    
Cr1   O12   S    
C99   C110  A    
Cr6   O17   S    
C90   C91   A    
C16   C17   A    
C33   O22   A    
C72   C73   A    
C106  H34   S    
C4    C5    A    
C20   C88   S    
Cr4   O19   S    
C24   Cl3   S    
C92   C93   A    
C47   F1    S    
Cr5   O16   S    
C41   H8    S    
Cr2   O21   S    
C61   C62   A    
C77   O24   A    
C69   C70   A    
C107  C116  S    
C88   C99   A    
C3    C11   S    
C10   C11   A    
C20   O10   A    
C79   C80   A    
C39   C40   A    
C101  F5    S    
C26   C31   A    
C44   O23   A    
C36   C37   A    
C82   C83   A    
C74   C78   A    
C27   C28   A    
C72   H19   S    
C35   C38   A    
C2    C31   S    
C105  H35   S    
C100  C101  A    
C70   Cl6   S    
C23   C79   S    
C22   O15   A    
C89   C90   A    
C25   O18   A    
C15   C16   A    
C12   H47   S    
C46   H7    S    
