data_mof_unit_7576.cif
_audit_creation_date              2013-03-05T15:55:01-0500
_audit_creation_method            fapswitch 2.2
_symmetry_space_group_name_H-M    P1
_symmetry_Int_Tables_number       1
_space_group_crystal_system       triclinic
_cell_length_a                    11.657485
_cell_length_b                    12.364337
_cell_length_c                    13.139913
_cell_angle_alpha                 116.556873
_cell_angle_beta                  77.671589
_cell_angle_gamma                 100.540515
_cell_volume                      1646.74106937

loop_
_atom_site_label
_atom_site_type_symbol
_atom_site_description
_atom_site_fract_x
_atom_site_fract_y
_atom_site_fract_z
_atom_type_partial_charge
O1    O     O_R   0.533340 0.972510 0.318140 -0.591232
O2    O     O_R   0.488570 0.806530 0.359650 -0.579110
C1    C     C_R   0.509124 0.855089 0.286542 0.825868
O3    O     O_R   0.685190 0.083000 0.479260 -0.584431
O4    O     O_R   0.640410 0.917020 0.520770 -0.514179
C2    C     C_R   0.715477 0.999853 0.500506 0.869553
Cu1   Cu    Cu3+1 0.526510 0.098270 0.475420 0.963310
Cu2   Cu    Cu3+1 0.473490 0.901730 0.524580 0.988434
O5    O     O_R   0.511430 0.193470 0.640350 -0.593794
O6    O     O_R   0.466660 0.027490 0.681860 -0.594297
O7    O     O_R   0.359590 0.082980 0.479230 -0.565645
O8    O     O_R   0.314810 0.917000 0.520740 -0.589657
C3    C     C_R   0.483654 0.144986 0.713608 0.817245
C4    C     C_R   0.284459 0.000677 0.500167 0.801855
C5    C     C_1   0.837102 0.999393 0.500830 -0.084426
C6    C     C_1   0.939893 0.999931 0.500656 0.051792
C7    C     C_1   0.060067 0.000987 0.500262 0.030447
C8    C     C_1   0.162863 0.001466 0.500044 -0.148633
C9    C     C_R   0.351849 0.276319 0.026172 0.630073
H1    H     H_    0.356099 0.095861 0.891253 0.174239
H2    H     H_    0.278837 0.459517 0.224400 0.209784
C10   C     C_R   0.461660 0.228238 0.835677 -0.127624
C11   C     C_R   0.582070 0.814164 0.083084 -0.146373
C12   C     C_R   0.605059 0.734708 0.967853 -0.118973
C13   C     C_R   0.566392 0.611787 0.931353 -0.176277
C14   C     C_R   0.498883 0.565921 0.009638 0.125022
C15   C     C_R   0.463886 0.649957 0.124462 0.097180
C16   C     C_R   0.463644 0.439748 0.977498 0.008141
C17   C     C_R   0.386513 0.400790 0.056936 0.021936
C18   C     C_R   0.342207 0.486702 0.164561 -0.165338
C19   C     C_R   0.378165 0.609248 0.196830 -0.229027
C20   C     C_R   0.503097 0.350762 0.868652 -0.236579
C21   C     C_R   0.388619 0.190642 0.915613 -0.233193
C22   C     C_R   0.514478 0.772805 0.163077 -0.090254
H3    H     H_    0.565136 0.374240 0.806469 0.165011
H4    H     H_    0.619932 0.907782 0.109981 0.176934
H5    H     H_    0.588801 0.555957 0.840785 0.132364
H6    H     H_    0.656576 0.767941 0.906756 0.166352
H7    H     H_    0.335173 0.671408 0.278410 0.176326
C23   C     C_R   0.630870 0.308842 0.286340 0.276214
H8    H     H_    0.668942 0.143383 0.281759 0.159895
H9    H     H_    0.628035 0.488584 0.228040 0.228696
N1    N     N_R   0.566700 0.246290 0.438210 -0.212814
C24   C     C_R   0.355697 0.769555 0.658224 0.103478
C25   C     C_R   0.325794 0.677691 0.695723 -0.233872
C26   C     C_R   0.375852 0.568126 0.633577 -0.159706
C27   C     C_R   0.455933 0.548273 0.531595 -0.003815
C28   C     C_R   0.485117 0.645022 0.495934 0.164433
C29   C     C_R   0.510915 0.437240 0.464881 -0.060219
C30   C     C_R   0.572526 0.415189 0.353019 -0.016662
C31   C     C_R   0.580483 0.503126 0.312597 -0.237692
C32   C     C_R   0.564591 0.622124 0.391146 0.324075
C33   C     C_R   0.508309 0.347216 0.504229 0.032148
C34   C     C_R   0.626709 0.226256 0.332262 0.027002
N2    N     N_R   0.434010 0.754320 0.561170 -0.212332
H10   H     H_    0.459435 0.354919 0.586212 0.128715
H11   H     H_    0.316332 0.854241 0.707539 0.131104
H12   H     H_    0.348157 0.499241 0.665360 0.138909
H13   H     H_    0.263398 0.691488 0.773368 0.158668
N3    N     N_R   0.697331 0.284726 0.174269 0.108458
O9    O     O_R   0.787226 0.360021 0.162226 -0.319842
O10   O     O_R   0.684703 0.176898 0.090597 -0.362213
N4    N     N_R   0.667156 0.703145 0.385494 0.155603
O11   O     O_R   0.704552 0.716981 0.290900 -0.374450
O12   O     O_R   0.744043 0.721907 0.451954 -0.349557
F1    F     F_    0.278928 0.237891 0.101638 -0.657048

loop_
_geom_bond_atom_site_label_1
_geom_bond_atom_site_label_2
_geom_bond_distance
_ccdc_geom_bond_type
C28   N2    1.398808 A    
C12   H6    1.082968 S    
C11   C12   1.386542 A    
N4    O12   1.302618 A    
C17   C18   1.393065 A    
C23   N3    1.436113 S    
H9    C31   1.081160 S    
Cu1   N1    2.048582 S    
O4    Cu2   1.912306 S    
H2    C18   1.083682 S    
C4    C8    1.419669 S    
N1    C34   1.352025 A    
C14   C16   1.425263 A    
C27   C28   1.431976 A    
C28   C32   1.427244 A    
C24   H11   1.081194 S    
Cu2   O8    1.906867 S    
C11   C22   1.402393 A    
C7    C8    1.196668 T    
C13   C14   1.418355 A    
Cu1   Cu2   2.718125 S    
C27   C29   1.438703 A    
O6    C3    1.308389 A    
C25   C26   1.392530 A    
C26   H12   1.078864 S    
N3    O10   1.301758 A    
Cu1   O7    1.912307 S    
C24   N2    1.358756 A    
C14   C15   1.418772 A    
C18   C19   1.385779 A    
C10   C20   1.396706 A    
O3    Cu1   1.906867 S    
C29   C33   1.415171 A    
H1    C21   1.083239 S    
Cu2   N2    2.036448 S    
O3    C2    1.300393 A    
C16   C17   1.421395 A    
O8    C4    1.301359 A    
C3    C10   1.463780 S    
C30   C31   1.389734 A    
O2    C1    1.305946 A    
C15   C22   1.422450 A    
O4    C2    1.304627 A    
O7    C4    1.303721 A    
C23   C30   1.414850 A    
H8    C34   1.081554 S    
C6    C7    1.397532 S    
C5    C6    1.196605 T    
C15   C19   1.412209 A    
C31   C32   1.387301 A    
C9    C17   1.407538 A    
C20   H3    1.076050 S    
Cu1   O5    1.935221 S    
C16   C20   1.401712 A    
C12   C13   1.390327 A    
C9    F1    1.358407 S    
Cu2   O6    1.948536 S    
C11   H4    1.083275 S    
C9    C21   1.393018 A    
C33   H10   1.077109 S    
C29   C30   1.418869 A    
C10   C21   1.397930 A    
O5    C3    1.304870 A    
C26   C27   1.408181 A    
C25   H13   1.082574 S    
C1    C22   1.474796 S    
C13   H5    1.076868 S    
C2    C5    1.419811 S    
O1    Cu1   1.948538 S    
N1    C33   1.365190 A    
O2    Cu2   1.935221 S    
C24   C25   1.391631 A    
N4    O11   1.302208 A    
C23   C34   1.389054 A    
C19   H7    1.079717 S    
N3    O9    1.301504 A    
O1    C1    1.311873 A    
C32   N4    1.424439 S    
