data_mof_unit_52089.cif
_audit_creation_date              2012-12-10T20:30:15-0500
_audit_creation_method            fapswitch 2.2
_symmetry_space_group_name_H-M    P1
_symmetry_Int_Tables_number       1
_space_group_crystal_system       triclinic
_cell_length_a                    9.903802
_cell_length_b                    10.736797
_cell_length_c                    13.150814
_cell_angle_alpha                 91.187359
_cell_angle_beta                  70.780664
_cell_angle_gamma                 90.820814
_cell_volume                      1320.12905412

loop_
_atom_site_label
_atom_site_type_symbol
_atom_type_description
_atom_site_fract_x
_atom_site_fract_y
_atom_site_fract_z
_atom_type_partial_charge
C1    C     C_R   0.501945 0.739608 0.496648 0.873796
C2    C     C_R   0.430520 0.493421 0.984090 0.089746
C3    C     C_R   0.445022 0.543128 0.882560 0.095780
C4    C     C_R   0.531149 0.530596 0.034517 0.082598
C5    C     C_R   0.629556 0.628800 0.990972 0.182370
C6    C     C_R   0.625323 0.689384 0.899878 -0.269805
C7    C     C_R   0.536135 0.645950 0.844789 -0.231800
C8    C     C_R   0.536451 0.473842 0.127431 -0.253956
C9    C     C_R   0.724884 0.614965 0.137436 -0.196514
C10   C     C_R   0.368272 0.488500 0.820437 -0.113437
C11   C     C_R   0.378863 0.933998 0.497979 0.069774
C12   C     C_R   0.420432 0.500320 0.703800 0.856091
C13   C     C_R   0.503373 0.871643 0.493305 -0.098964
C14   C     C_R   0.628031 0.937771 0.487166 -0.205047
C15   C     C_R   0.627058 0.065761 0.488141 -0.221735
C16   C     C_R   0.502141 0.128188 0.492523 -0.073012
C17   C     C_R   0.378536 0.061942 0.496536 0.105683
C18   C     C_3   0.296430 0.062552 0.418683 -0.120545
C19   C     C_3   0.297331 0.921697 0.420513 -0.448580
C20   C     C_R   0.923236 0.607963 0.519666 0.195348
C21   C     C_R   0.940086 0.397053 0.469059 -0.140762
C22   C     C_R   0.084037 0.397466 0.468287 -0.137061
C23   C     C_R   0.500838 0.260300 0.496513 0.871328
C24   C     C_R   0.064041 0.606061 0.522402 0.174688
C25   C     C_3   0.029711 0.679889 0.623656 -0.579237
C26   C     C_3   0.878891 0.690384 0.618574 0.255374
C27   C     C_R   0.578797 0.500338 0.296564 0.857576
C28   C     C_R   0.728555 0.667632 0.040903 -0.206386
C29   C     C_R   0.624293 0.521734 0.182342 -0.047910
C30   C     C_R   0.256431 0.404472 0.866993 -0.192326
C31   C     C_R   0.228185 0.367867 0.972705 -0.145993
C32   C     C_R   0.316512 0.408714 0.030200 -0.191764
H1    H     H_    0.792044 0.653612 0.180897 0.155737
H2    H     H_    0.725075 0.115498 0.482006 0.159560
H3    H     H_    0.187982 0.103381 0.452601 0.141476
H4    H     H_    0.188970 0.881160 0.457608 0.196267
H5    H     H_    0.360792 0.876439 0.342872 0.213699
H6    H     H_    0.895581 0.313130 0.445579 0.147150
H7    H     H_    0.147251 0.314473 0.443547 0.137835
H8    H     H_    0.034561 0.623529 0.692357 0.180565
H9    H     H_    0.090706 0.768841 0.613256 0.219831
H10   H     H_    0.793142 0.648501 0.686454 0.110729
H11   H     H_    0.692700 0.769364 0.870794 0.124852
H12   H     H_    0.803676 0.742694 0.008130 0.135879
H13   H     H_    0.466490 0.397304 0.163528 0.131037
H14   H     H_    0.195089 0.363002 0.820152 0.153404
H15   H     H_    0.290928 0.374667 0.110953 0.128565
H16   H     H_    0.141629 0.303047 0.008606 0.142216
H17   H     H_    0.538031 0.693864 0.772641 0.152169
H18   H     H_    0.727152 0.891114 0.477648 0.230438
N1    N     N_R   0.856940 0.500860 0.500710 -0.133657
N2    N     N_R   0.142580 0.500820 0.500710 -0.100812
O1    O     O_R   0.385310 0.683210 0.499990 -0.611833
O2    O     O_R   0.614650 0.683240 0.500000 -0.607986
O3    O     O_R   0.328390 0.499940 0.653610 -0.609691
O4    O     O_R   0.557730 0.499980 0.653620 -0.607575
O5    O     O_R   0.385350 0.316760 0.500000 -0.631448
O6    O     O_R   0.614690 0.316790 0.500010 -0.626073
O7    O     O_R   0.442270 0.500020 0.346380 -0.611621
O8    O     O_R   0.671610 0.500060 0.346390 -0.614282
Zn1   Zn    Zn3+2 0.346870 0.499980 0.499990 0.940401
Zn2   Zn    Zn3+2 0.653130 0.500020 0.500010 0.952900
N3    N     N_3   0.380317 0.110784 0.313285 -0.436627
H19   H     H_    0.380731 0.207975 0.319217 0.187468
H20   H     H_    0.325196 0.088287 0.259789 0.186874
O9    O     O_3   0.851570 0.811834 0.591480 -0.609710
C33   C     C_3   0.826886 0.895081 0.680487 0.103133
H21   H     H_    0.867865 0.861859 0.744448 0.127364
H22   H     H_    0.710059 0.911359 0.716127 0.157595
C34   C     C_3   0.902386 0.018385 0.642427 -0.861031
H23   H     H_    0.875000 0.052768 0.572914 0.253164
H24   H     H_    0.869963 0.088842 0.708857 0.217143
H25   H     H_    0.019893 0.005895 0.617796 0.239579

loop_
_geom_bond_atom_site_label_1
_geom_bond_atom_site_label_2
_ccdc_geom_bond_type
C24   N2    A    
C23   O6    A    
C2    C4    A    
C1    O2    A    
N3    H20   S    
O6    Zn2   S    
C6    C7    A    
C13   C14   A    
C2    C3    A    
C27   C29   S    
C5    C28   A    
C19   H5    S    
C18   H3    S    
C10   C30   A    
C15   H2    S    
C31   C32   A    
C9    C29   A    
C30   C31   A    
C31   H16   S    
C33   C34   S    
C16   C23   S    
C34   H25   S    
O9    C33   S    
C25   C26   S    
C7    H17   S    
C20   C26   S    
C3    C10   A    
C27   O7    A    
C21   C22   A    
C9    H1    S    
C11   C13   A    
C11   C19   S    
C27   O8    A    
C14   H18   S    
N1    Zn2   S    
C10   C12   S    
C33   H21   S    
C6    H11   S    
O3    Zn1   S    
C2    C32   A    
C22   N2    A    
C12   O4    A    
C28   H12   S    
C17   C18   S    
C20   N1    A    
C3    C7    A    
N2    Zn1   S    
C25   H8    S    
C5    C6    A    
C32   H15   S    
O4    Zn2   S    
C18   N3    S    
O7    Zn1   S    
C12   O3    A    
C1    C13   S    
C22   H7    S    
C25   H9    S    
C15   C16   A    
C26   O9    S    
C16   C17   A    
C20   C24   A    
C21   N1    A    
C34   H23   S    
C24   C25   S    
C26   H10   S    
O8    Zn2   S    
C18   C19   S    
C8    C29   A    
O5    Zn1   S    
C23   O5    A    
C1    O1    A    
C8    H13   S    
C11   C17   A    
C34   H24   S    
O2    Zn2   S    
C4    C8    A    
C19   H4    S    
C14   C15   A    
O1    Zn1   S    
C30   H14   S    
C21   H6    S    
N3    H19   S    
C9    C28   A    
C4    C5    A    
C33   H22   S    
