data_mof_unit_7465.cif
_audit_creation_date              2012-10-26T21:12:33-0400
_audit_creation_method            fapswitch 2.2
_symmetry_space_group_name_H-M    P1
_symmetry_Int_Tables_number       1
_space_group_crystal_system       triclinic
_cell_length_a                    23.479312
_cell_length_b                    10.816435
_cell_length_c                    9.607511
_cell_angle_alpha                 88.49922
_cell_angle_beta                  89.717502
_cell_angle_gamma                 93.094334
_cell_volume                      2435.50469073

loop_
_atom_site_label
_atom_site_type_symbol
_atom_type_description
_atom_site_fract_x
_atom_site_fract_y
_atom_site_fract_z
_atom_type_partial_charge
C1    C     C_R   0.497385 0.262742 0.501966 0.547953
C2    C     C_R   0.122995 0.610915 0.545590 0.416194
C3    C     C_R   0.242189 0.579080 0.404274 0.271950
C4    C     C_R   0.391240 0.499888 0.500371 0.539119
C5    C     C_R   0.301632 0.576390 0.403883 -0.150268
C6    C     C_R   0.329077 0.501980 0.501284 -0.082597
C7    C     C_R   0.296968 0.430319 0.600084 -0.147063
C8    C     C_R   0.237502 0.432256 0.601604 0.273750
C9    C     C_R   0.209915 0.506697 0.503247 0.241233
C10   C     C_R   0.761899 0.520890 0.374491 -0.108296
C11   C     C_R   0.702557 0.517874 0.373996 -0.162614
C12   C     C_R   0.965440 0.300915 0.413629 -0.126742
C13   C     C_R   0.671813 0.504883 0.499658 -0.033351
C14   C     C_R   0.701495 0.495690 0.625892 -0.143540
C15   C     C_R   0.761439 0.501561 0.627400 0.313249
C16   C     C_R   0.497895 0.737476 0.497947 0.558018
C17   C     C_R   0.791396 0.511841 0.500244 0.266051
C18   C     C_R   0.408280 0.113415 0.656417 -0.101351
C19   C     C_R   0.365050 0.041054 0.723739 -0.115756
C20   C     C_R   0.363876 0.912655 0.716866 -0.114691
C21   C     C_R   0.406478 0.855592 0.644673 -0.106555
C22   C     C_R   0.450997 0.926836 0.576043 -0.022840
C23   C     C_R   0.024833 0.300212 0.414019 -0.130459
C24   C     C_R   0.451570 0.057752 0.581225 0.009894
C25   C     C_R   0.494030 0.128875 0.505365 -0.045052
C26   C     C_R   0.531434 0.072584 0.418084 -0.134163
C27   C     C_R   0.527277 0.945568 0.401272 0.244266
C28   C     C_R   0.609031 0.501090 0.499719 0.553099
C29   C     C_R   0.492257 0.871385 0.493060 0.002975
C30   C     C_R   0.582505 0.649033 0.138358 -0.078554
C31   C     C_R   0.626194 0.712983 0.064270 -0.181635
C32   C     C_R   0.625175 0.716592 0.920756 -0.201629
C33   C     C_R   0.581516 0.652954 0.851140 -0.093827
C34   C     C_R   0.057859 0.404163 0.457470 0.018742
C35   C     C_R   0.540309 0.574274 0.922640 0.158689
C36   C     C_R   0.540601 0.573178 0.072012 0.135972
C37   C     C_R   0.461570 0.429298 0.076424 -0.007129
C38   C     C_R   0.461686 0.429053 0.928576 -0.007108
C39   C     C_R   0.883612 0.615845 0.537977 0.408379
C40   C     C_R   0.878209 0.408455 0.457160 0.410176
C41   C     C_R   0.937863 0.405807 0.456045 0.023995
C42   C     C_R   0.970578 0.510787 0.499162 -0.031569
C43   C     C_R   0.943363 0.616819 0.540830 0.016932
C44   C     C_3   0.779119 0.576334 0.845826 0.017682
C45   C     C_R   0.030650 0.509768 0.500424 -0.033814
C46   C     C_3   0.822052 0.574922 0.965029 -0.240471
C47   C     C_3   0.882951 0.607452 0.914611 -0.373034
C48   C     C_3   0.539552 0.937994 0.163958 0.007293
C49   C     C_3   0.480909 0.879377 0.125334 -0.272230
C50   C     C_3   0.466472 0.907637 0.973961 -0.469303
C51   C     C_3   0.204407 0.598079 0.188473 -0.017660
C52   C     C_3   0.170215 0.681083 0.094236 -0.353489
C53   C     C_3   0.196900 0.417482 0.816444 -0.020202
C54   C     C_3   0.157606 0.336566 0.911424 -0.352716
C55   C     C_R   0.063361 0.614352 0.544584 0.020021
C56   C     C_R   0.035774 0.719375 0.586644 -0.129611
C57   C     C_R   0.976390 0.720721 0.584419 -0.139110
C58   C     C_R   0.117603 0.405535 0.458807 0.416458
Cu1   Cu    Cu3+1 0.500000 0.499990 0.640660 0.910835
Cu2   Cu    Cu3+1 0.500000 0.500010 0.359340 0.923441
H1    H     H_    0.941253 0.219100 0.379917 0.169265
H2    H     H_    0.044735 0.217898 0.380514 0.167017
H3    H     H_    0.581816 0.666868 0.246491 0.220519
H4    H     H_    0.658633 0.767535 0.118651 0.143100
H5    H     H_    0.657161 0.772933 0.862925 0.125695
H6    H     H_    0.581686 0.670533 0.741845 0.187881
H7    H     H_    0.430329 0.370725 0.875514 0.103785
H8    H     H_    0.059954 0.800927 0.621099 0.169059
H9    H     H_    0.956476 0.803187 0.617413 0.163382
H10   H     H_    0.326315 0.633911 0.328958 0.140160
H11   H     H_    0.317914 0.371261 0.674514 0.126457
H12   H     H_    0.680853 0.524977 0.275190 0.140441
H13   H     H_    0.785169 0.529622 0.276907 0.116359
H14   H     H_    0.736020 0.556694 0.892286 0.109553
H15   H     H_    0.780964 0.670766 0.795886 0.162525
H16   H     H_    0.810241 0.643296 0.043097 0.110864
H17   H     H_    0.820141 0.481683 0.016885 0.179970
H18   H     H_    0.896821 0.537759 0.840514 0.197281
H19   H     H_    0.912270 0.608147 0.004948 0.126099
H20   H     H_    0.885818 0.700662 0.862956 0.172496
H21   H     H_    0.571266 0.914195 0.084926 0.165761
H22   H     H_    0.538878 0.040617 0.155746 0.123406
H23   H     H_    0.678113 0.481379 0.722804 0.133660
H24   H     H_    0.480274 0.777603 0.141316 0.201137
H25   H     H_    0.447469 0.915493 0.193168 0.156700
H26   H     H_    0.464943 0.009115 0.954836 0.159117
H27   H     H_    0.424096 0.862805 0.951342 0.158803
H28   H     H_    0.498508 0.870044 0.903289 0.167896
H29   H     H_    0.178754 0.509508 0.207359 0.148031
H30   H     H_    0.244889 0.579011 0.134068 0.116930
H31   H     H_    0.195079 0.769496 0.070708 0.172195
H32   H     H_    0.160368 0.634323 0.995182 0.091841
H33   H     H_    0.129520 0.701274 0.146268 0.171778
H34   H     H_    0.562925 0.128596 0.357955 0.138578
H35   H     H_    0.176026 0.506007 0.795073 0.148496
H36   H     H_    0.237929 0.437042 0.871475 0.115195
H37   H     H_    0.177744 0.248492 0.938026 0.172483
H38   H     H_    0.149173 0.385461 0.008830 0.093939
H39   H     H_    0.116394 0.315505 0.858480 0.172210
H40   H     H_    0.406281 0.212817 0.660757 0.123822
H41   H     H_    0.331849 0.084910 0.779801 0.124660
H42   H     H_    0.329755 0.856889 0.767620 0.124710
H43   H     H_    0.402736 0.755867 0.639007 0.145030
H44   H     H_    0.430095 0.371199 0.133548 0.119777
N1    N     N_R   0.852452 0.512154 0.498347 -0.374163
N2    N     N_R   0.148789 0.507710 0.502780 -0.373835
N3    N     N_R   0.500540 0.501210 0.147910 -0.252918
N4    N     N_R   0.500560 0.501290 0.852040 -0.240935
O1    O     O_R   0.500000 0.319640 0.618810 -0.496148
O2    O     O_R   0.582120 0.500020 0.618760 -0.516534
O3    O     O_R   0.582120 0.500050 0.381190 -0.517400
O4    O     O_2   0.856813 0.717641 0.573959 -0.517105
O5    O     O_3   0.791517 0.484483 0.749686 -0.541344
O6    O     O_3   0.557942 0.893488 0.296221 -0.576772
O7    O     O_3   0.215782 0.659003 0.314096 -0.520374
O8    O     O_3   0.206123 0.354234 0.692540 -0.522242
O9    O     O_2   0.846124 0.308111 0.418237 -0.488735
O10   O     O_2   0.144418 0.306018 0.415610 -0.484361
O11   O     O_2   0.155003 0.709466 0.589715 -0.487154
O12   O     O_R   0.500000 0.319660 0.381240 -0.498263
O13   O     O_R   0.417880 0.499950 0.618810 -0.514832
O14   O     O_R   0.417880 0.499980 0.381240 -0.502393
O15   O     O_R   0.500000 0.680340 0.618760 -0.535966
O16   O     O_R   0.500000 0.680360 0.381190 -0.494525

loop_
_geom_bond_atom_site_label_1
_geom_bond_atom_site_label_2
_ccdc_geom_bond_type
Cu1   O13   S    
C55   C56   A    
C38   N4    A    
C26   H34   S    
C22   C29   A    
C53   H35   S    
C11   C13   A    
C41   C42   A    
C19   C20   A    
C47   H19   S    
C46   H16   S    
C7    C8    A    
C53   C54   S    
C56   C57   A    
C12   C23   A    
C26   C27   A    
C37   C38   A    
C18   C24   A    
C14   H23   S    
C49   H24   S    
C16   O15   A    
C37   N3    A    
C2    C55   A    
C51   H30   S    
C7    H11   S    
C30   C31   A    
C10   H13   S    
C27   C29   A    
C10   C17   A    
C58   O10   S    
Cu1   O2    S    
C48   H21   S    
C15   C17   A    
C18   C19   A    
Cu2   O16   S    
C35   N4    A    
C1    O1    A    
C23   H2    S    
C35   C36   A    
C8    C9    A    
C15   O5    S    
C54   H37   S    
C13   C14   A    
C53   O8    S    
C50   H28   S    
C40   O9    S    
Cu1   Cu2   S    
C21   C22   A    
C53   H36   S    
C1    C25   S    
C18   H40   S    
C47   H20   S    
C44   C46   S    
C33   H6    S    
C28   O3    A    
Cu1   O15   S    
C51   C52   S    
C49   H25   S    
C24   C25   A    
C4    C6    S    
C43   C57   A    
C11   H12   S    
C39   C43   A    
C28   O2    A    
C9    N2    S    
C56   H8    S    
C2    N2    A    
C51   O7    S    
Cu1   O1    S    
C58   N2    A    
C42   C45   A    
C44   H15   S    
Cu2   O14   S    
C5    H10   S    
C3    C9    A    
C17   N1    S    
C46   H17   S    
C31   C32   A    
C23   C34   A    
C4    O14   A    
C52   H33   S    
C13   C28   S    
C34   C45   A    
C38   H7    S    
C44   H14   S    
C45   C55   A    
Cu2   N3    S    
C50   H27   S    
C39   O4    S    
C44   O5    S    
C22   C24   A    
C54   H39   S    
C52   H32   S    
C42   C43   A    
C12   C41   A    
C48   O6    S    
C39   N1    A    
C46   C47   S    
C40   C41   A    
C31   H4    S    
C3    C5    A    
C37   H44   S    
C2    O11   S    
C6    C7    A    
C8    O8    S    
Cu1   N4    S    
C30   C36   A    
C32   C33   A    
C32   H5    S    
C25   C26   A    
Cu2   O3    S    
C3    O7    S    
C51   H29   S    
C12   H1    S    
C19   H41   S    
C5    C6    A    
C48   C49   S    
C33   C35   A    
C48   H22   S    
C4    O13   A    
Cu2   O12   S    
C16   O16   A    
C10   C11   A    
C50   H26   S    
C21   H43   S    
C27   O6    S    
C20   H42   S    
C20   C21   A    
C16   C29   S    
C49   C50   S    
C34   C58   A    
C14   C15   A    
C54   H38   S    
C52   H31   S    
C47   H18   S    
C57   H9    S    
C30   H3    S    
C1    O12   A    
C40   N1    A    
C36   N3    A    
