data_mof_unit_24144.cif
_audit_creation_date              2013-03-05T16:44:37-0500
_audit_creation_method            fapswitch 2.2
_symmetry_space_group_name_H-M    P1
_symmetry_Int_Tables_number       1
_space_group_crystal_system       triclinic
_cell_length_a                    27.713717
_cell_length_b                    10.689807
_cell_length_c                    9.840192
_cell_angle_alpha                 90.284288
_cell_angle_beta                  89.539761
_cell_angle_gamma                 89.84615
_cell_volume                      2915.05829724

loop_
_atom_site_label
_atom_site_type_symbol
_atom_site_description
_atom_site_fract_x
_atom_site_fract_y
_atom_site_fract_z
_atom_type_partial_charge
O1    O     O_R   0.500010 0.316790 0.614690 -0.614736
O2    O     O_R   0.500000 0.316760 0.385350 -0.620225
C1    C     C_R   0.500581 0.259964 0.499460 0.892318
O3    O     O_R   0.428760 0.500040 0.614660 -0.622806
O4    O     O_R   0.428750 0.500000 0.385310 -0.622075
C2    C     C_R   0.405943 0.499975 0.500441 0.879242
Zn1   Zn    Zn3+2 0.500000 0.500020 0.653130 0.948056
Zn2   Zn    Zn3+2 0.500000 0.499980 0.346870 0.947681
O5    O     O_R   0.500000 0.683240 0.614650 -0.622718
O6    O     O_R   0.499990 0.683210 0.385310 -0.624796
O7    O     O_R   0.571250 0.500000 0.614690 -0.627224
O8    O     O_R   0.571240 0.499960 0.385340 -0.625771
C3    C     C_R   0.501408 0.740033 0.499899 0.878294
C4    C     C_R   0.594006 0.501724 0.499508 0.879919
C5    C     C_R   0.176326 0.385848 0.512402 0.480569
O9    O     O_2   0.200353 0.276226 0.500343 -0.559093
N1    N     N_R   0.201160 0.495555 0.514434 -0.355909
C6    C     C_R   0.178663 0.608296 0.531909 0.540287
C7    C     C_R   0.276907 0.524171 0.384239 0.056676
C8    C     C_R   0.327332 0.527785 0.384058 -0.265308
C9    C     C_R   0.328232 0.465355 0.620444 -0.222075
C10   C     C_R   0.278291 0.462711 0.622378 -0.112337
C11   C     C_R   0.252510 0.491950 0.505420 0.279603
C12   C     C_R   0.101579 0.501846 0.537947 -0.054114
C13   C     C_R   0.126075 0.387066 0.520091 -0.025537
C14   C     C_R   0.100122 0.276078 0.508089 -0.115327
C15   C     C_R   0.128257 0.613900 0.552182 -0.103566
C16   C     C_R   0.353161 0.498058 0.501646 -0.049896
H1    H     H_    0.347191 0.441246 0.711795 0.155989
H2    H     H_    0.259372 0.439013 0.715483 0.142481
H3    H     H_    0.118335 0.187277 0.492925 0.231517
C17   C     C_R   0.646643 0.509067 0.498390 -0.060553
C18   C     C_R   0.973126 0.393489 0.532428 0.048034
C19   C     C_R   0.975192 0.624301 0.538511 0.056413
C20   C     C_R   0.948949 0.510716 0.531780 0.072911
C21   C     C_R   0.945114 0.283040 0.535233 -0.210383
C22   C     C_R   0.895196 0.287708 0.529007 -0.130439
C23   C     C_R   0.871333 0.402438 0.520924 -0.021587
C24   C     C_R   0.897973 0.514396 0.523550 -0.050355
C25   C     C_R   0.873547 0.629988 0.517420 -0.020746
C26   C     C_R   0.823197 0.631292 0.508156 0.573710
N2    N     N_R   0.798374 0.521267 0.503858 -0.337972
C27   C     C_R   0.821097 0.408071 0.511124 0.554127
C28   C     C_R   0.722748 0.510499 0.372225 0.007762
C29   C     C_R   0.672264 0.503248 0.374895 -0.266091
C30   C     C_R   0.671469 0.524456 0.620612 -0.207152
C31   C     C_R   0.721323 0.531981 0.619738 -0.121180
C32   C     C_R   0.747068 0.524047 0.497279 0.253645
O10   O     O_2   0.795012 0.301602 0.508738 -0.545541
C33   C     C_R   0.024243 0.390459 0.529075 0.038457
C34   C     C_R   0.050453 0.504168 0.540190 0.075559
C35   C     C_R   0.026021 0.620227 0.551667 0.030979
C36   C     C_R   0.050213 0.277427 0.512118 -0.204347
H4    H     H_    0.652807 0.492809 0.280458 0.193570
H5    H     H_    0.875363 0.200489 0.530187 0.192809
H6    H     H_    0.960521 0.190933 0.544383 0.142043
H7    H     H_    0.033157 0.188118 0.497121 0.156992
O11   O     O_2   0.205133 0.713824 0.525860 -0.529629
C37   C     C_R   0.103465 0.726568 0.582966 -0.010789
H8    H     H_    0.346261 0.553945 0.292131 0.151521
C38   C     C_R   0.949659 0.738659 0.528421 -0.209901
C39   C     C_R   0.899766 0.741200 0.518887 -0.134905
O12   O     O_2   0.799146 0.741099 0.502696 -0.550917
C40   C     C_R   0.053153 0.728629 0.579481 -0.265261
H9    H     H_    0.967343 0.828208 0.523158 0.146364
H10   H     H_    0.652449 0.530212 0.717050 0.164683
H11   H     H_    0.881846 0.831100 0.511497 0.190915
H12   H     H_    0.740310 0.541769 0.714986 0.151817
H13   H     H_    0.035773 0.815715 0.606761 0.158071
C41   C     C_R   0.523102 0.064788 0.608756 0.129111
C42   C     C_R   0.506237 0.128441 0.495760 -0.090497
C43   C     C_R   0.498378 0.063671 0.373853 -0.218713
H14   H     H_    0.488376 0.111303 0.281242 0.168972
C44   C     C_R   0.498853 0.934860 0.374284 -0.229736
H15   H     H_    0.488793 0.885973 0.282102 0.168436
C45   C     C_R   0.507715 0.871517 0.496253 -0.112287
C46   C     C_R   0.524833 0.937219 0.608585 0.062963
C47   C     C_3   0.513055 0.929982 0.757610 -0.203415
C48   C     C_3   0.509599 0.072651 0.755735 -0.514281
H16   H     H_    0.477944 0.883387 0.778610 0.165792
H17   H     H_    0.472200 0.107972 0.772032 0.194355
H18   H     H_    0.537601 0.122030 0.815918 0.216045
C49   C     C_R   0.466193 0.433351 0.071842 0.216049
N3    N     N_R   0.499670 0.499140 0.142800 -0.114566
C50   C     C_R   0.536584 0.553289 0.071553 -0.115782
H19   H     H_    0.565561 0.598358 0.125759 0.157878
C51   C     C_R   0.536598 0.553111 0.927392 -0.114551
H20   H     H_    0.565668 0.597334 0.872430 0.164312
N4    N     N_R   0.499670 0.499180 0.857150 -0.114132
C52   C     C_R   0.466386 0.432538 0.929133 0.215433
C53   C     C_3   0.413118 0.449539 0.924492 -0.520537
C54   C     C_3   0.413052 0.453050 0.078332 -0.501468
H21   H     H_    0.402281 0.539994 0.878319 0.221589
H22   H     H_    0.395022 0.365048 0.883244 0.195663
H23   H     H_    0.403376 0.546705 0.119855 0.210816
H24   H     H_    0.393872 0.372772 0.125365 0.206930
C55   C     C_R   0.250696 0.554704 0.257884 0.110967
C56   C     C_R   0.258793 0.669357 0.192303 -0.123424
C57   C     C_R   0.235046 0.697107 0.071170 -0.110712
C58   C     C_R   0.203282 0.610527 0.014215 -0.092868
C59   C     C_R   0.195234 0.496038 0.078290 -0.151879
C60   C     C_R   0.218915 0.467906 0.199372 -0.155457
H25   H     H_    0.283347 0.737301 0.235222 0.142165
H26   H     H_    0.241355 0.785643 0.021272 0.151757
H27   H     H_    0.185074 0.631867 0.920180 0.172829
H28   H     H_    0.170907 0.428638 0.033571 0.147634
H29   H     H_    0.213150 0.377612 0.245771 0.168955
C61   C     C_2   0.127974 0.842020 0.629882 1.003048
O13   O     O_2   0.116148 0.943553 0.583915 -0.652593
O14   O     O_R   0.162857 0.835271 0.731536 -0.790353
H30   H     H_    0.176423 0.920303 0.756246 0.350306
C62   C     C_R   0.553809 0.884196 0.847019 0.187755
C63   C     C_R   0.596929 0.832830 0.793314 -0.129788
C64   C     C_R   0.633960 0.795466 0.880053 -0.157486
C65   C     C_R   0.628398 0.808146 0.020647 -0.110501
C66   C     C_R   0.585779 0.858229 0.074933 -0.151010
C67   C     C_R   0.548608 0.895588 0.988762 -0.165421
H31   H     H_    0.602216 0.821112 0.684936 0.133395
H32   H     H_    0.666934 0.756159 0.838179 0.155748
H33   H     H_    0.657028 0.778664 0.087574 0.154913
H34   H     H_    0.581487 0.867625 0.183918 0.152428
H35   H     H_    0.515826 0.934564 0.032368 0.126466
C68   C     C_2   0.748766 0.502918 0.238989 0.928622
O15   O     O_2   0.726827 0.474011 0.136101 -0.640737
O16   O     O_R   0.798026 0.529769 0.229443 -0.801389
H36   H     H_    0.811104 0.521245 0.133314 0.350502

loop_
_geom_bond_atom_site_label_1
_geom_bond_atom_site_label_2
_geom_bond_distance
_ccdc_geom_bond_type
C51   H20   1.078236 S    
C59   C60   1.398502 A    
C17   C29   1.403549 A    
C1    C42   1.414501 S    
C7    C8    1.398083 A    
C12   C15   1.416271 A    
C64   C65   1.396684 A    
C7    C55   1.482360 S    
C68   O15   1.223915 D    
C46   C47   1.502170 S    
C61   O13   1.222857 D    
Zn1   O7    2.007519 S    
C49   C54   1.487968 S    
C58   H27   1.082530 S    
N1    C11   1.425542 S    
C44   C45   1.403996 A    
C39   H11   1.083594 S    
C21   C22   1.386042 A    
C30   H10   1.083235 S    
C62   C67   1.405714 A    
O7    C4    1.292854 A    
C47   H16   1.112671 S    
C68   O16   1.398292 S    
C56   H25   1.083132 S    
Zn1   N4    2.007608 S    
C54   H24   1.111585 S    
C18   C21   1.415032 A    
C25   C39   1.395049 A    
C66   C67   1.398168 A    
C5    N1    1.361526 A    
C19   C20   1.418582 A    
C26   N2    1.364793 A    
O5    C3    1.285052 A    
O14   H30   1.013823 S    
C6    O11   1.348569 S    
C2    C16   1.462943 S    
C57   C58   1.397418 A    
C41   C42   1.389930 A    
C8    H8    1.080443 S    
C55   C60   1.405491 A    
C12   C34   1.417035 A    
C57   H26   1.082370 S    
C14   H3    1.083036 S    
Zn2   N3    2.008158 S    
C9    C10   1.384373 A    
C41   C46   1.364404 A    
O3    Zn1   2.013273 S    
C62   C63   1.411500 A    
C55   C56   1.405688 A    
C45   C46   1.393809 A    
C50   C51   1.418564 A    
C23   C24   1.408135 A    
C33   C36   1.413226 A    
C66   H34   1.082205 S    
C34   C35   1.415384 A    
C31   C32   1.397569 A    
C12   C13   1.410203 A    
C43   C44   1.377017 A    
C44   H15   1.083410 S    
C53   C54   1.514076 S    
C48   H17   1.112284 S    
C36   H7    1.076479 S    
C47   C48   1.528064 S    
C27   O10   1.350167 S    
C8    C16   1.402834 A    
C33   C34   1.421904 A    
C18   C33   1.417024 A    
C50   H19   1.080723 S    
C9    H1    1.076895 S    
C54   H23   1.110812 S    
O1    C1    1.283660 A    
C20   C24   1.416133 A    
C67   H35   1.083061 S    
C22   C23   1.394742 A    
C21   H6    1.076626 S    
C53   H21   1.112030 S    
C49   N3    1.360856 A    
C3    C45   1.417422 S    
Zn2   O8    2.013273 S    
N1    C6    1.364895 A    
C37   C40   1.395139 A    
C60   H29   1.081513 S    
N2    C32   1.424101 S    
C40   H13   1.078757 S    
N3    C50   1.367054 A    
O3    C2    1.294026 A    
C25   C26   1.399135 A    
C9    C16   1.399451 A    
O8    C4    1.292970 A    
C29   H4    1.083568 S    
C56   C57   1.398912 A    
C51   N4    1.366774 A    
C35   C40   1.409950 A    
O16   H36   1.013864 S    
O4    Zn2   2.007521 S    
N2    C27   1.365061 A    
C26   O12   1.349816 S    
C14   C36   1.383462 A    
C31   H12   1.083290 S    
C24   C25   1.409134 A    
C28   C29   1.401495 A    
C7    C11   1.410709 A    
C63   C64   1.398741 A    
C59   H28   1.082363 S    
Zn1   O5    1.996695 S    
C49   C52   1.404238 A    
C30   C31   1.384160 A    
C10   H2    1.083404 S    
C41   C48   1.492924 S    
O1    Zn1   1.993039 S    
C17   C30   1.399580 A    
O2    Zn2   1.996696 S    
C6    C15   1.410594 A    
C64   H32   1.082424 S    
C4    C17   1.461044 S    
C43   H14   1.083741 S    
O6    C3    1.279054 A    
C48   H18   1.112691 S    
C28   C68   1.492926 S    
C19   C35   1.416180 A    
C37   C61   1.483756 S    
O2    C1    1.279338 A    
C13   C14   1.394088 A    
C42   C43   1.400933 A    
C15   C37   1.415286 A    
C53   H22   1.110891 S    
C52   C53   1.488002 S    
O4    C2    1.292869 A    
C5    O9    1.350506 S    
C58   C59   1.397140 A    
C18   C20   1.419504 A    
C61   O14   1.398660 S    
C19   C38   1.415176 A    
C38   C39   1.386846 A    
C5    C13   1.394109 A    
C63   H31   1.081924 S    
C22   H5    1.083633 S    
C38   H9    1.077875 S    
C23   C27   1.397492 A    
Zn2   O6    1.993038 S    
C65   H33   1.082459 S    
C10   C11   1.395834 A    
C47   C62   1.518705 S    
C65   C66   1.396664 A    
N4    C52   1.363136 A    
C28   C32   1.414774 A    
