data_mof_unit_61650.cif
_audit_creation_date              2013-03-05T15:41:20-0500
_audit_creation_method            fapswitch 2.2
_symmetry_space_group_name_H-M    P1
_symmetry_Int_Tables_number       1
_space_group_crystal_system       triclinic
_cell_length_a                    18.935977
_cell_length_b                    18.528848
_cell_length_c                    18.579781
_cell_angle_alpha                 108.215068
_cell_angle_beta                  109.837272
_cell_angle_gamma                 109.067977
_cell_volume                      5096.03479972

loop_
_atom_site_label
_atom_site_type_symbol
_atom_site_description
_atom_site_fract_x
_atom_site_fract_y
_atom_site_fract_z
_atom_type_partial_charge
O1    O     O_R   0.591160 0.539400 0.449620 -0.634117
O2    O     O_R   0.589730 0.641530 0.550350 -0.567268
C1    C     C_R   0.614716 0.618689 0.495315 0.971662
O3    O     O_R   0.408980 0.448930 0.357910 -0.650824
O4    O     O_R   0.407550 0.551060 0.458650 -0.593266
C2    C     C_R   0.381294 0.500963 0.379716 0.922135
Zn1   Zn    Zn3+2 0.500950 0.431810 0.432740 0.974393
Zn2   Zn    Zn3+2 0.499050 0.568190 0.567260 1.069791
O5    O     O_R   0.410270 0.358470 0.449650 -0.626859
O6    O     O_R   0.408840 0.460600 0.550380 -0.622293
O7    O     O_R   0.592450 0.448940 0.541350 -0.625374
O8    O     O_R   0.591020 0.551070 0.642090 -0.569506
C3    C     C_R   0.385021 0.380772 0.503919 0.905857
C4    C     C_R   0.624033 0.503404 0.620577 0.985838
C5    C     C_3   0.313790 0.578641 0.304430 0.333117
C6    C     C_3   0.221955 0.546410 0.289774 -0.262369
H1    H     H_    0.196320 0.586352 0.318568 0.163403
C7    C     C_3   0.190450 0.496183 0.192069 -0.142437
C8    C     C_3   0.282689 0.531172 0.206979 -0.253659
C9    C     C_3   0.281813 0.449925 0.213897 0.113498
C10   C     C_3   0.188822 0.414633 0.197821 0.201868
C11   C     C_3   0.221782 0.465111 0.296527 0.088435
C12   C     C_3   0.314482 0.499557 0.312342 -0.224310
H2    H     H_    0.306717 0.559558 0.170112 0.182825
C13   C     C_2   0.746327 0.824588 0.501390 -0.299586
C14   C     C_2   0.822447 0.826916 0.519688 0.144891
H3    H     H_    0.730188 0.867260 0.478452 0.173949
C15   C     C_2   0.682195 0.762745 0.509678 -0.039393
C16   C     C_2   0.670034 0.681740 0.482326 -0.248274
H4    H     H_    0.645523 0.783268 0.537167 0.201690
H5    H     H_    0.700885 0.660090 0.446927 0.170884
C17   C     C_2   0.837237 0.584642 0.815857 0.109393
C18   C     C_2   0.821795 0.517906 0.834636 -0.421377
H6    H     H_    0.755837 0.472229 0.812126 0.158218
C19   C     C_2   0.761023 0.585853 0.759851 0.347906
C20   C     C_2   0.701519 0.513003 0.684179 -0.510202
H7    H     H_    0.713821 0.458551 0.664914 0.152395
C21   C     C_2   0.252485 0.255265 0.577831 -0.294622
C22   C     C_2   0.177100 0.197358 0.504408 0.163365
H8    H     H_    0.268337 0.248398 0.636401 0.163747
C23   C     C_2   0.316315 0.327743 0.579901 -0.100178
C24   C     C_2   0.329369 0.312786 0.511688 -0.256441
H9    H     H_    0.352336 0.391600 0.636530 0.172825
H10   H     H_    0.299379 0.246790 0.459875 0.169836
O9    O     O_R   0.954670 0.539370 0.096190 -0.562597
O10   O     O_R   0.056790 0.641480 0.096140 -0.652526
C25   C     C_R   0.007754 0.618680 0.127564 0.849636
O11   O     O_R   0.047640 0.448900 0.098680 -0.639301
O12   O     O_R   0.149770 0.551010 0.098640 -0.616471
C26   C     C_R   0.125938 0.498675 0.126567 0.898457
Zn3   Zn    Zn3+2 0.938780 0.431770 0.006970 1.011647
Zn4   Zn    Zn3+2 0.075160 0.568130 0.006910 0.955431
O13   O     O_R   0.957150 0.358410 0.917750 -0.624028
O14   O     O_R   0.059270 0.460520 0.917700 -0.614784
O15   O     O_R   0.864170 0.448890 0.915250 -0.601324
O16   O     O_R   0.966300 0.551000 0.915200 -0.638642
C27   C     C_R   0.005958 0.380773 0.886975 0.924875
C28   C     C_R   0.887087 0.504373 0.889195 0.962373
O17   O     O_R   0.946940 0.090450 0.537440 -0.617187
O18   O     O_R   0.050520 0.090460 0.641000 -0.625781
C29   C     C_R   0.000860 0.121073 0.617799 0.915130
O19   O     O_R   0.857760 0.909540 0.448230 -0.631061
O20   O     O_R   0.961340 0.909540 0.551790 -0.566517
C30   C     C_R   0.882266 0.883088 0.503807 0.862642
Zn5   Zn    Zn3+2 0.930840 1.000000 0.430850 1.035404
Zn6   Zn    Zn3+2 0.069160 0.000000 0.569150 1.014672
O21   O     O_R   0.949480 0.909540 0.359000 -0.601463
O22   O     O_R   0.053060 0.909550 0.462560 -0.613363
O23   O     O_R   0.038660 0.090460 0.448210 -0.572280
O24   O     O_R   0.142240 0.090460 0.551770 -0.646147
C31   C     C_R   0.005803 0.885738 0.382414 0.967875
C32   C     C_R   0.117665 0.121568 0.500822 0.821591
C33   C     C_2   0.081661 0.814190 0.337102 -0.089752
C34   C     C_2   0.018512 0.834461 0.316541 -0.292883
H11   H     H_    0.128477 0.840161 0.404572 0.179822
H12   H     H_    0.974968 0.812781 0.248982 0.178752
C35   C     C_2   0.085908 0.753188 0.267556 0.025921
C36   C     C_2   0.011431 0.680488 0.201826 0.077336
C37   C     C_2   0.990586 0.252814 0.674570 -0.145470
C38   C     C_2   0.009226 0.192388 0.686246 -0.322998
H13   H     H_    0.968891 0.251268 0.611695 0.175661
H14   H     H_    0.040563 0.199836 0.751122 0.161263
C39   C     C_2   0.005065 0.325431 0.749454 -0.145931
C40   C     C_2   0.996207 0.313212 0.813843 -0.332277
H15   H     H_    0.019416 0.387430 0.750006 0.168783
H16   H     H_    0.971216 0.248761 0.808243 0.159675
C41   C     C_3   0.927669 0.652471 0.845502 -0.384778
C42   C     C_3   0.932754 0.718124 0.811270 -0.715962
H17   H     H_    0.891701 0.684498 0.739408 0.283009
H18   H     H_    0.913916 0.764311 0.842728 0.300032
H19   H     H_    0.000026 0.756552 0.827473 0.236779
H20   H     H_    0.964344 0.689007 0.917777 0.235658
H21   H     H_    0.959987 0.618171 0.821782 0.222819
N1    N     N_R   0.752936 0.663076 0.787202 0.223939
O25   O     O_R   0.776766 0.708200 0.868671 -0.369463
O26   O     O_R   0.739506 0.697613 0.736189 -0.351017
N2    N     N_R   0.147351 0.214511 0.432220 0.214422
O27   O     O_R   0.105369 0.151621 0.352718 -0.391986
O28   O     O_R   0.152018 0.289648 0.445783 -0.400037
N3    N     N_R   0.381474 0.668770 0.360782 0.217303
O29   O     O_R   0.369279 0.729732 0.347793 -0.400277
O30   O     O_R   0.456027 0.688364 0.419637 -0.414481
C43   C     C_3   0.172177 0.771923 0.271229 -0.380883
C44   C     C_3   0.250494 0.847966 0.356540 -0.791382
H22   H     H_    0.246725 0.908902 0.368998 0.249204
H23   H     H_    0.255353 0.834269 0.411612 0.261913
H24   H     H_    0.309573 0.857313 0.352121 0.283909
H25   H     H_    0.180061 0.713272 0.261464 0.223812
H26   H     H_    0.172842 0.786771 0.217920 0.233827
N4    N     N_R   0.934708 0.653359 0.209392 0.209633
O31   O     O_R   0.860209 0.620263 0.141825 -0.363220
O32   O     O_R   0.937873 0.648841 0.278866 -0.357362
C45   C     C_3   0.322180 0.401779 0.173773 -0.344806
C46   C     C_3   0.280732 0.366712 0.075420 -0.871629
H27   H     H_    0.213265 0.315106 0.042525 0.259417
H28   H     H_    0.282845 0.419587 0.058633 0.262648
H29   H     H_    0.316255 0.338177 0.050730 0.258667
H30   H     H_    0.391423 0.447784 0.203571 0.219110
H31   H     H_    0.317014 0.347538 0.188885 0.219204
C47   C     C_3   0.111851 0.323671 0.132028 -0.393604
C48   C     C_3   0.124912 0.252237 0.148637 -0.816715
H32   H     H_    0.178463 0.247746 0.139597 0.255754
H33   H     H_    0.137975 0.263985 0.215195 0.276606
H34   H     H_    0.065724 0.188893 0.101480 0.262561
H35   H     H_    0.053739 0.321824 0.134763 0.223872
H36   H     H_    0.099672 0.310563 0.065293 0.199593
C49   C     C_3   0.195203 0.434317 0.355355 -0.360566
C50   C     C_3   0.101144 0.406724 0.328521 -0.747976
H37   H     H_    0.086105 0.458375 0.322467 0.249112
H38   H     H_    0.058721 0.345672 0.265960 0.257761
H39   H     H_    0.087877 0.394878 0.378729 0.277806
H40   H     H_    0.207784 0.379761 0.354787 0.225965
H41   H     H_    0.235414 0.488657 0.423090 0.224742
N5    N     N_R   0.852245 0.784243 0.566503 0.212519
O33   O     O_R   0.895860 0.747657 0.546678 -0.365550
O34   O     O_R   0.845859 0.791906 0.635803 -0.353627

loop_
_geom_bond_atom_site_label_1
_geom_bond_atom_site_label_2
_geom_bond_distance
_ccdc_geom_bond_type
Zn6   O22   2.001293 S    
C41   C42   1.530477 S    
C18   C28   1.459417 S    
C7    C10   1.538944 S    
C23   H9    1.086083 S    
C23   C24   1.334895 D    
C19   C20   1.346469 D    
C5    N3    1.457884 S    
C50   H37   1.110533 S    
C44   H23   1.110643 S    
C46   H27   1.107502 S    
C35   C36   1.362457 D    
C49   H40   1.109536 S    
C13   C15   1.462729 S    
Zn1   O7    2.010518 S    
C34   H12   1.087544 S    
O4    C2    1.269714 A    
C15   C16   1.334905 D    
C21   H8    1.086419 S    
C40   H16   1.086531 S    
C10   C47   1.535252 S    
C4    C20   1.449919 S    
C9    C45   1.533752 S    
O7    C4    1.273736 A    
C47   H36   1.109339 S    
C22   N2    1.444969 S    
O9    Zn3   2.004168 S    
C29   C38   1.436807 S    
C5    C6    1.534047 S    
O10   Zn4   2.002084 S    
C7    C8    1.538598 S    
C33   C34   1.337928 D    
C1    C16   1.438247 S    
O5    C3    1.269578 A    
N4    O31   1.301401 A    
C44   H22   1.110854 S    
C48   H34   1.110177 S    
O19   C30   1.289048 A    
C45   H31   1.108727 S    
O11   Zn3   2.025812 S    
C8    C9    1.545693 S    
C6    H1    1.110401 S    
Zn5   O21   2.005887 S    
C22   C32   1.449531 S    
C9    C12   1.543596 S    
C43   H25   1.112344 S    
O21   C31   1.278138 A    
C5    C12   1.521481 S    
O20   Zn6   2.015193 S    
O18   Zn6   2.005884 S    
C10   C11   1.548242 S    
C33   H11   1.085732 S    
C24   H10   1.088042 S    
O3    Zn1   2.014925 S    
C3    C24   1.437978 S    
N2    O28   1.301806 A    
Zn4   O14   2.004211 S    
N2    O27   1.301328 A    
O9    C25   1.269397 A    
C21   C22   1.346283 D    
O17   C29   1.284855 A    
C17   C19   1.477359 S    
C21   C23   1.463389 S    
C38   H14   1.086798 S    
C37   H13   1.086253 S    
O13   C27   1.268622 A    
C47   H35   1.108643 S    
N5    O34   1.302006 A    
C13   C14   1.346368 D    
C17   C41   1.528463 S    
C37   C38   1.335412 D    
O18   C29   1.272041 A    
O1    C1    1.270105 A    
O23   C32   1.271889 A    
C5    C8    1.530042 S    
C14   N5    1.445163 S    
C31   C34   1.442518 S    
C39   C40   1.338402 D    
C42   H19   1.110585 S    
Zn2   O8    2.014926 S    
O12   Zn4   1.999490 S    
N3    O30   1.299910 A    
C18   H6    1.088419 S    
C27   C40   1.436238 S    
C36   N4    1.445264 S    
C42   H17   1.110960 S    
N1    O26   1.301710 A    
C48   H32   1.106999 S    
O3    C2    1.264407 A    
C39   H15   1.086457 S    
C42   H18   1.108834 S    
C35   C43   1.527342 S    
C49   C50   1.524876 S    
C50   H39   1.110204 S    
C47   C48   1.525029 S    
C7    C26   1.427760 S    
C45   C46   1.525962 S    
C19   N1    1.438901 S    
Zn1   O5    2.000571 S    
O10   C25   1.283509 A    
C20   H7    1.088443 S    
C6    C11   1.549253 S    
O19   Zn5   1.988674 S    
O1    Zn1   2.002750 S    
Zn2   O6    2.002749 S    
O2    Zn2   2.000575 S    
C49   H41   1.110820 S    
O8    C4    1.280712 A    
O20   C30   1.272163 A    
O6    C3    1.279860 A    
C50   H38   1.107513 S    
O4    Zn2   2.010517 S    
C46   H28   1.110232 S    
N5    O33   1.301331 A    
C14   C30   1.449798 S    
C13   H3    1.086427 S    
C43   H26   1.110602 S    
C17   C18   1.356107 D    
C15   H4    1.086042 S    
O2    C1    1.279529 A    
C16   H5    1.087997 S    
O17   Zn5   2.001292 S    
C37   C39   1.466659 S    
C11   C49   1.532686 S    
Zn6   O24   1.988673 S    
O22   C31   1.280524 A    
Zn5   O23   2.015193 S    
C2    C12   1.432307 S    
C41   H21   1.111168 S    
O11   C26   1.266393 A    
N3    O29   1.300176 A    
O16   C28   1.276805 A    
C8    H2    1.110502 S    
Zn3   O15   1.999365 S    
N1    O25   1.301003 A    
N4    O32   1.301972 A    
C48   H33   1.107588 S    
C46   H29   1.110233 S    
C45   H30   1.111012 S    
C9    C10   1.544705 S    
C6    C7    1.537370 S    
O12   C26   1.265211 A    
O15   C28   1.281305 A    
C43   C44   1.529751 S    
C33   C35   1.473278 S    
C11   C12   1.541321 S    
O24   C32   1.289272 A    
C25   C36   1.454295 S    
Zn3   O13   2.002049 S    
C41   H20   1.111487 S    
C44   H24   1.110372 S    
Zn4   O16   2.025813 S    
O14   C27   1.278768 A    
