data_mof_unit_67933.cif
_audit_creation_date              2013-03-05T16:14:17-0500
_audit_creation_method            fapswitch 2.2
_symmetry_space_group_name_H-M    P1
_symmetry_Int_Tables_number       1
_space_group_crystal_system       triclinic
_cell_length_a                    10.929524
_cell_length_b                    10.587953
_cell_length_c                    10.294861
_cell_angle_alpha                 91.858825
_cell_angle_beta                  92.728361
_cell_angle_gamma                 92.093976
_cell_volume                      1188.49227473

loop_
_atom_site_label
_atom_site_type_symbol
_atom_site_description
_atom_site_fract_x
_atom_site_fract_y
_atom_site_fract_z
_atom_type_partial_charge
O1    O     O_R   0.499990 0.316750 0.614620 -0.597041
O2    O     O_R   0.500010 0.683250 0.385380 -0.597072
O3    O     O_R   0.499990 0.316780 0.385290 -0.555749
O4    O     O_R   0.500010 0.683220 0.614710 -0.555677
C1    C     C_R   0.500907 0.261886 0.497979 0.970190
C2    C     C_R   0.499109 0.738115 0.502019 0.970608
O5    O     O_R   0.316760 0.500000 0.614660 -0.515842
O6    O     O_R   0.683240 0.500000 0.385340 -0.515790
O7    O     O_R   0.316760 0.500020 0.385330 -0.636410
O8    O     O_R   0.683240 0.499980 0.614670 -0.636408
C3    C     C_R   0.261137 0.505118 0.497435 0.922596
C4    C     C_R   0.738862 0.494872 0.502567 0.922879
Zn1   Zn    Zn3+2 0.500000 0.499980 0.653120 1.115609
Zn2   Zn    Zn3+2 0.500000 0.500020 0.346880 1.115560
C5    C     C_R   0.167386 0.584408 0.078350 0.096790
C6    C     C_R   0.832600 0.415620 0.921670 0.096801
C7    C     C_R   0.127858 0.580194 0.204399 0.189712
C8    C     C_R   0.872137 0.419827 0.795624 0.189581
C9    C     C_R   0.096636 0.462656 0.256273 -0.195755
C10   C     C_R   0.903360 0.537362 0.743742 -0.195748
C11   C     C_R   0.102859 0.349775 0.183387 0.239081
C12   C     C_R   0.897121 0.650249 0.816620 0.239205
C13   C     C_R   0.133556 0.353662 0.053297 0.182670
C14   C     C_R   0.866396 0.646370 0.946704 0.182608
C15   C     C_R   0.167877 0.471495 0.000097 0.001710
C16   C     C_R   0.832095 0.528537 0.999912 0.001743
C17   C     C_R   0.929049 0.442433 0.398610 -0.026512
C18   C     C_R   0.070950 0.557574 0.601400 -0.026561
H1    H     H_    0.876114 0.394856 0.320224 0.235811
H2    H     H_    0.123887 0.605154 0.679783 0.235802
C19   C     C_R   0.872576 0.489520 0.506729 -0.060494
C20   C     C_R   0.127423 0.510481 0.493282 -0.060516
C21   C     C_R   0.946031 0.538937 0.612530 0.106392
C22   C     C_R   0.053967 0.461073 0.387482 0.106300
C23   C     C_R   0.597664 0.066307 0.443733 0.229785
C24   C     C_R   0.402422 0.933712 0.556263 0.229712
C25   C     C_R   0.600188 0.936062 0.451202 0.208396
C26   C     C_R   0.399938 0.063938 0.548830 0.208615
C27   C     C_R   0.502326 0.871547 0.506950 -0.306789
C28   C     C_R   0.497750 0.128456 0.493044 -0.306833
C29   C     C_R   0.531283 0.605624 0.076782 -0.036000
C30   C     C_R   0.468708 0.394378 0.923217 -0.035889
H3    H     H_    0.557700 0.691572 0.132377 0.221006
H4    H     H_    0.442286 0.308432 0.867623 0.221189
C31   C     C_R   0.532647 0.605982 0.936805 0.330699
C32   C     C_R   0.467343 0.394021 0.063194 0.330704
N1    N     N_R   0.499970 0.499970 0.857200 -0.131187
N2    N     N_R   0.500030 0.500030 0.142800 -0.131154
N3    N     N_R   0.209997 0.477697 0.870961 0.186850
O9    O     O_R   0.275234 0.575613 0.838950 -0.345427
O10   O     O_R   0.189340 0.385169 0.786063 -0.303249
N4    N     N_R   0.789986 0.522336 0.129052 0.186854
O11   O     O_R   0.724759 0.424416 0.161070 -0.345420
O12   O     O_R   0.810670 0.614854 0.213957 -0.303350
Br1   Br    Br    0.581377 0.764295 0.868348 -0.265472
Br2   Br    Br    0.418576 0.235718 0.131652 -0.265468
N5    N     N_R   0.204048 0.705161 0.030113 0.298996
O13   O     O_R   0.136795 0.758027 0.941534 -0.258804
O14   O     O_R   0.308496 0.759462 0.069338 -0.280734
N6    N     N_R   0.795938 0.294869 0.969914 0.299010
O15   O     O_R   0.863183 0.242014 0.058506 -0.258820
O16   O     O_R   0.691468 0.240590 0.930729 -0.280749
N7    N     N_R   0.122665 0.695873 0.281164 0.247819
O17   O     O_R   0.021163 0.727899 0.332006 -0.231355
O18   O     O_R   0.221678 0.765658 0.307278 -0.310157
N8    N     N_R   0.877339 0.304143 0.718870 0.247799
O19   O     O_R   0.978832 0.272139 0.667994 -0.231377
O20   O     O_R   0.778350 0.234293 0.692855 -0.309984
Br3   Br    Br    0.074084 0.189914 0.265346 -0.111899
Br4   Br    Br    0.925910 0.810106 0.734660 -0.111895
Br5   Br    Br    0.129194 0.194208 0.955920 -0.080476
Br6   Br    Br    0.870656 0.805834 0.044062 -0.080798
N9    N     N_R   0.699599 0.135618 0.393634 0.221959
O21   O     O_R   0.686725 0.188282 0.281802 -0.246604
O22   O     O_R   0.809535 0.123015 0.444522 -0.231994
N10   N     N_R   0.300462 0.864463 0.606395 0.221950
O23   O     O_R   0.313363 0.811703 0.718173 -0.246605
O24   O     O_R   0.190503 0.877297 0.555670 -0.231860
N11   N     N_R   0.700528 0.869365 0.399981 0.261613
O25   O     O_R   0.755389 0.784801 0.467910 -0.328121
O26   O     O_R   0.739509 0.895676 0.286321 -0.211959
N12   N     N_R   0.299751 0.130633 0.600333 0.261633
O27   O     O_R   0.261641 0.104882 0.714512 -0.212885
O28   O     O_R   0.244349 0.214789 0.532309 -0.327346

loop_
_geom_bond_atom_site_label_1
_geom_bond_atom_site_label_2
_geom_bond_distance
_ccdc_geom_bond_type
N8    O20   1.300107 A    
N7    O18   1.300109 A    
C17   H1    1.071249 S    
C29   H3    1.081817 S    
N9    O21   1.299291 A    
O5    C3    1.328805 A    
C25   N11   1.437682 S    
O1    C1    1.317488 A    
C9    C11   1.395969 A    
C14   C16   1.423671 A    
C6    N6    1.436852 S    
C5    C15   1.420102 A    
N6    O16   1.299957 A    
C30   C32   1.441958 A    
O4    Zn1   1.992549 S    
C24   N10   1.437146 S    
N3    O10   1.297747 A    
C19   C21   1.397768 A    
N8    O19   1.300352 A    
C26   N12   1.437461 S    
C5    N5    1.436840 S    
O2    C2    1.317470 A    
C30   H4    1.081816 S    
N4    O12   1.297750 A    
C31   N1    1.393641 A    
C17   C22   1.383020 A    
C6    C16   1.420089 A    
C32   N2    1.393641 A    
C17   C19   1.385760 A    
C13   Br5   1.933227 S    
C18   C20   1.385779 A    
N10   O23   1.299279 A    
O4    C2    1.314125 A    
N11   O26   1.299315 A    
Zn2   N2    2.100994 S    
C9    C22   1.450252 S    
N11   O25   1.300063 A    
C11   Br3   1.937718 S    
N6    O15   1.297893 A    
C20   C22   1.397735 A    
O7    Zn2   2.059872 S    
C16   N4    1.430150 S    
O6    C4    1.328829 A    
O7    C3    1.330266 A    
O3    Zn2   1.992547 S    
O8    C4    1.330246 A    
C10   C21   1.450288 S    
C10   C12   1.395995 A    
C3    C20   1.463253 S    
N3    O9    1.297044 A    
N12   O28   1.300216 A    
C11   C13   1.397569 A    
C4    C19   1.463245 S    
C12   C14   1.397590 A    
O1    Zn1   1.967463 S    
N9    O22   1.300881 A    
N4    O11   1.297040 A    
C14   Br6   1.933257 S    
Zn1   N1    2.100994 S    
C5    C7    1.388620 A    
C23   N9    1.437118 S    
O6    Zn2   2.022924 S    
C23   C25   1.384856 A    
C24   C27   1.402433 A    
N10   O24   1.300878 A    
O3    C1    1.314098 A    
O8    Zn1   2.059870 S    
C18   C21   1.383039 A    
C8    N8    1.440296 S    
C18   H2    1.071245 S    
C23   C28   1.402440 A    
C25   C27   1.403743 A    
C7    N7    1.440299 S    
C26   C28   1.403514 A    
N5    O13   1.297896 A    
C24   C26   1.384606 A    
C7    C9    1.407059 A    
C29   N2    1.368235 A    
C8    C10   1.407070 A    
C30   N1    1.368234 A    
C13   C15   1.423684 A    
O2    Zn2   1.967463 S    
C15   N3    1.430159 S    
N5    O14   1.299958 A    
N7    O17   1.300351 A    
O5    Zn1   2.022926 S    
C31   Br1   1.907137 S    
C6    C8    1.388623 A    
N12   O27   1.299474 A    
C1    C28   1.411121 S    
C32   Br2   1.907143 S    
C29   C31   1.441954 A    
C2    C27   1.411125 S    
C12   Br4   1.937706 S    
