data_mof_unit_22810.cif
_audit_creation_date              2012-10-26T19:02:58-0400
_audit_creation_method            fapswitch 2.2
_symmetry_space_group_name_H-M    P1
_symmetry_Int_Tables_number       1
_space_group_crystal_system       triclinic
_cell_length_a                    15.129403
_cell_length_b                    11.146335
_cell_length_c                    9.900243
_cell_angle_alpha                 112.173632
_cell_angle_beta                  99.776177
_cell_angle_gamma                 88.133608
_cell_volume                      1522.71839877

loop_
_atom_site_label
_atom_site_type_symbol
_atom_type_description
_atom_site_fract_x
_atom_site_fract_y
_atom_site_fract_z
_atom_type_partial_charge
C1    C     C_R   0.488470 0.254709 0.440096 0.532062
C2    C     C_2   0.489983 0.496886 0.919500 0.160720
C3    C     C_R   0.329190 0.506336 0.501563 0.529614
C4    C     C_R   0.670787 0.495118 0.498979 0.529516
C5    C     C_R   0.806258 0.601426 0.478195 0.256545
C6    C     C_R   0.192197 0.408044 0.527554 0.254127
C7    C     C_R   0.767441 0.499909 0.502740 -0.031792
C8    C     C_R   0.232503 0.507639 0.501964 -0.042030
C9    C     C_R   0.821007 0.405160 0.534926 -0.067954
C10   C     C_R   0.181926 0.610570 0.483986 -0.053814
C11   C     C_R   0.915545 0.417204 0.554083 -0.035519
C12   C     C_R   0.505924 0.746212 0.559910 0.538299
C13   C     C_R   0.088114 0.612937 0.487517 0.010084
C14   C     C_R   0.954451 0.512348 0.517577 -0.101906
C15   C     C_R   0.048000 0.513403 0.516190 -0.109530
C16   C     C_R   0.899639 0.604714 0.479740 0.071640
C17   C     C_R   0.101189 0.414857 0.544093 0.057557
C18   C     C_R   0.972215 0.334243 0.606100 0.218762
C19   C     C_R   0.033239 0.712858 0.465993 0.220651
C20   C     C_R   0.777770 0.282707 0.522468 0.051038
C21   C     C_R   0.789215 0.166888 0.404697 -0.071133
C22   C     C_R   0.753032 0.049877 0.395393 -0.085214
C23   C     C_R   0.062739 0.325709 0.590042 0.325343
C24   C     C_R   0.703965 0.048013 0.502021 -0.087145
C25   C     C_R   0.692496 0.162963 0.619569 -0.094851
C26   C     C_R   0.730222 0.279535 0.631119 -0.062575
C27   C     C_R   0.227318 0.717025 0.464194 0.096687
C28   C     C_R   0.219778 0.719894 0.322054 0.005723
C29   C     C_R   0.233082 0.837068 0.306075 -0.021239
C30   C     C_R   0.256013 0.950503 0.431493 -0.007759
C31   C     C_R   0.270125 0.945937 0.572599 -0.058728
C32   C     C_R   0.256330 0.829298 0.589054 -0.062332
C33   C     C_R   0.558979 0.969263 0.743034 0.009969
C34   C     C_R   0.939354 0.700733 0.446961 0.279070
C35   C     C_R   0.514629 0.054403 0.853693 -0.017965
C36   C     C_R   0.563481 0.133515 0.990154 -0.080256
C37   C     C_R   0.656141 0.122432 0.021335 -0.119937
C38   C     C_R   0.700047 0.031185 0.916346 -0.121696
C39   C     C_R   0.651672 0.954194 0.778299 -0.120751
C40   C     C_R   0.453817 0.031329 0.245880 0.040792
C41   C     C_R   0.365310 0.017521 0.169409 -0.057150
C42   C     C_R   0.343816 0.928359 0.023954 -0.121852
C43   C     C_R   0.410940 0.854930 0.953002 -0.104903
C44   C     C_R   0.499824 0.873390 0.026360 -0.085819
C45   C     C_2   0.473347 0.116265 0.404659 -0.030871
C46   C     C_R   0.521447 0.961410 0.172252 -0.115062
C47   C     C_2   0.508846 0.886606 0.594639 -0.016335
C48   C     C_2   0.468868 0.072320 0.514485 0.210187
C49   C     C_2   0.471710 0.932625 0.488564 0.213728
C50   C     C_2   0.507045 0.507335 0.081049 0.144912
Cu1   Cu    Cu3+1 0.515770 0.521810 0.644910 0.951590
Cu2   Cu    Cu3+1 0.484230 0.478190 0.355090 0.967132
H1    H     H_    0.431833 0.439133 0.847395 0.172522
H2    H     H_    0.196134 0.634485 0.224959 0.114198
H3    H     H_    0.223286 0.840610 0.196836 0.104849
H4    H     H_    0.264120 0.041690 0.419649 0.136082
H5    H     H_    0.288488 0.033675 0.669303 0.142879
H6    H     H_    0.259862 0.828960 0.698792 0.084162
H7    H     H_    0.905251 0.325311 0.750690 0.331165
H8    H     H_    0.032731 0.898146 0.507445 0.343745
H9    H     H_    0.078676 0.169674 0.637602 0.362227
H10   H     H_    0.917466 0.810318 0.331571 0.327864
H11   H     H_    0.477804 0.807041 0.296145 0.336060
H12   H     H_    0.561044 0.573123 0.155668 0.153874
H13   H     H_    0.404018 0.209816 0.637579 0.346334
H14   H     H_    0.442281 0.059962 0.834404 0.153913
H15   H     H_    0.529147 0.200871 0.073214 0.176957
H16   H     H_    0.693503 0.183047 0.127645 0.120377
H17   H     H_    0.771640 0.020633 0.941475 0.127919
H18   H     H_    0.686885 0.884513 0.698235 0.121915
H19   H     H_    0.312781 0.074003 0.223273 0.087919
H20   H     H_    0.275112 0.916051 0.966850 0.104926
H21   H     H_    0.394513 0.785869 0.840400 0.143897
H22   H     H_    0.552482 0.822570 0.969050 0.176071
H23   H     H_    0.695445 0.700733 0.481093 0.309475
H24   H     H_    0.590110 0.973151 0.227878 0.107853
H25   H     H_    0.647910 0.641392 0.886899 0.362766
H26   H     H_    0.366410 0.329267 0.105779 0.364545
H27   H     H_    0.289637 0.287612 0.478143 0.295689
H28   H     H_    0.827030 0.167276 0.321245 0.102838
H29   H     H_    0.762099 0.960864 0.304552 0.148008
H30   H     H_    0.674426 0.957562 0.492461 0.128882
H31   H     H_    0.654467 0.162820 0.702333 0.168175
H32   H     H_    0.724063 0.366412 0.726385 0.151836
N1    N     N_2   0.460520 0.445420 0.137370 -0.107428
N2    N     N_2   0.539480 0.554580 0.862630 -0.116933
O1    O     O_R   0.508410 0.332340 0.577400 -0.470603
O2    O     O_3   0.240664 0.303079 0.536893 -0.657775
O3    O     O_3   0.942628 0.266411 0.682015 -0.706192
O4    O     O_3   0.070931 0.823766 0.465588 -0.725267
O5    O     O_3   0.116271 0.236945 0.629528 -0.621835
O6    O     O_3   0.885829 0.782806 0.395522 -0.640475
O7    O     O_3   0.429381 0.848106 0.352648 -0.699945
O8    O     O_3   0.456146 0.157095 0.652311 -0.721907
O9    O     O_3   0.617621 0.609058 0.948106 -0.661159
O10   O     O_3   0.392873 0.366172 0.044499 -0.638785
O11   O     O_R   0.491590 0.667660 0.422600 -0.484959
O12   O     O_R   0.481780 0.295500 0.332650 -0.526818
O13   O     O_R   0.518220 0.704500 0.667350 -0.528315
O14   O     O_R   0.383570 0.518390 0.622380 -0.514432
O15   O     O_R   0.616430 0.481610 0.377620 -0.510248
O16   O     O_R   0.356940 0.481550 0.377630 -0.501193
O17   O     O_R   0.643060 0.518450 0.622370 -0.521535
O18   O     O_3   0.754924 0.698394 0.452097 -0.643753

loop_
_geom_bond_atom_site_label_1
_geom_bond_atom_site_label_2
_ccdc_geom_bond_type
C10   C27   S    
C43   H21   S    
C4    O17   A    
C11   C18   A    
C1    O1    A    
C23   O5    S    
C50   H12   S    
C41   C42   A    
C35   C36   A    
C32   H6    S    
C46   H24   S    
C36   H15   S    
C47   C49   D    
C40   C46   A    
Cu2   O16   S    
C29   C30   A    
C48   O8    S    
C36   C37   A    
C12   C47   S    
C30   C31   A    
C33   C35   A    
C11   C14   A    
Cu1   O17   S    
C37   H16   S    
Cu2   O11   S    
C6    O2    S    
C15   C17   A    
H7    O3    S    
C24   H30   S    
C12   O13   A    
C2    C50   S    
C50   N1    D    
C16   C34   A    
C3    O14   A    
H26   O10   S    
C5    C16   A    
H10   O6    S    
C10   C13   A    
C41   H19   S    
C38   H17   S    
C21   C22   A    
C4    C7    S    
Cu1   N2    S    
H27   O2    S    
C44   C46   A    
Cu1   O13   S    
C40   C45   S    
Cu2   O15   S    
C13   C19   A    
Cu1   Cu2   S    
C22   H29   S    
C24   C25   A    
C3    C8    S    
Cu1   O1    S    
C5    C7    A    
C28   H2    S    
C6    C8    A    
C29   H3    S    
C35   H14   S    
C25   C26   A    
C30   H4    S    
C2    H1    S    
C18   C23   A    
C43   C44   A    
C37   C38   A    
C9    C20   S    
C31   C32   A    
C17   C23   A    
C4    O15   A    
C42   H20   S    
C33   C39   A    
C44   H22   S    
C9    C11   A    
C12   O11   A    
C3    O16   A    
H13   O8    S    
Cu2   N1    S    
C13   C15   A    
H23   O18   S    
C33   C47   S    
C14   C16   A    
C42   C43   A    
C28   C29   A    
C45   C48   D    
Cu1   O14   S    
C7    C9    A    
C6    C17   A    
C40   C41   A    
C26   H32   S    
C27   C32   A    
C18   O3    S    
C19   C34   A    
C1    O12   A    
H8    O4    S    
H11   O7    S    
C31   H5    S    
C19   O4    S    
C1    C45   S    
C38   C39   A    
C20   C26   A    
C48   C49   S    
C21   H28   S    
Cu2   O12   S    
N1    O10   S    
C39   H18   S    
H25   O9    S    
C2    N2    D    
C22   C24   A    
C34   O6    S    
C5    O18   S    
N2    O9    S    
C20   C21   A    
C8    C10   A    
C27   C28   A    
C25   H31   S    
C14   C15   A    
C49   O7    S    
H9    O5    S    
