data_mof_unit_59142.cif
_audit_creation_date              2012-12-10T19:12:33-0500
_audit_creation_method            fapswitch 2.2
_symmetry_space_group_name_H-M    P1
_symmetry_Int_Tables_number       1
_space_group_crystal_system       triclinic
_cell_length_a                    15.720336
_cell_length_b                    10.642048
_cell_length_c                    9.700439
_cell_angle_alpha                 90.046419
_cell_angle_beta                  89.966627
_cell_angle_gamma                 89.745981
_cell_volume                      1622.83341465

loop_
_atom_site_label
_atom_site_type_symbol
_atom_type_description
_atom_site_fract_x
_atom_site_fract_y
_atom_site_fract_z
_atom_type_partial_charge
C1    C     C_R   0.501852 0.257563 0.500116 0.936661
C2    C     C_3   0.508190 0.928394 0.651484 -0.402944
C3    C     C_3   0.417882 0.073507 0.442080 -0.503392
C4    C     C_R   0.337778 0.499957 0.499987 0.904217
C5    C     C_3   0.576931 0.068848 0.406013 0.280460
C6    C     C_3   0.503821 0.121207 0.500413 0.058789
C7    C     C_3   0.502036 0.878554 0.501325 0.115431
C8    C     C_3   0.419337 0.929388 0.434281 -0.401853
C9    C     C_3   0.580874 0.924843 0.420476 -0.448241
C10   C     C_3   0.481509 0.372032 0.082313 -0.229984
C11   C     C_3   0.481905 0.370242 0.919799 -0.243369
C12   C     C_3   0.082671 0.498289 0.499815 0.103769
C13   C     C_3   0.432174 0.584793 0.080232 -0.240383
C14   C     C_3   0.581227 0.540747 0.081075 -0.227123
C15   C     C_3   0.432542 0.582943 0.917683 -0.231034
C16   C     C_R   0.500538 0.742425 0.500318 0.851978
C17   C     C_3   0.581597 0.539079 0.918740 -0.225702
C18   C     C_R   0.662195 0.500948 0.500034 0.997563
C19   C     C_3   0.972188 0.391279 0.558455 -0.200073
C20   C     C_3   0.028730 0.398106 0.427807 -0.112269
C21   C     C_1   0.248846 0.499301 0.499989 -0.207208
C22   C     C_1   0.751094 0.500103 0.499954 -0.088515
C23   C     C_3   0.971894 0.596045 0.569813 0.692068
C24   C     C_3   0.028069 0.491287 0.630692 -0.255259
C25   C     C_3   0.917209 0.497542 0.499004 0.071549
C26   C     C_3   0.027907 0.604812 0.440221 -0.233656
C27   C     C_3   0.972049 0.504522 0.368475 -0.226068
C28   C     C_1   0.173533 0.498711 0.499932 -0.036409
C29   C     C_1   0.826380 0.498875 0.499561 0.037913
C30   C     C_3   0.512655 0.070883 0.650638 -0.385840
F1    F     F_    0.940208 0.697687 0.642706 -0.656274
H1    H     H_    0.054419 0.316616 0.369356 0.152394
H2    H     H_    0.419239 0.337473 0.121063 0.142751
H3    H     H_    0.947300 0.304049 0.606151 0.190026
H4    H     H_    0.530512 0.305064 0.120901 0.153619
H5    H     H_    0.531085 0.302584 0.883050 0.154124
H6    H     H_    0.419787 0.335045 0.881167 0.144150
H7    H     H_    0.368295 0.556760 0.118323 0.155746
H8    H     H_    0.368777 0.554096 0.879929 0.156152
H9    H     H_    0.596294 0.636844 0.118871 0.146841
H10   H     H_    0.632841 0.478135 0.119441 0.176299
H11   H     H_    0.633453 0.475898 0.882152 0.168048
H12   H     H_    0.451618 0.898350 0.712161 0.176510
H13   H     H_    0.596684 0.634474 0.879009 0.150817
H14   H     H_    0.442695 0.682369 0.117509 0.143403
H15   H     H_    0.947087 0.509461 0.261571 0.171204
H16   H     H_    0.443056 0.679754 0.878289 0.143848
H17   H     H_    0.052442 0.692556 0.393192 0.160483
H18   H     H_    0.052734 0.487146 0.737816 0.157932
H19   H     H_    0.460240 0.108135 0.716613 0.165658
H20   H     H_    0.573212 0.101428 0.698471 0.223674
H21   H     H_    0.565835 0.890029 0.703655 0.184914
H22   H     H_    0.687277 0.218501 0.222651 0.338531
H23   H     H_    0.364419 0.104930 0.509345 0.186618
H24   H     H_    0.362524 0.891089 0.488146 0.170955
H25   H     H_    0.559042 0.089189 0.297159 0.065633
H26   H     H_    0.639111 0.894242 0.476453 0.214810
H27   H     H_    0.583552 0.881975 0.315789 0.154107
H28   H     H_    0.405901 0.112455 0.337310 0.172583
H29   H     H_    0.415860 0.899333 0.324455 0.174473
N1    N     N_3   0.498170 0.499750 0.138610 -0.037058
N2    N     N_3   0.498850 0.496730 0.861320 -0.037857
O1    O     O_R   0.499980 0.314910 0.616040 -0.630178
O2    O     O_2   0.750093 0.046238 0.399306 -0.284698
O3    O     O_3   0.689914 0.258692 0.314666 -0.555493
O4    O     O_R   0.500040 0.314680 0.383960 -0.629373
O5    O     O_R   0.376750 0.500100 0.616020 -0.625379
O6    O     O_R   0.376810 0.499870 0.383940 -0.625817
O7    O     O_R   0.499960 0.685320 0.616040 -0.641214
O8    O     O_R   0.500020 0.685090 0.383960 -0.640003
O9    O     O_R   0.623190 0.500130 0.616060 -0.625661
O10   O     O_R   0.623250 0.499900 0.383980 -0.596203
O11   O     O_2   0.691976 0.191070 0.571070 -0.310122
S1    S     S_3+6 0.680510 0.140127 0.427888 -0.002470
Zn1   Zn    Zn3+2 0.499960 0.500150 0.654960 0.921842
Zn2   Zn    Zn3+2 0.500040 0.499850 0.345040 0.928580

loop_
_geom_bond_atom_site_label_1
_geom_bond_atom_site_label_2
_ccdc_geom_bond_type
C13   H14   S    
C30   H20   S    
C22   C29   T    
O11   S1    D    
C5    H25   S    
C2    C7    S    
C15   H16   S    
O10   Zn2   S    
C11   N2    S    
O5    Zn1   S    
C7    C8    S    
C26   C27   S    
C12   C28   S    
C11   H5    S    
C5    C6    S    
C3    H23   S    
C18   O9    A    
C9    H27   S    
C23   C26   S    
C5    S1    S    
C11   H6    S    
C17   H11   S    
C19   C20   S    
C23   C24   S    
C10   H4    S    
H22   O3    S    
C26   H17   S    
C3    C6    S    
C30   H19   S    
C25   C29   S    
C14   C17   S    
C1    O1    A    
C8    H24   S    
N1    Zn2   S    
C18   O10   A    
C1    C6    S    
C16   O8    A    
C3    C8    S    
C4    O6    A    
C14   N1    S    
O3    S1    S    
C12   C26   S    
C23   F1    S    
C5    C9    S    
C17   N2    S    
C2    H12   S    
O4    Zn2   S    
C12   C20   S    
C1    O4    A    
C15   H8    S    
C13   H7    S    
C2    H21   S    
C14   H10   S    
C27   H15   S    
C7    C16   S    
C6    C30   S    
C21   C28   T    
C13   C15   S    
O8    Zn2   S    
N2    Zn1   S    
C10   N1    S    
C25   C27   S    
C20   H1    S    
C24   H18   S    
C7    C9    S    
C18   C22   S    
C16   O7    A    
C19   H3    S    
C4    O5    A    
C20   C27   S    
O6    Zn2   S    
C12   C24   S    
C2    C30   S    
C19   C24   S    
C17   H13   S    
C8    H29   S    
O9    Zn1   S    
C4    C21   S    
O1    Zn1   S    
C15   N2    S    
O7    Zn1   S    
C10   H2    S    
C9    H26   S    
C23   C25   S    
C19   C25   S    
C10   C11   S    
C14   H9    S    
C13   N1    S    
O2    S1    D    
C3    H28   S    
