data_mof_unit_59057.cif
_audit_creation_date              2012-12-10T17:21:39-0500
_audit_creation_method            fapswitch 2.2
_symmetry_space_group_name_H-M    P1
_symmetry_Int_Tables_number       1
_space_group_crystal_system       triclinic
_cell_length_a                    10.758257
_cell_length_b                    10.823543
_cell_length_c                    9.605593
_cell_angle_alpha                 89.757169
_cell_angle_beta                  89.57922
_cell_angle_gamma                 95.947112
_cell_volume                      1112.4349927

loop_
_atom_site_label
_atom_site_type_symbol
_atom_type_description
_atom_site_fract_x
_atom_site_fract_y
_atom_site_fract_z
_atom_type_partial_charge
C1    C     C_R   0.488846 0.261386 0.500051 0.829828
C2    C     C_3   0.877019 0.491232 0.499895 0.004279
C3    C     C_3   0.943546 0.619397 0.457944 -0.394032
C4    C     C_3   0.915109 0.390160 0.397991 -0.487067
C5    C     C_R   0.344357 0.111890 0.720153 -0.100442
C6    C     C_R   0.291767 0.042684 0.832385 -0.176682
C7    C     C_R   0.291859 0.914622 0.834105 -0.159678
C8    C     C_R   0.345101 0.855141 0.723938 -0.156736
C9    C     C_R   0.406454 0.923988 0.612884 0.100522
C10   C     C_R   0.407209 0.055320 0.611401 0.038290
C11   C     C_R   0.465865 0.124786 0.497936 -0.213889
C12   C     C_R   0.259336 0.492279 0.500304 0.804636
C13   C     C_R   0.497999 0.061735 0.376482 0.474286
C14   C     C_R   0.492722 0.933645 0.378376 -0.314908
C15   C     C_R   0.461045 0.865709 0.499165 -0.201492
C16   C     C_R   0.696518 0.658021 0.132018 0.522379
C17   C     C_R   0.799855 0.701002 0.046912 -0.302843
C18   C     C_R   0.788823 0.704432 0.905640 -0.318873
C19   C     C_R   0.680608 0.652719 0.845843 -0.130675
C20   C     C_R   0.590146 0.576105 0.921921 0.158699
C21   C     C_R   0.593703 0.576757 0.072053 0.092105
C22   C     C_R   0.413785 0.428032 0.075055 -0.035100
C23   C     C_R   0.485775 0.735115 0.500152 0.830506
C24   C     C_R   0.414830 0.427322 0.927574 -0.089472
C25   C     C_R   0.739572 0.496578 0.499802 0.850629
C26   C     C_3   0.062679 0.440697 0.644347 0.315224
C27   C     C_3   0.921587 0.457196 0.646665 -0.442483
C28   C     C_3   0.085594 0.620869 0.475056 -0.563050
C29   C     C_3   0.061954 0.400872 0.377128 0.971251
C30   C     C_3   0.119977 0.486605 0.499289 0.004912
Cu1   Cu    Cu3+1 0.499990 0.499990 0.640660 0.925105
Cu2   Cu    Cu3+1 0.500010 0.500010 0.359340 1.015893
H1    H     H_    0.108506 0.501004 0.727456 0.090374
H2    H     H_    0.861410 0.391060 0.300543 0.161059
H3    H     H_    0.133853 0.663870 0.381146 0.223885
H4    H     H_    0.923199 0.638294 0.347567 0.212863
H5    H     H_    0.328904 0.208375 0.717186 0.172291
H6    H     H_    0.247095 0.088172 0.916395 0.105275
H7    H     H_    0.331807 0.755052 0.725329 0.160960
H8    H     H_    0.521154 0.887940 0.285501 0.193231
H9    H     H_    0.862776 0.751980 0.842224 0.168532
H10   H     H_    0.674839 0.672717 0.738193 0.213912
H11   H     H_    0.346163 0.366830 0.873533 0.121648
H12   H     H_    0.865320 0.370748 0.682359 0.198079
H13   H     H_    0.904555 0.531577 0.721953 0.163184
H14   H     H_    0.116618 0.680460 0.565129 0.172137
N1    N     N_R   0.501200 0.501210 0.147910 -0.184267
N2    N     N_R   0.501250 0.501290 0.852040 -0.187867
O1    O     O_R   0.499990 0.319640 0.618810 -0.600383
O2    O     O_R   0.500000 0.319660 0.381240 -0.529282
O3    O     O_R   0.317680 0.499970 0.618790 -0.613237
O4    O     O_R   0.317700 0.499990 0.381210 -0.543036
O5    O     O_R   0.500000 0.680340 0.618760 -0.622820
O6    O     O_R   0.500010 0.680360 0.381190 -0.520007
O7    O     O_R   0.682300 0.500010 0.618790 -0.612561
O8    O     O_R   0.682320 0.500030 0.381210 -0.530612
O9    O     O_3   0.549319 0.125365 0.260735 -0.567324
C31   C     C_3   0.463453 0.111200 0.150040 -0.293412
H15   H     H_    0.454654 0.014831 0.109093 0.157261
H16   H     H_    0.498990 0.173642 0.063544 0.191437
H17   H     H_    0.369989 0.137934 0.181275 0.142592
H18   H     H_    0.246537 0.860656 0.918832 0.130317
H19   H     H_    0.343006 0.368759 0.130881 0.150928
O10   O     O_3   0.081824 0.314303 0.667062 -0.528556
C32   C     C_3   0.067245 0.281920 0.809448 -0.354366
H20   H     H_    0.974189 0.298416 0.851736 0.153585
H21   H     H_    0.140731 0.332794 0.873186 0.137825
H22   H     H_    0.075108 0.181179 0.820624 0.193760
O11   O     O_3   0.697887 0.696173 0.269469 -0.542161
C33   C     C_3   0.753803 0.819514 0.290293 -0.379850
H23   H     H_    0.725025 0.885181 0.210077 0.181888
H24   H     H_    0.857050 0.824088 0.293909 0.145229
H25   H     H_    0.724989 0.851429 0.393910 0.188612
H26   H     H_    0.886068 0.744356 0.089815 0.153770
H27   H     H_    0.909008 0.694203 0.522354 0.170974
O12   O     O_3   0.111022 0.457136 0.249082 -0.588109
C34   C     C_3   0.028954 0.458151 0.135186 -0.425343
H28   H     H_    0.960990 0.527005 0.150944 0.184924
H29   H     H_    0.981266 0.364916 0.111926 0.155569
H30   H     H_    0.084854 0.489097 0.041637 0.191880
O13   O     O_3   0.106733 0.282323 0.395493 -0.569986
C35   C     C_3   0.080472 0.202023 0.281720 -0.322542
H31   H     H_    0.137714 0.233777 0.189154 0.169126
H32   H     H_    0.979295 0.190039 0.256831 0.147701
H33   H     H_    0.107187 0.109033 0.310431 0.179476
H34   H     H_    0.883273 0.297625 0.444185 0.180315

loop_
_geom_bond_atom_site_label_1
_geom_bond_atom_site_label_2
_ccdc_geom_bond_type
C16   C21   A    
C5    H5    S    
C19   C20   A    
C1    C11   S    
C25   O8    A    
O13   C35   S    
C7    C8    A    
C29   O12   S    
C34   H28   S    
C28   H14   S    
C26   C27   S    
C3    C28   S    
C5    C6    A    
C4    H34   S    
C31   H16   S    
C18   C19   A    
C26   O10   S    
Cu2   O4    S    
C22   H19   S    
C27   H12   S    
C28   H3    S    
C8    C9    A    
C32   H21   S    
C6    H6    S    
C2    C27   S    
C8    H7    S    
C3    H27   S    
C1    O2    A    
C4    C29   S    
C19   H10   S    
C27   H13   S    
C31   H17   S    
C15   C23   S    
C22   N1    A    
C13   C14   A    
Cu1   O1    S    
Cu2   O6    S    
C12   O4    A    
C23   O5    A    
C34   H29   S    
C4    H2    S    
C24   N2    A    
O12   C34   S    
C18   H9    S    
C16   C17   A    
C31   H15   S    
C35   H31   S    
C2    C4    S    
C7    H18   S    
C29   O13   S    
C29   C30   S    
C26   H1    S    
Cu1   Cu2   S    
C32   H22   S    
C33   H25   S    
C17   C18   A    
Cu1   O5    S    
Cu2   O2    S    
C20   N2    A    
C26   C30   S    
C35   H32   S    
Cu1   N2    S    
C17   H26   S    
Cu2   N1    S    
C22   C24   A    
C12   O3    A    
C23   O6    A    
C9    C10   A    
C34   H30   S    
C12   C30   S    
C16   O11   S    
C25   O7    A    
Cu1   O3    S    
C6    C7    A    
C35   H33   S    
O10   C32   S    
C28   C30   S    
C2    C3    S    
C9    C15   A    
C5    C10   A    
C11   C13   A    
O9    C31   S    
C3    H4    S    
C2    C25   S    
O11   C33   S    
C33   H23   S    
C10   C11   A    
C14   H8    S    
C13   O9    S    
C20   C21   A    
C32   H20   S    
C24   H11   S    
C14   C15   A    
C33   H24   S    
Cu1   O7    S    
C1    O1    A    
Cu2   O8    S    
C21   N1    A    
