data_mof_unit_43109.cif
_audit_creation_date              2012-12-11T14:01:13-0500
_audit_creation_method            fapswitch 2.2
_symmetry_space_group_name_H-M    P1
_symmetry_Int_Tables_number       1
_space_group_crystal_system       triclinic
_cell_length_a                    19.052717
_cell_length_b                    10.981346
_cell_length_c                    18.910231
_cell_angle_alpha                 89.615794
_cell_angle_beta                  89.995553
_cell_angle_gamma                 90.049574
_cell_volume                      3956.39275488

loop_
_atom_site_label
_atom_site_type_symbol
_atom_type_description
_atom_site_fract_x
_atom_site_fract_y
_atom_site_fract_z
_atom_type_partial_charge
C1    C     C_R   0.271971 0.042904 0.852545 0.600589
C2    C     C_R   0.707268 0.992571 0.140786 0.591740
C3    C     C_R   0.775780 0.533930 0.855975 0.611740
C4    C     C_R   0.227900 0.542998 0.147325 0.595619
C5    C     C_R   0.452595 0.028591 0.084063 -0.068366
C6    C     C_R   0.467030 0.061094 0.938708 -0.037521
C7    C     C_R   0.029174 0.561846 0.060268 -0.042265
C8    C     C_R   0.045480 0.530829 0.915203 -0.071616
C9    C     C_R   0.049570 0.659563 0.017545 -0.068541
C10   C     C_R   0.059437 0.643429 0.945491 -0.093538
C11   C     C_R   0.437348 0.140982 0.053377 -0.085101
C12   C     C_R   0.446057 0.157797 0.981126 -0.057582
C13   C     C_2   0.250920 0.581662 0.921378 -0.024191
C14   C     C_2   0.741372 0.611226 0.074588 -0.041645
C15   C     C_2   0.755059 0.096801 0.924072 -0.028513
C16   C     C_2   0.248714 0.083552 0.078383 -0.025793
C17   C     C_2   0.253631 0.590958 0.080739 0.123116
C18   C     C_2   0.769766 0.538588 0.931625 0.141644
C19   C     C_2   0.711439 0.003328 0.063928 0.110128
C20   C     C_2   0.245908 0.091369 0.918634 0.121923
C21   C     C_2   0.289097 0.516108 0.037716 -0.082973
C22   C     C_2   0.708081 0.521073 0.964358 -0.114272
C23   C     C_2   0.766887 0.963029 0.026456 -0.128497
C24   C     C_2   0.210250 0.017037 0.962423 -0.082871
C25   C     C_2   0.303971 0.545444 0.963993 0.199611
C26   C     C_2   0.703117 0.526182 0.041404 0.142998
C27   C     C_2   0.774675 0.987838 0.949974 0.136275
C28   C     C_2   0.195666 0.046443 0.036158 0.199597
C29   C     C_2   0.508012 0.842074 0.583807 -0.092997
C30   C     C_2   0.521768 0.827360 0.430925 -0.078330
C31   C     C_2   0.008058 0.342077 0.583828 -0.094231
C32   C     C_2   0.021740 0.327321 0.430930 -0.077553
C33   C     C_2   0.536561 0.733016 0.475776 0.186715
C34   C     C_2   0.541910 0.750568 0.552777 0.159579
C35   C     C_2   0.036581 0.233000 0.475784 0.186609
C36   C     C_2   0.041918 0.250540 0.552792 0.159949
C37   C     C_2   0.244394 0.556407 0.587752 -0.077978
C38   C     C_2   0.751118 0.577313 0.419729 -0.057728
C39   C     C_2   0.744418 0.056453 0.587718 -0.075662
C40   C     C_2   0.251111 0.077334 0.419734 -0.058158
C41   C     C_2   0.237977 0.577105 0.428354 0.162901
C42   C     C_2   0.791078 0.496332 0.564559 0.159584
C43   C     C_2   0.738018 0.077208 0.428322 0.161510
C44   C     C_2   0.291056 0.996265 0.564546 0.159874
C45   C     C_R   0.469678 0.823396 0.854024 0.552695
C46   C     C_R   0.529624 0.821123 0.146486 0.532766
C47   C     C_R   0.970572 0.320863 0.853428 0.544542
C48   C     C_R   0.030057 0.323665 0.146017 0.551768
C49   C     C_2   0.182297 0.597677 0.473960 0.026756
C50   C     C_2   0.823840 0.579972 0.522585 -0.016894
C51   C     C_2   0.682349 0.097841 0.473928 0.025123
C52   C     C_2   0.323922 0.079727 0.522531 -0.016188
C53   C     C_2   0.186521 0.581910 0.551796 -0.097090
C54   C     C_2   0.815742 0.569358 0.446057 -0.088404
C55   C     C_2   0.686542 0.081926 0.551759 -0.097378
C56   C     C_2   0.315744 0.069124 0.446007 -0.089063
C57   C     C_R   0.261701 0.637313 0.852014 0.563340
C58   C     C_R   0.737883 0.639363 0.148214 0.564659
C59   C     C_R   0.761385 0.136515 0.851335 0.571379
C60   C     C_R   0.238186 0.137991 0.147850 0.568121
C61   C     C_R   0.293624 0.994773 0.641605 0.612027
C62   C     C_R   0.724626 0.040717 0.355014 0.584722
C63   C     C_R   0.793637 0.494755 0.641610 0.609174
C64   C     C_R   0.224612 0.540682 0.355028 0.578955
C65   C     C_R   0.473259 0.825198 0.650593 0.583280
C66   C     C_R   0.535604 0.821768 0.355623 0.571922
C67   C     C_R   0.973265 0.325198 0.650597 0.579528
C68   C     C_R   0.035616 0.321760 0.355631 0.573572
C69   C     C_R   0.258999 0.629979 0.649865 0.576635
C70   C     C_R   0.739789 0.634821 0.352574 0.546578
C71   C     C_R   0.759004 0.129990 0.649853 0.581894
C72   C     C_R   0.239790 0.134817 0.352571 0.540389
C73   C     C_R   0.505185 0.824969 0.073506 0.026704
C74   C     C_R   0.496190 0.838573 0.926074 0.018503
C75   C     C_R   0.003077 0.338630 0.073909 0.019779
C76   C     C_R   0.995493 0.324600 0.926330 0.032523
C77   C     C_R   0.477650 0.931383 0.042463 0.051742
C78   C     C_R   0.479253 0.943388 0.967815 0.047654
C79   C     C_R   0.018783 0.444074 0.031640 0.049567
C80   C     C_R   0.021162 0.432379 0.957059 0.053933
C81   C     C_R   0.522500 0.734499 0.958565 -0.112204
C82   C     C_R   0.526840 0.727614 0.030778 -0.111449
C83   C     C_R   0.974901 0.226236 0.969531 -0.102211
C84   C     C_R   0.978307 0.233519 0.041793 -0.101979
Cr1   Cr    Cr6+3 0.230530 0.836340 0.748870 1.076633
Cr2   Cr    Cr6+3 0.769470 0.836340 0.251130 1.057896
Cr3   Cr    Cr6+3 0.730530 0.336340 0.748870 1.090505
Cr4   Cr    Cr6+3 0.269470 0.336340 0.251130 1.056499
Cr5   Cr    Cr6+3 0.387420 0.989430 0.750820 1.025822
Cr6   Cr    Cr6+3 0.612580 0.989430 0.249180 1.050155
Cr7   Cr    Cr6+3 0.887420 0.489430 0.750820 1.055047
Cr8   Cr    Cr6+3 0.112580 0.489430 0.249180 1.029475
Cr9   Cr    Cr6+3 0.385640 0.677860 0.749230 1.117064
Cr10  Cr    Cr6+3 0.614360 0.677860 0.250770 1.110263
Cr11  Cr    Cr6+3 0.885640 0.177860 0.749230 1.102779
Cr12  Cr    Cr6+3 0.114360 0.177860 0.250770 1.128232
H1    H     H_    0.537742 0.655693 0.927962 0.169934
H2    H     H_    0.549698 0.645557 0.052907 0.185838
H3    H     H_    0.953279 0.143238 0.947748 0.171926
H4    H     H_    0.963731 0.154049 0.072794 0.174453
H5    H     H_    0.142845 0.613867 0.583013 0.156962
H6    H     H_    0.861137 0.584554 0.412349 0.145491
H7    H     H_    0.642835 0.113773 0.582973 0.157851
H8    H     H_    0.361125 0.084117 0.412248 0.144035
H9    H     H_    0.286341 0.502467 0.565894 0.146837
H10   H     H_    0.705332 0.567235 0.453513 0.188304
H11   H     H_    0.786395 0.002616 0.565839 0.146595
H12   H     H_    0.205342 0.067488 0.453564 0.188860
H13   H     H_    0.445367 0.018903 0.140561 0.131898
H14   H     H_    0.478192 0.083977 0.884369 0.162342
H15   H     H_    0.017618 0.583173 0.114588 0.159605
H16   H     H_    0.053529 0.521705 0.858856 0.127089
H17   H     H_    0.057447 0.748384 0.040548 0.192206
H18   H     H_    0.076741 0.718956 0.912772 0.148074
H19   H     H_    0.419835 0.215807 0.085904 0.151909
H20   H     H_    0.437159 0.246540 0.957751 0.196610
H21   H     H_    0.305338 0.426449 0.056007 0.172352
H22   H     H_    0.660347 0.506004 0.934197 0.140819
H23   H     H_    0.808833 0.913367 0.052701 0.153851
H24   H     H_    0.193617 0.927630 0.944723 0.173312
H25   H     H_    0.198299 0.586720 0.942983 0.111216
H26   H     H_    0.771308 0.677180 0.043867 0.136597
H27   H     H_    0.738041 0.167900 0.959727 0.151746
H28   H     H_    0.301076 0.089654 0.056424 0.109267
H29   H     H_    0.514171 0.918728 0.449903 0.034735
H30   H     H_    0.488137 0.919760 0.554757 0.058113
H31   H     H_    0.014040 0.418658 0.449903 0.034971
H32   H     H_    0.988254 0.419823 0.554794 0.058368
O1    O     O_R   0.215090 0.709860 0.828130 -0.540932
O2    O     O_R   0.784910 0.709860 0.171870 -0.524815
O3    O     O_R   0.715090 0.209860 0.828130 -0.507592
O4    O     O_R   0.284910 0.209860 0.171870 -0.536817
O5    O     O_R   0.445660 0.919250 0.676780 -0.540247
O6    O     O_R   0.554340 0.919250 0.323220 -0.533818
O7    O     O_R   0.945660 0.419250 0.676780 -0.544843
O8    O     O_R   0.054340 0.419250 0.323220 -0.530905
O9    O     O_R   0.456260 0.718170 0.670000 -0.443162
O10   O     O_R   0.543740 0.718170 0.330000 -0.439351
O11   O     O_R   0.956260 0.218170 0.670000 -0.441684
O12   O     O_R   0.043740 0.218170 0.330000 -0.442118
O13   O     O_R   0.320940 0.626760 0.674370 -0.485154
O14   O     O_R   0.679060 0.626760 0.325630 -0.467853
O15   O     O_R   0.820940 0.126760 0.674370 -0.481475
O16   O     O_R   0.179060 0.126760 0.325630 -0.473745
O17   O     O_3   0.334530 0.834540 0.749640 -0.300996
O18   O     O_3   0.665470 0.834540 0.250360 -0.313584
O19   O     O_3   0.834530 0.334540 0.749640 -0.308217
O20   O     O_3   0.165470 0.334540 0.250360 -0.283306
O21   O     O_R   0.236990 0.958390 0.823710 -0.511438
O22   O     O_R   0.763010 0.958390 0.176290 -0.511584
O23   O     O_R   0.736990 0.458390 0.823710 -0.515146
O24   O     O_R   0.263010 0.458390 0.176290 -0.513732
O25   O     O_R   0.332380 0.074750 0.830850 -0.482103
O26   O     O_R   0.667620 0.074750 0.169150 -0.423435
O27   O     O_R   0.832380 0.574750 0.830850 -0.431114
O28   O     O_R   0.167620 0.574750 0.169150 -0.478122
O29   O     O_R   0.445800 0.917770 0.825070 -0.533067
O30   O     O_R   0.554200 0.917770 0.174930 -0.508143
O31   O     O_R   0.945800 0.417770 0.825070 -0.492750
O32   O     O_R   0.054200 0.417770 0.174930 -0.527218
O33   O     O_R   0.456410 0.716580 0.829970 -0.467862
O34   O     O_R   0.543590 0.716580 0.170030 -0.502632
O35   O     O_R   0.956410 0.216580 0.829970 -0.508757
O36   O     O_R   0.043590 0.216580 0.170030 -0.470000
O37   O     O_R   0.321080 0.625290 0.822650 -0.445356
O38   O     O_R   0.678920 0.625290 0.177350 -0.465577
O39   O     O_R   0.821080 0.125290 0.822650 -0.471839
O40   O     O_R   0.178920 0.125290 0.177350 -0.440897
O41   O     O_R   0.214930 0.711450 0.668160 -0.498288
O42   O     O_R   0.785070 0.711450 0.331840 -0.521767
O43   O     O_R   0.714930 0.211450 0.668160 -0.497642
O44   O     O_R   0.285070 0.211450 0.331840 -0.524238
O45   O     O_R   0.236850 0.959870 0.675420 -0.427432
O46   O     O_R   0.763150 0.959870 0.324580 -0.462038
O47   O     O_R   0.736850 0.459870 0.675420 -0.429325
O48   O     O_R   0.263150 0.459870 0.324580 -0.465477
O49   O     O_R   0.332230 0.076350 0.670880 -0.546788
O50   O     O_R   0.667770 0.076350 0.329120 -0.545971
O51   O     O_R   0.832230 0.576350 0.670880 -0.545057
O52   O     O_R   0.167770 0.576350 0.329120 -0.549783
C85   C     C_3   0.113374 0.654419 0.446030 -0.251670
C86   C     C_3   0.065722 0.719944 0.498777 -0.427841
H33   H     H_    0.037265 0.653314 0.532688 0.118731
H34   H     H_    0.095817 0.785037 0.531623 0.238192
H35   H     H_    0.026493 0.773887 0.468966 0.177475
H36   H     H_    0.127343 0.726522 0.406864 0.214879
H37   H     H_    0.081251 0.583895 0.419907 0.166508
C87   C     C_3   0.860542 0.693912 0.550617 -0.285100
C88   C     C_3   0.875726 0.792404 0.495053 -0.419995
H38   H     H_    0.910360 0.757945 0.452709 0.160379
H39   H     H_    0.825796 0.824651 0.471117 0.193235
H40   H     H_    0.902329 0.870567 0.520661 0.204126
H41   H     H_    0.825862 0.738961 0.589767 0.193167
H42   H     H_    0.910689 0.667313 0.576389 0.167789
C89   C     C_3   0.613480 0.154789 0.446013 -0.251521
C90   C     C_3   0.565995 0.220652 0.498771 -0.427481
H43   H     H_    0.537363 0.154215 0.532659 0.119164
H44   H     H_    0.596249 0.285467 0.531649 0.238207
H45   H     H_    0.526913 0.274946 0.468977 0.178036
H46   H     H_    0.627506 0.226748 0.406778 0.216268
H47   H     H_    0.581233 0.084333 0.419969 0.165592
C91   C     C_3   0.360799 0.193527 0.550519 -0.285489
C92   C     C_3   0.376216 0.291830 0.494895 -0.420079
H48   H     H_    0.410865 0.257071 0.452642 0.159996
H49   H     H_    0.326373 0.324249 0.470850 0.194213
H50   H     H_    0.402887 0.369965 0.520468 0.203710
H51   H     H_    0.326162 0.238827 0.589608 0.191387
H52   H     H_    0.410875 0.166706 0.576358 0.167976
Br1   Br    Br    0.336234 0.597038 0.450477 -0.483061
Br2   Br    Br    0.745803 0.357455 0.524838 -0.500224
Br3   Br    Br    0.836276 0.097212 0.450413 -0.480721
Br4   Br    Br    0.245502 0.857583 0.524878 -0.500114
Br5   Br    Br    0.398081 0.509961 0.933976 -0.478634
Br6   Br    Br    0.641300 0.413050 0.088237 -0.418020
Br7   Br    Br    0.817041 0.865327 0.892155 -0.470992
Br8   Br    Br    0.102077 0.008579 0.067213 -0.488964
Br9   Br    Br    0.233063 0.756269 0.057526 -0.570671
Br10  Br    Br    0.858898 0.526258 0.980264 -0.516613
Br11  Br    Br    0.627800 0.068073 0.020076 -0.503224
Br12  Br    Br    0.266380 0.257002 0.940184 -0.576427
Br13  Br    Br    0.545877 0.564605 0.446153 -0.419960
Br14  Br    Br    0.591809 0.631540 0.609747 -0.425819
Br15  Br    Br    0.045973 0.064599 0.446153 -0.421045
Br16  Br    Br    0.091787 0.131483 0.609770 -0.425855

loop_
_geom_bond_atom_site_label_1
_geom_bond_atom_site_label_2
_ccdc_geom_bond_type
Cr12  O12   S    
C16   C28   D    
C92   H48   S    
C38   C70   S    
Cr10  O18   S    
C14   H26   S    
C37   C69   S    
Cr8   O20   S    
Cr4   O24   S    
C67   O7    A    
C35   C36   S    
Cr9   O13   S    
C50   C87   S    
C60   O4    A    
Cr7   O19   S    
C81   C82   A    
C85   H37   S    
C17   Br9   S    
C47   O31   A    
C77   C78   A    
Cr5   O17   S    
C48   O32   A    
C59   O3    A    
C60   O40   A    
Cr3   O19   S    
C2    O22   A    
Cr4   O44   S    
C72   O44   A    
C32   H31   S    
C71   O15   A    
Cr1   O17   S    
C47   C76   S    
C5    C11   A    
C35   Br15  S    
Cr2   O22   S    
C23   H23   S    
Cr6   O6    S    
C49   C53   S    
C75   C84   A    
C6    C78   A    
C13   C57   S    
C69   O13   A    
C66   O10   A    
C46   O30   A    
C55   H7    S    
C63   O51   A    
C3    C18   S    
C72   O16   A    
C16   C60   S    
Cr3   O3    S    
C88   H39   S    
C45   O33   A    
C86   H33   S    
C21   H21   S    
Cr8   O52   S    
Cr1   O1    S    
C66   O6    A    
Cr5   O25   S    
C39   C55   D    
C20   C24   D    
C53   H5    S    
C40   C56   D    
Cr7   O51   S    
Cr1   O45   S    
Cr12  O40   S    
C45   O29   A    
Cr9   O17   S    
Cr5   O49   S    
C64   O48   A    
C11   H19   S    
C9    C10   A    
C36   Br16  S    
Cr7   O31   S    
C65   O9    A    
C10   H18   S    
C40   H12   S    
C41   Br1   S    
C44   C52   D    
C48   O36   A    
C30   H29   S    
Cr9   O37   S    
C2    O26   A    
Cr3   O23   S    
C29   H30   S    
C27   Br7   S    
C6    H14   S    
C48   C75   S    
Cr10  O38   S    
Cr8   O8    S    
C31   H32   S    
C90   H45   S    
C4    O24   A    
Cr2   O18   S    
C76   C83   A    
C41   C49   D    
C20   Br12  S    
Cr1   O21   S    
C14   C58   S    
C92   H50   S    
C70   O14   A    
Cr5   O5    S    
C91   C92   S    
C82   H2    S    
C24   H24   S    
Cr10  O14   S    
C32   C35   D    
C76   C80   A    
C68   O8    A    
Cr11  O19   S    
C56   H8    S    
C90   H44   S    
C28   Br8   S    
Cr2   O2    S    
C89   C90   S    
C51   C55   S    
C85   C86   S    
C29   C34   D    
Cr1   O41   S    
Cr12  O36   S    
Cr12  O20   S    
C45   C74   S    
Cr2   O46   S    
C86   H35   S    
C84   H4    S    
Cr6   O30   S    
C88   H40   S    
C19   C23   D    
C37   C53   D    
C37   H9    S    
Cr11  O35   S    
Cr12  O16   S    
C92   H49   S    
C83   H3    S    
C15   C27   D    
C83   C84   A    
C38   C54   D    
Cr9   O33   S    
C61   O49   A    
C11   C12   A    
Cr3   O43   S    
C38   H10   S    
C17   C21   D    
C3    O27   A    
C33   C34   S    
Cr4   O20   S    
C61   O45   A    
Cr5   O29   S    
Cr8   O28   S    
C69   O41   A    
C14   C26   D    
C1    O21   A    
C22   H22   S    
C30   C66   S    
C15   H27   S    
C42   C50   D    
C29   C65   S    
C4    C17   S    
C4    O28   A    
C87   H41   S    
C23   C27   S    
C91   H51   S    
C22   C26   S    
Cr10  O10   S    
C71   O43   A    
Cr11  O11   S    
C68   O12   A    
C19   Br11  S    
Cr7   O27   S    
Cr4   O4    S    
C74   C81   A    
C5    C77   A    
C18   Br10  S    
C73   C82   A    
C50   C54   S    
C67   O11   A    
C7    C79   A    
C89   H46   S    
C57   O1    A    
C7    C9    A    
C21   C25   S    
C1    C20   S    
C39   C71   S    
C40   C72   S    
C30   C33   D    
C13   H25   S    
C2    C19   S    
C18   C22   D    
C15   C59   S    
C54   H6    S    
Cr11  O15   S    
C24   C28   S    
C90   H43   S    
C13   C25   D    
Cr11  O39   S    
C39   H11   S    
C62   O50   A    
C85   H36   S    
C63   O47   A    
C89   H47   S    
C44   C61   S    
Cr3   O47   S    
C74   C78   A    
C3    O23   A    
Cr4   O48   S    
Cr8   O32   S    
C26   Br6   S    
C9    H17   S    
C25   Br5   S    
C42   Br2   S    
C70   O42   A    
C47   O35   A    
Cr6   O18   S    
C51   C89   S    
C32   C68   S    
C6    C12   A    
C43   C51   D    
Cr6   O26   S    
C81   H1    S    
Cr2   O42   S    
C58   O2    A    
C64   O52   A    
C59   O39   A    
C8    H16   S    
C7    H15   S    
C52   C91   S    
C46   C73   S    
C16   H28   S    
C88   H38   S    
C58   O38   A    
C86   H34   S    
C43   Br3   S    
C1    O25   A    
Cr9   O9    S    
C31   C67   S    
C87   H42   S    
C79   C80   A    
C52   C56   S    
Cr7   O7    S    
C8    C10   A    
C46   O34   A    
C8    C80   A    
C73   C77   A    
C31   C36   D    
C87   C88   S    
C57   O37   A    
C91   H52   S    
C5    H13   S    
C41   C64   S    
C44   Br4   S    
C75   C79   A    
C42   C63   S    
C49   C85   S    
C65   O5    A    
Cr10  O34   S    
C34   Br14  S    
C43   C62   S    
C33   Br13  S    
Cr6   O50   S    
C12   H20   S    
C62   O46   A    
