data_mof_unit_27512.cif
_audit_creation_date              2013-03-05T16:04:54-0500
_audit_creation_method            fapswitch 2.2
_symmetry_space_group_name_H-M    P1
_symmetry_Int_Tables_number       1
_space_group_crystal_system       triclinic
_cell_length_a                    22.900823
_cell_length_b                    21.086624
_cell_length_c                    15.153397
_cell_angle_alpha                 89.950942
_cell_angle_beta                  97.574374
_cell_angle_gamma                 89.966152
_cell_volume                      7253.73778798

loop_
_atom_site_label
_atom_site_type_symbol
_atom_site_description
_atom_site_fract_x
_atom_site_fract_y
_atom_site_fract_z
_atom_type_partial_charge
O1    O     O_R   0.541320 0.066090 0.608930 -0.625850
O2    O     O_R   0.458680 0.933910 0.391070 -0.627089
O3    O     O_R   0.458680 0.066090 0.391070 -0.623382
O4    O     O_R   0.541320 0.933910 0.608930 -0.625873
O5    O     O_R   0.041320 0.566090 0.608930 -0.622471
O6    O     O_R   0.958680 0.433910 0.391070 -0.625038
O7    O     O_R   0.958680 0.566090 0.391070 -0.626480
O8    O     O_R   0.041320 0.433910 0.608930 -0.626984
O9    O     O_R   0.572880 0.066110 0.470280 -0.612897
O10   O     O_R   0.427120 0.933890 0.529720 -0.613555
O11   O     O_R   0.427120 0.066110 0.529720 -0.626048
O12   O     O_R   0.572880 0.933890 0.470280 -0.613677
O13   O     O_R   0.072880 0.566110 0.470280 -0.626549
O14   O     O_R   0.927120 0.433890 0.529720 -0.614502
O15   O     O_R   0.927120 0.566110 0.529720 -0.612589
O16   O     O_R   0.072880 0.433890 0.470280 -0.613727
C1    C     C_R   0.573017 0.089217 0.551190 0.885213
C2    C     C_R   0.427645 0.910095 0.449655 0.875525
C3    C     C_R   0.425141 0.087841 0.447751 0.871009
C4    C     C_R   0.571764 0.909823 0.550351 0.882531
C5    C     C_R   0.075227 0.587603 0.552433 0.869925
C6    C     C_R   0.928206 0.409857 0.449644 0.880529
C7    C     C_R   0.926975 0.589222 0.448782 0.885918
C8    C     C_R   0.071324 0.409175 0.549632 0.876022
Zn1   Zn    Zn3+2 0.478910 0.000000 0.592580 0.941737
Zn2   Zn    Zn3+2 0.521090 0.000000 0.407420 0.947053
Zn3   Zn    Zn3+2 0.978910 0.500000 0.592580 0.946329
Zn4   Zn    Zn3+2 0.021090 0.500000 0.407420 0.940524
C9    C     C_R   0.604324 0.851519 0.574811 -0.068123
C10   C     C_R   0.379903 0.134585 0.414549 -0.071431
C11   C     C_R   0.397315 0.849765 0.428370 -0.071942
C12   C     C_R   0.610658 0.143475 0.579084 -0.071992
C13   C     C_R   0.099463 0.347199 0.569199 -0.070802
C14   C     C_R   0.889286 0.643476 0.420810 -0.072083
C15   C     C_R   0.895573 0.351655 0.425074 -0.068603
C16   C     C_R   0.121820 0.632834 0.586675 -0.072480
C17   C     C_R   0.638544 0.769240 0.680778 -0.008770
C18   C     C_R   0.325472 0.192065 0.291489 -0.010259
C19   C     C_R   0.369142 0.763296 0.326124 -0.013406
C20   C     C_R   0.653221 0.218184 0.690804 -0.008233
C21   C     C_R   0.118527 0.254007 0.663093 -0.011502
C22   C     C_R   0.846366 0.717835 0.308663 -0.007973
C23   C     C_R   0.861186 0.269754 0.318780 -0.009147
C24   C     C_R   0.182032 0.680468 0.713782 -0.016355
C25   C     C_R   0.602883 0.822130 0.657131 -0.246297
C26   C     C_R   0.371660 0.151954 0.325119 -0.239533
C27   C     C_R   0.397996 0.820880 0.345832 -0.245126
C28   C     C_R   0.612868 0.169909 0.663834 -0.244700
C29   C     C_R   0.091728 0.313423 0.646180 -0.247237
C30   C     C_R   0.886828 0.669651 0.335833 -0.246272
C31   C     C_R   0.896925 0.322491 0.342634 -0.243544
C32   C     C_R   0.133048 0.645077 0.677668 -0.236722
C33   C     C_R   0.633375 0.821886 0.511974 -0.256575
C34   C     C_R   0.343511 0.160399 0.471361 -0.272871
C35   C     C_R   0.371349 0.818689 0.493953 -0.243662
C36   C     C_R   0.642875 0.170909 0.518383 -0.256640
C37   C     C_R   0.126975 0.317222 0.504144 -0.242523
C38   C     C_R   0.857204 0.671080 0.481540 -0.257427
C39   C     C_R   0.866508 0.321929 0.487824 -0.253495
C40   C     C_R   0.159177 0.658151 0.530706 -0.276688
C41   C     C_R   0.676021 0.775836 0.537083 0.073748
C42   C     C_R   0.290272 0.189980 0.437930 0.070456
C43   C     C_R   0.338994 0.762934 0.475907 0.071927
C44   C     C_R   0.689668 0.211735 0.545913 0.073896
C45   C     C_R   0.160366 0.262255 0.523197 0.074439
C46   C     C_R   0.810303 0.711841 0.453903 0.073550
C47   C     C_R   0.823819 0.276000 0.462639 0.075158
C48   C     C_R   0.212816 0.686591 0.565052 0.070197
C49   C     C_R   0.682776 0.753672 0.626480 0.055527
C50   C     C_R   0.280892 0.207444 0.345880 0.054067
C51   C     C_R   0.336668 0.734847 0.389946 0.057850
C52   C     C_R   0.697924 0.232111 0.636413 0.054655
C53   C     C_R   0.161364 0.234031 0.608546 0.055045
C54   C     C_R   0.801834 0.732008 0.363242 0.054871
C55   C     C_R   0.817021 0.254042 0.373154 0.055125
C56   C     C_R   0.222706 0.703095 0.657191 0.053995
C57   C     C_R   0.716039 0.757544 0.478024 0.051278
C58   C     C_R   0.246587 0.202413 0.494466 0.058377
C59   C     C_R   0.304159 0.738418 0.539023 0.063719
C60   C     C_R   0.730747 0.228024 0.487146 0.051328
C61   C     C_R   0.197371 0.239349 0.462286 0.056824
C62   C     C_R   0.769241 0.728124 0.512687 0.051677
C63   C     C_R   0.783821 0.257628 0.521740 0.050984
C64   C     C_R   0.256173 0.699548 0.508595 0.059133
C65   C     C_R   0.249663 0.177615 0.581610 -0.280663
C66   C     C_R   0.704903 0.769616 0.385812 -0.299406
C67   C     C_R   0.720654 0.214891 0.394924 -0.295307
C68   C     C_R   0.313911 0.754401 0.629826 -0.297480
C69   C     C_R   0.779383 0.715026 0.604959 -0.296503
C70   C     C_R   0.186476 0.252670 0.370605 -0.297623
C71   C     C_R   0.255727 0.670350 0.425011 -0.288027
C72   C     C_R   0.794804 0.269840 0.613925 -0.295474
C73   C     C_R   0.206675 0.189963 0.636739 -0.037705
C74   C     C_R   0.747732 0.760847 0.329680 -0.038725
C75   C     C_R   0.764130 0.223113 0.339693 -0.037819
C76   C     C_R   0.272937 0.740407 0.687958 -0.038571
C77   C     C_R   0.735732 0.722811 0.660004 -0.037444
C78   C     C_R   0.226936 0.237282 0.312495 -0.044134
C79   C     C_R   0.299286 0.681934 0.370869 -0.033913
C80   C     C_R   0.751923 0.261061 0.669987 -0.039654
H1    H     H_    0.357768 0.157285 0.541622 0.147249
H2    H     H_    0.625525 0.839560 0.445542 0.158446
H3    H     H_    0.632774 0.155956 0.451016 0.155347
H4    H     H_    0.373982 0.840988 0.557794 0.172679
H5    H     H_    0.867445 0.656257 0.549019 0.155111
H6    H     H_    0.124985 0.339536 0.440466 0.172845
H7    H     H_    0.145860 0.655844 0.459964 0.147404
H8    H     H_    0.874436 0.339434 0.554277 0.157813
H9    H     H_    0.403112 0.136716 0.281862 0.166329
H10   H     H_    0.572127 0.838581 0.700601 0.162782
H11   H     H_    0.581366 0.155005 0.707108 0.162643
H12   H     H_    0.420196 0.843769 0.295427 0.169374
H13   H     H_    0.918184 0.654563 0.292435 0.161740
H14   H     H_    0.061763 0.331533 0.689771 0.163392
H15   H     H_    0.104658 0.624751 0.722198 0.167828
H16   H     H_    0.927654 0.339028 0.299174 0.164214
H17   H     H_    0.285088 0.147705 0.609321 0.144046
H18   H     H_    0.661774 0.783881 0.354707 0.150253
H19   H     H_    0.678065 0.200747 0.362341 0.148954
H20   H     H_    0.353366 0.779377 0.656710 0.147879
H21   H     H_    0.822055 0.701135 0.637629 0.147869
H22   H     H_    0.144640 0.272625 0.342221 0.155676
H23   H     H_    0.225024 0.633808 0.404043 0.145456
H24   H     H_    0.837825 0.284277 0.645112 0.152633
N1    N     N_R   0.549130 0.000000 0.284090 -0.118388
N2    N     N_R   0.450870 0.000000 0.715910 -0.118333
N3    N     N_R   0.049130 0.500000 0.284090 -0.119891
N4    N     N_R   0.950870 0.500000 0.715910 -0.118511
C81   C     C_R   0.628619 0.999517 0.195297 -0.351584
C82   C     C_R   0.372053 0.995135 0.805998 -0.324188
C83   C     C_R   0.127372 0.487270 0.194224 -0.352953
C84   C     C_R   0.871394 0.501488 0.804653 -0.351475
C85   C     C_R   0.608422 0.997570 0.277694 0.131231
C86   C     C_R   0.392187 0.990243 0.723782 0.124690
C87   C     C_R   0.107302 0.486863 0.276708 0.131346
C88   C     C_R   0.891559 0.498593 0.722293 0.130939
C89   C     C_R   0.509232 0.004541 0.209320 -0.095550
C90   C     C_R   0.490591 0.008287 0.790306 -0.099203
C91   C     C_R   0.009762 0.508861 0.209437 -0.099395
C92   C     C_R   0.990854 0.503441 0.790577 -0.098340
C93   C     C_R   0.527905 0.006949 0.123119 0.001271
C94   C     C_R   0.472244 0.008489 0.876851 -0.003778
C95   C     C_R   0.028013 0.505928 0.122937 0.002746
C96   C     C_R   0.972269 0.505579 0.876777 0.000056
C97   C     C_R   0.589050 0.004331 0.118288 0.178517
C98   C     C_R   0.411261 0.004873 0.882049 0.169939
C99   C     C_R   0.088626 0.497503 0.117820 0.164262
C100  C     C_R   0.911084 0.505404 0.881627 0.179271
C101  C     C_R   0.488622 0.010337 0.041974 0.090287
C102  C     C_R   0.511609 0.010231 0.957995 0.087678
C103  C     C_R   0.988741 0.508821 0.041799 0.087009
C104  C     C_R   0.011656 0.506475 0.957850 0.082189
C105  C     C_R   0.573021 0.008987 0.957983 -0.248558
C106  C     C_R   0.427176 0.012374 0.041919 -0.247858
C107  C     C_R   0.073016 0.502689 0.957813 -0.229673
C108  C     C_R   0.927338 0.510764 0.041848 -0.248490
C109  C     C_R   0.610832 0.005993 0.036736 -0.218658
C110  C     C_R   0.389339 0.009048 0.963271 -0.218615
C111  C     C_R   0.110562 0.497370 0.036432 -0.215131
C112  C     C_R   0.889406 0.508435 0.963174 -0.217577
H25   H     H_    0.657772 0.003782 0.033492 0.124517
H26   H     H_    0.342271 0.008450 0.966207 0.133835
H27   H     H_    0.157324 0.491853 0.033278 0.130377
H28   H     H_    0.842444 0.508000 0.966487 0.125078
H29   H     H_    0.535871 0.014269 0.780107 0.134502
H30   H     H_    0.463609 0.006198 0.219222 0.132487
H31   H     H_    0.036441 0.504929 0.780489 0.133647
H32   H     H_    0.964798 0.517537 0.219402 0.133586
H33   H     H_    0.675630 0.997453 0.191679 0.133529
H34   H     H_    0.325472 0.989496 0.810657 0.155090
H35   H     H_    0.173541 0.478085 0.189821 0.149421
H36   H     H_    0.824362 0.500584 0.808281 0.133861
H37   H     H_    0.593476 0.008687 0.897961 0.134755
H38   H     H_    0.406640 0.015030 0.101746 0.133625
H39   H     H_    0.093609 0.501401 0.897975 0.138777
H40   H     H_    0.906914 0.511939 0.101881 0.134525
C113  C     C_R   0.216502 0.162484 0.727505 0.139342
C114  C     C_R   0.216384 0.096324 0.739205 -0.157326
C115  C     C_R   0.224692 0.070338 0.824858 -0.137517
C116  C     C_R   0.234300 0.110062 0.899078 -0.113103
C117  C     C_R   0.235746 0.175758 0.887585 -0.151286
C118  C     C_R   0.227485 0.201995 0.802293 -0.140943
H41   H     H_    0.208727 0.065092 0.682142 0.135867
H42   H     H_    0.223503 0.019446 0.833691 0.115357
H43   H     H_    0.240749 0.090008 0.965431 0.113954
H44   H     H_    0.243233 0.206556 0.944697 0.157445
H45   H     H_    0.228814 0.253020 0.794522 0.122960
C119  C     C_R   0.729897 0.774264 0.234252 0.146843
C120  C     C_R   0.715748 0.724358 0.174153 -0.157706
C121  C     C_R   0.696025 0.737446 0.084843 -0.155019
C122  C     C_R   0.690653 0.800251 0.055105 -0.114299
C123  C     C_R   0.704748 0.850068 0.114622 -0.122607
C124  C     C_R   0.723841 0.837220 0.204125 -0.158366
H46   H     H_    0.719625 0.675582 0.196631 0.123151
H47   H     H_    0.685120 0.698817 0.038751 0.148894
H48   H     H_    0.676178 0.810472 0.985831 0.128598
H49   H     H_    0.701108 0.898581 0.091348 0.120478
H50   H     H_    0.735411 0.876184 0.249384 0.123277
C125  C     C_R   0.747851 0.208287 0.244382 0.144003
C126  C     C_R   0.741791 0.144933 0.216295 -0.159530
C127  C     C_R   0.726601 0.130866 0.126202 -0.119449
C128  C     C_R   0.715901 0.179826 0.064131 -0.110123
C129  C     C_R   0.720885 0.243022 0.091996 -0.152992
C130  C     C_R   0.736921 0.257339 0.181819 -0.155002
H51   H     H_    0.750527 0.106601 0.263722 0.125615
H52   H     H_    0.723638 0.082060 0.104449 0.113030
H53   H     H_    0.704210 0.168689 0.994416 0.127624
H54   H     H_    0.712703 0.281039 0.044078 0.153110
H55   H     H_    0.740930 0.306440 0.202668 0.124799
C131  C     C_R   0.279477 0.776763 0.772625 0.139830
C132  C     C_R   0.333098 0.775981 0.829803 -0.192249
C133  C     C_R   0.342680 0.818360 0.901146 -0.132602
C134  C     C_R   0.298458 0.860754 0.917415 -0.125487
C135  C     C_R   0.244934 0.861700 0.861373 -0.155234
C136  C     C_R   0.235715 0.820571 0.788587 -0.137222
H56   H     H_    0.368028 0.743815 0.817578 0.128265
H57   H     H_    0.384410 0.818275 0.944000 0.145948
H58   H     H_    0.305779 0.893025 0.973244 0.125642
H59   H     H_    0.210973 0.895114 0.873354 0.119185
H60   H     H_    0.194978 0.823758 0.743522 0.117937
C137  C     C_R   0.751708 0.707528 0.755229 0.144001
C138  C     C_R   0.756669 0.644031 0.783076 -0.158320
C139  C     C_R   0.770788 0.629535 0.873259 -0.119786
C140  C     C_R   0.781702 0.678180 0.935649 -0.109119
C141  C     C_R   0.777844 0.741506 0.907995 -0.153391
C142  C     C_R   0.762780 0.756270 0.818088 -0.157231
H61   H     H_    0.747677 0.605953 0.735401 0.125362
H62   H     H_    0.772609 0.580651 0.894816 0.110720
H63   H     H_    0.792608 0.666719 0.005435 0.127226
H64   H     H_    0.786050 0.779297 0.956143 0.154135
H65   H     H_    0.759503 0.805472 0.797432 0.124991
C143  C     C_R   0.207741 0.248352 0.216793 0.144813
C144  C     C_R   0.183351 0.198516 0.162823 -0.145129
C145  C     C_R   0.162282 0.209686 0.073375 -0.157943
C146  C     C_R   0.165375 0.270593 0.037655 -0.120805
C147  C     C_R   0.189706 0.320315 0.090940 -0.113463
C148  C     C_R   0.210705 0.309331 0.180287 -0.159630
H66   H     H_    0.180463 0.151311 0.190139 0.122655
H67   H     H_    0.143826 0.171081 0.031712 0.140463
H68   H     H_    0.149838 0.279233 0.968395 0.125179
H69   H     H_    0.192732 0.367236 0.062877 0.120478
H70   H     H_    0.231201 0.347821 0.220003 0.120911
C149  C     C_R   0.307356 0.633659 0.302497 0.152405
C150  C     C_R   0.360227 0.599079 0.308848 -0.134665
C151  C     C_R   0.367198 0.550785 0.247950 -0.127441
C152  C     C_R   0.321148 0.535935 0.181303 -0.112953
C153  C     C_R   0.268023 0.569156 0.175800 -0.150246
C154  C     C_R   0.260850 0.617590 0.236408 -0.148789
H71   H     H_    0.395978 0.609594 0.360971 0.116447
H72   H     H_    0.408202 0.524693 0.252705 0.118013
H73   H     H_    0.326474 0.498433 0.134284 0.108337
H74   H     H_    0.232339 0.557217 0.124582 0.118824
H75   H     H_    0.219216 0.642532 0.231975 0.114713
C155  C     C_R   0.769562 0.274743 0.765383 0.146395
C156  C     C_R   0.783081 0.224990 0.826114 -0.152591
C157  C     C_R   0.802555 0.238315 0.915398 -0.152569
C158  C     C_R   0.808361 0.301208 0.944478 -0.114963
C159  C     C_R   0.794957 0.350884 0.884327 -0.122751
C160  C     C_R   0.776029 0.337783 0.794880 -0.159247
H76   H     H_    0.778888 0.176144 0.804159 0.123708
H77   H     H_    0.812959 0.199803 0.961985 0.149297
H78   H     H_    0.822668 0.311611 0.013721 0.128533
H79   H     H_    0.799017 0.399490 0.907063 0.121517
H80   H     H_    0.764907 0.376640 0.749153 0.123806
C161  C     C_R   0.623502 0.727773 0.754018 0.144634
C162  C     C_R   0.608593 0.753827 0.833509 -0.158762
C163  C     C_R   0.590187 0.714583 0.898932 -0.151068
C164  C     C_R   0.587215 0.649016 0.886339 -0.121881
C165  C     C_R   0.601541 0.622625 0.807481 -0.134365
C166  C     C_R   0.618806 0.661786 0.741098 -0.134964
H81   H     H_    0.610977 0.804492 0.844817 0.113001
H82   H     H_    0.578362 0.735032 0.959629 0.133909
H83   H     H_    0.573416 0.618718 0.937437 0.114769
H84   H     H_    0.598723 0.571853 0.797377 0.117324
H85   H     H_    0.628447 0.640636 0.679518 0.117143
C167  C     C_R   0.331038 0.221255 0.204149 0.139983
C168  C     C_R   0.343224 0.286363 0.199281 -0.138774
C169  C     C_R   0.355434 0.313198 0.119326 -0.138696
C170  C     C_R   0.357993 0.274810 0.044810 -0.113059
C171  C     C_R   0.348211 0.209598 0.050133 -0.144036
C172  C     C_R   0.334058 0.182914 0.129035 -0.159597
H86   H     H_    0.343406 0.316193 0.257493 0.118130
H87   H     H_    0.363874 0.363566 0.115594 0.116254
H88   H     H_    0.368281 0.295447 0.983288 0.122338
H89   H     H_    0.351692 0.179648 0.993087 0.145279
H90   H     H_    0.326940 0.132231 0.132381 0.116854
C173  C     C_R   0.369197 0.740020 0.234516 0.130816
C174  C     C_R   0.321905 0.754238 0.169062 -0.162556
C175  C     C_R   0.323891 0.736030 0.081027 -0.132383
C176  C     C_R   0.372478 0.702729 0.058007 -0.116642
C177  C     C_R   0.420127 0.689304 0.122770 -0.133106
C178  C     C_R   0.418980 0.708801 0.210650 -0.145677
H91   H     H_    0.284048 0.780071 0.186058 0.124849
H92   H     H_    0.287979 0.748508 0.030500 0.171303
H93   H     H_    0.373552 0.688140 0.989788 0.126317
H94   H     H_    0.458124 0.664337 0.104743 0.119814
H95   H     H_    0.456439 0.699038 0.260276 0.120484
C179  C     C_R   0.642052 0.257596 0.768091 0.141854
C180  C     C_R   0.638482 0.323967 0.759381 -0.134723
C181  C     C_R   0.624093 0.361342 0.829539 -0.136798
C182  C     C_R   0.611348 0.332767 0.907943 -0.121453
C183  C     C_R   0.613102 0.266800 0.916322 -0.143066
C184  C     C_R   0.628854 0.229307 0.847183 -0.162120
H96   H     H_    0.646788 0.346756 0.698157 0.117612
H97   H     H_    0.622177 0.412428 0.822702 0.116997
H98   H     H_    0.599708 0.361696 0.961958 0.118566
H99   H     H_    0.602427 0.244684 0.976660 0.141159
H100  H     H_    0.630281 0.178261 0.855072 0.115165
C185  C     C_R   0.094884 0.211655 0.728666 0.139200
C186  C     C_R   0.082141 0.235281 0.810798 -0.162975
C187  C     C_R   0.057460 0.195820 0.870178 -0.142542
C188  C     C_R   0.045304 0.132452 0.848368 -0.112947
C189  C     C_R   0.056871 0.108682 0.766447 -0.129020
C190  C     C_R   0.080822 0.148185 0.706375 -0.126999
H101  H     H_    0.091358 0.284224 0.828946 0.111939
H102  H     H_    0.047709 0.214412 0.933172 0.130343
H103  H     H_    0.026466 0.101924 0.894642 0.113611
H104  H     H_    0.046890 0.059729 0.749170 0.119368
H105  H     H_    0.088518 0.129226 0.642508 0.118942
C191  C     C_R   0.857227 0.756778 0.230727 0.142522
C192  C     C_R   0.861223 0.823145 0.238726 -0.135998
C193  C     C_R   0.875588 0.860035 0.168000 -0.136246
C194  C     C_R   0.887885 0.830949 0.089758 -0.122753
C195  C     C_R   0.885686 0.764962 0.082079 -0.146189
C196  C     C_R   0.869902 0.727972 0.151754 -0.161017
H106  H     H_    0.853327 0.846296 0.299843 0.117285
H107  H     H_    0.877862 0.911131 0.174287 0.116931
H108  H     H_    0.899530 0.859494 0.035315 0.117472
H109  H     H_    0.896019 0.742436 0.021876 0.139441
H110  H     H_    0.868123 0.676902 0.144420 0.114616
C197  C     C_R   0.875987 0.228655 0.245026 0.143197
C198  C     C_R   0.890968 0.255133 0.165773 -0.158757
C199  C     C_R   0.909198 0.216220 0.099904 -0.144502
C200  C     C_R   0.911874 0.150560 0.111755 -0.119844
C201  C     C_R   0.897407 0.123733 0.190305 -0.134898
C202  C     C_R   0.880345 0.162549 0.257155 -0.132809
H111  H     H_    0.888765 0.305874 0.154964 0.113745
H112  H     H_    0.921090 0.236994 0.039413 0.135237
H113  H     H_    0.925532 0.120529 0.060302 0.115124
H114  H     H_    0.899972 0.072879 0.199816 0.117434
H115  H     H_    0.870626 0.141037 0.318497 0.118160
C203  C     C_R   0.191679 0.682682 0.812014 0.133914
C204  C     C_R   0.150117 0.713094 0.857925 -0.157030
C205  C     C_R   0.152726 0.706123 0.949955 -0.132486
C206  C     C_R   0.195966 0.667728 0.996423 -0.119341
C207  C     C_R   0.237615 0.637418 0.951297 -0.160610
C208  C     C_R   0.235747 0.645098 0.859363 -0.147816
H116  H     H_    0.115004 0.741012 0.821975 0.121188
H117  H     H_    0.120574 0.729538 0.985015 0.126773
H118  H     H_    0.197429 0.662175 0.067517 0.130186
H119  H     H_    0.271230 0.607798 0.987442 0.139691
H120  H     H_    0.267132 0.619989 0.824660 0.122303
C209  C     C_R   0.346757 0.974510 0.648692 0.164602
C210  C     C_R   0.323625 0.021977 0.590693 -0.088367
C211  C     C_R   0.275249 0.010699 0.526243 -0.176419
C212  C     C_R   0.247174 0.951894 0.523141 -0.125767
C213  C     C_R   0.266935 0.905348 0.585576 -0.131433
C214  C     C_R   0.316237 0.916875 0.648628 -0.209821
H121  H     H_    0.341942 0.068231 0.599792 0.127100
H122  H     H_    0.258415 0.048062 0.480866 0.147885
H123  H     H_    0.209110 0.943116 0.474356 0.128252
H124  H     H_    0.243543 0.860842 0.585664 0.149999
H125  H     H_    0.330326 0.881681 0.698680 0.150467
C215  C     C_R   0.654027 0.994573 0.355385 0.189134
C216  C     C_R   0.680211 0.936502 0.381243 -0.160761
C217  C     C_R   0.729005 0.933729 0.447303 -0.146349
C218  C     C_R   0.753532 0.989652 0.484975 -0.130864
C219  C     C_R   0.730619 0.048117 0.454000 -0.151546
C220  C     C_R   0.681953 0.050246 0.387740 -0.143941
H126  H     H_    0.663758 0.894084 0.347095 0.114171
H127  H     H_    0.748753 0.888588 0.467717 0.151283
H128  H     H_    0.791561 0.987739 0.535539 0.127313
H129  H     H_    0.751626 0.091496 0.479443 0.151417
H130  H     H_    0.667244 0.094604 0.357616 0.113012
C221  C     C_R   0.845972 0.495406 0.644608 0.189101
C222  C     C_R   0.817577 0.550897 0.612239 -0.145569
C223  C     C_R   0.768969 0.548492 0.545917 -0.151143
C224  C     C_R   0.746584 0.489896 0.514894 -0.131200
C225  C     C_R   0.771603 0.434108 0.552528 -0.147583
C226  C     C_R   0.820367 0.437153 0.618612 -0.158118
H131  H     H_    0.831908 0.595307 0.642344 0.113374
H132  H     H_    0.747610 0.591745 0.520460 0.150690
H133  H     H_    0.708591 0.487757 0.464295 0.126712
H134  H     H_    0.752260 0.388850 0.532042 0.151271
H135  H     H_    0.837234 0.394788 0.652681 0.113449
C227  C     C_R   0.152338 0.472486 0.352862 0.177582
C228  C     C_R   0.174914 0.520801 0.409232 -0.083538
C229  C     C_R   0.222698 0.510334 0.475290 -0.159563
C230  C     C_R   0.250947 0.451575 0.480976 -0.109534
C231  C     C_R   0.231458 0.403934 0.420369 -0.132891
C232  C     C_R   0.182309 0.414511 0.356630 -0.220955
H136  H     H_    0.156194 0.566837 0.397617 0.120740
H137  H     H_    0.239012 0.548125 0.520074 0.145175
H138  H     H_    0.288624 0.443481 0.530783 0.125972
H139  H     H_    0.254500 0.359084 0.422819 0.149459
H140  H     H_    0.166707 0.377719 0.310235 0.130108

loop_
_geom_bond_atom_site_label_1
_geom_bond_atom_site_label_2
_geom_bond_distance
_ccdc_geom_bond_type
C151  H72   1.082206 S    
C213  C214  1.401096 A    
C17   C49   1.424997 A    
C82   C98   1.379969 A    
C94   C98   1.411201 A    
C227  C232  1.399064 A    
C53   C73   1.415649 A    
C18   C50   1.431321 A    
C55   C75   1.410368 A    
C189  H104  1.082280 S    
C199  C200  1.396255 A    
C83   H35   1.085465 S    
N3    C91   1.363085 A    
C148  H70   1.080782 S    
C90   H29   1.075848 S    
C215  C216  1.396036 A    
C19   C27   1.396334 A    
C106  C110  1.379888 A    
C203  C208  1.403046 A    
C113  C118  1.403040 A    
C105  H37   1.076605 S    
C150  C151  1.397984 A    
C42   C50   1.430882 A    
C100  C112  1.392604 A    
C122  H48   1.079850 S    
C120  H46   1.083097 S    
C177  C178  1.397579 A    
C195  C196  1.397607 A    
C127  H52   1.080355 S    
O3    C3    1.308516 A    
C218  H128  1.082209 S    
C64   C71   1.407591 A    
C81   C97   1.383518 A    
C93   C97   1.412832 A    
C95   C103  1.425681 A    
C103  C104  1.439508 A    
C125  C126  1.403824 A    
C101  C106  1.407680 A    
C151  C152  1.396548 A    
C178  H95   1.083160 S    
C82   C86   1.388152 A    
C60   C63   1.405444 A    
C80   C155  1.477486 S    
C21   C29   1.403240 A    
C219  C220  1.398961 A    
O9    Zn2   1.990917 S    
C23   C55   1.425203 A    
C128  C129  1.398417 A    
C194  C195  1.396786 A    
C203  C204  1.405621 A    
C19   C173  1.472942 S    
C153  H74   1.080234 S    
C51   C79   1.413413 A    
O7    Zn4   1.987455 S    
C9    C25   1.396700 A    
Zn1   N2    2.054601 S    
C8    C13   1.469376 S    
C46   C62   1.420081 A    
C97   C109  1.392733 A    
C163  H82   1.082327 S    
O15   Zn3   1.988792 S    
C211  C212  1.395077 A    
C33   H2    1.065913 S    
C21   C185  1.489625 S    
O12   C4    1.318164 A    
O13   C5    1.319620 A    
O2    Zn2   1.988938 S    
C198  C199  1.398113 A    
C65   H17   1.068362 S    
C40   H7    1.076305 S    
C81   C85   1.388097 A    
C61   C70   1.406817 A    
C43   C51   1.425979 A    
C15   C31   1.396869 A    
C125  C130  1.402418 A    
C179  C180  1.406944 A    
C17   C25   1.400109 A    
C228  C229  1.399566 A    
C86   C209  1.475182 S    
C181  C182  1.396495 A    
C191  C196  1.406395 A    
C32   H15   1.085008 S    
C172  H90   1.083330 S    
C20   C28   1.399822 A    
C205  H117  1.082283 S    
C154  H75   1.082896 S    
O3    Zn2   1.987455 S    
C141  H64   1.080595 S    
C36   H3    1.064627 S    
C221  C222  1.395229 A    
C31   H16   1.082866 S    
N4    C88   1.374708 A    
C223  H132  1.081233 S    
C216  C217  1.399660 A    
C56   C76   1.421252 A    
C225  H134  1.080798 S    
C57   C62   1.405359 A    
O10   C2    1.314829 A    
C24   C203  1.476552 S    
C177  H94   1.082280 S    
C201  C202  1.397919 A    
O4    C4    1.302113 A    
O5    C5    1.310224 A    
C133  C134  1.396655 A    
N2    C86   1.380278 A    
C149  C154  1.404227 A    
C69   C77   1.393498 A    
C14   C38   1.379915 A    
C1    C12   1.461739 S    
C19   C51   1.427396 A    
C2    C11   1.465445 S    
C84   H36   1.085853 S    
C224  C225  1.396160 A    
C140  H63   1.081187 S    
C3    C10   1.469179 S    
C217  H127  1.080923 S    
C124  H50   1.081177 S    
C181  H97   1.082427 S    
C215  C220  1.395266 A    
C168  H86   1.083408 S    
C47   C63   1.416784 A    
C121  C122  1.398656 A    
C146  H68   1.078158 S    
C34   H1    1.073628 S    
C91   C95   1.428690 A    
O4    Zn1   1.987457 S    
C207  H119  1.081854 S    
C221  C226  1.395941 A    
C10   C34   1.386159 A    
C212  H123  1.082193 S    
C62   C69   1.413825 A    
C165  H84   1.082397 S    
C182  H98   1.082272 S    
C74   C119  1.476958 S    
C162  H81   1.082425 S    
C59   C64   1.400063 A    
O11   Zn1   1.988792 S    
C131  C136  1.406904 A    
C46   C54   1.426368 A    
C147  C148  1.394863 A    
C158  C159  1.395183 A    
C206  H118  1.079680 S    
C24   C56   1.428667 A    
C39   C47   1.393819 A    
C208  H120  1.083113 S    
O5    Zn3   1.988937 S    
C33   C41   1.393476 A    
O6    Zn4   1.988938 S    
C41   C57   1.416313 A    
C229  C230  1.394741 A    
C35   C43   1.397914 A    
C36   C44   1.395453 A    
C83   C99   1.379429 A    
C144  C145  1.397282 A    
C16   C32   1.393271 A    
Zn4   N3    2.054599 S    
C24   C32   1.398077 A    
C92   H31   1.075349 S    
C174  H91   1.083149 S    
C132  H56   1.083005 S    
C71   H23   1.063609 S    
C168  C169  1.398103 A    
C105  C109  1.380322 A    
C91   H32   1.075836 S    
C200  H113  1.082428 S    
C152  H73   1.082420 S    
C76   C131  1.485725 S    
C150  H71   1.083216 S    
C106  H38   1.076404 S    
C107  C111  1.378704 A    
C108  C112  1.380360 A    
C171  C172  1.397291 A    
C73   C113  1.481574 S    
C200  C201  1.396287 A    
C195  H109  1.082310 S    
C35   H4    1.070548 S    
C85   C215  1.468473 S    
C220  H130  1.074751 S    
O12   Zn2   1.988794 S    
C147  H69   1.082444 S    
C67   H19   1.075927 S    
C137  C138  1.403549 A    
C84   C88   1.388031 A    
C7    C14   1.461153 S    
C175  C176  1.398114 A    
C121  H47   1.081181 S    
C22   C30   1.399313 A    
O10   Zn1   1.990918 S    
C119  C124  1.404297 A    
C192  C193  1.397758 A    
C169  H87   1.082416 S    
C143  C148  1.404546 A    
C47   C55   1.422282 A    
C58   C65   1.412953 A    
C115  H42   1.082132 S    
C190  H105  1.083085 S    
C152  C153  1.396418 A    
C20   C52   1.426858 A    
C166  H85   1.083200 S    
C42   C58   1.424619 A    
C197  C202  1.407627 A    
C198  H111  1.082427 S    
C117  H44   1.078007 S    
C184  H100  1.082905 S    
C98   C110  1.391990 A    
C191  C192  1.406793 A    
C48   C56   1.428073 A    
C129  H54   1.080728 S    
O1    C1    1.302850 A    
C128  H53   1.081099 S    
C38   H5    1.065100 S    
O14   C6    1.318643 A    
C159  C160  1.395455 A    
N4    C92   1.360516 A    
C96   C104  1.425192 A    
O7    C7    1.302938 A    
O8    C8    1.309471 A    
C29   H14   1.082903 S    
C111  H27   1.084421 S    
C179  C184  1.406451 A    
C23   C197  1.488705 S    
C18   C26   1.396417 A    
C21   C53   1.427200 A    
C230  H138  1.082211 S    
C167  C168  1.404948 A    
C210  C211  1.397559 A    
C169  C170  1.397379 A    
C71   C79   1.394112 A    
C157  H77   1.081226 S    
C49   C77   1.410088 A    
C68   C76   1.400462 A    
C126  H51   1.082016 S    
C44   C60   1.420109 A    
C54   C74   1.412796 A    
C204  C205  1.395588 A    
C140  C141  1.398440 A    
C209  C210  1.389243 A    
C225  C226  1.399777 A    
C134  C135  1.396270 A    
C142  H65   1.083142 S    
O11   C3    1.318712 A    
C112  H28   1.083283 S    
N3    C87   1.379449 A    
C72   H24   1.079128 S    
C52   C80   1.412927 A    
C201  H114  1.082386 S    
C133  H57   1.082305 S    
C13   C29   1.397350 A    
C149  C150  1.405379 A    
O6    C6    1.301946 A    
C22   C191  1.485591 S    
C15   C39   1.380723 A    
C176  C177  1.396711 A    
C224  H133  1.082223 S    
C217  C218  1.396182 A    
C89   H30   1.075476 S    
C156  H76   1.083090 S    
C218  C219  1.396012 A    
C88   C221  1.468472 S    
C102  C105  1.406654 A    
C130  H55   1.083169 S    
C146  C147  1.394736 A    
O13   Zn4   1.990917 S    
O14   Zn3   1.990918 S    
C68   H20   1.078726 S    
C114  H41   1.083212 S    
C96   C100  1.412760 A    
C193  C194  1.396516 A    
C11   C27   1.393564 A    
C165  C166  1.397821 A    
C12   C28   1.395242 A    
C59   C68   1.405931 A    
C10   C26   1.392070 A    
C114  C115  1.398084 A    
C186  H101  1.082004 S    
C22   C54   1.426808 A    
C158  H78   1.079959 S    
C48   C64   1.419977 A    
C139  C140  1.395763 A    
C160  H80   1.081019 S    
C90   C94   1.428892 A    
C231  H139  1.080917 S    
C222  H131  1.074441 S    
C34   C42   1.402839 A    
N1    C89   1.361805 A    
C229  H137  1.081476 S    
C137  C142  1.402238 A    
C122  C123  1.395123 A    
Zn2   N1    2.054599 S    
C144  H66   1.083094 S    
C155  C156  1.402237 A    
C63   C72   1.410326 A    
C45   C61   1.417702 A    
C173  C174  1.400901 A    
C104  C107  1.407472 A    
C134  H58   1.081949 S    
C196  H110  1.082950 S    
C66   H18   1.079288 S    
C17   C161  1.488103 S    
C103  C108  1.406858 A    
C155  C160  1.404484 A    
C145  C146  1.398756 A    
C109  H25   1.083515 S    
C116  C117  1.397019 A    
C107  H39   1.076164 S    
C89   C93   1.427897 A    
C186  C187  1.398163 A    
C108  H40   1.076632 S    
C25   H10   1.082928 S    
C182  C183  1.396758 A    
C92   C96   1.426890 A    
C37   C45   1.397036 A    
C185  C190  1.407697 A    
C231  C232  1.400804 A    
C175  H92   1.079449 S    
C30   H13   1.083471 S    
C94   C102  1.426133 A    
C227  C228  1.385863 A    
C170  C171  1.397322 A    
C197  C198  1.406912 A    
C101  C102  1.439829 A    
C174  C175  1.394973 A    
C139  H62   1.080175 S    
C58   C61   1.402905 A    
C23   C31   1.400340 A    
C189  C190  1.397921 A    
C69   H21   1.075991 S    
C199  H112  1.082386 S    
C82   H34   1.084923 S    
C183  H99   1.082399 S    
C143  C144  1.402472 A    
C79   C149  1.481869 S    
C120  C121  1.396349 A    
C115  C116  1.396994 A    
C164  C165  1.396262 A    
C40   C48   1.404369 A    
C113  C114  1.406192 A    
C26   H9    1.084577 S    
C163  C164  1.396340 A    
O8    Zn3   1.987457 S    
C11   C35   1.387723 A    
C12   C36   1.379703 A    
C27   H12   1.084815 S    
O16   Zn4   1.988794 S    
C187  C188  1.396125 A    
O2    C2    1.308229 A    
C127  C128  1.395660 A    
C159  H79   1.081720 S    
C161  C166  1.407523 A    
C99   C111  1.391677 A    
C93   C101  1.426377 A    
C5    C16   1.474301 S    
C43   C59   1.420984 A    
C185  C186  1.406760 A    
C188  C189  1.396429 A    
C95   C99   1.411566 A    
C6    C15   1.460092 S    
C81   H33   1.086024 S    
C60   C67   1.413739 A    
C83   C87   1.387452 A    
C135  H59   1.082169 S    
C219  H129  1.081219 S    
C167  C172  1.405806 A    
C210  H121  1.063837 S    
C117  C118  1.395176 A    
C45   C53   1.420672 A    
C194  H108  1.082297 S    
Zn3   N4    2.054601 S    
C138  H61   1.082124 S    
C66   C74   1.392716 A    
C38   C46   1.395520 A    
C132  C133  1.398140 A    
C126  C127  1.395855 A    
C164  H83   1.082343 S    
C226  H135  1.077042 S    
C161  C162  1.406661 A    
C209  C214  1.402276 A    
C145  H67   1.082054 S    
O15   C7    1.318967 A    
C211  H122  1.082117 S    
O16   C8    1.314925 A    
C204  H116  1.083227 S    
O1    Zn1   1.988937 S    
C70   H22   1.081910 S    
C65   C73   1.397039 A    
C4    C9    1.459518 S    
C232  H140  1.076510 S    
C14   C30   1.394838 A    
C176  H93   1.082182 S    
C84   C100  1.383569 A    
C228  H136  1.066021 S    
C162  C163  1.398023 A    
C180  C181  1.397669 A    
C135  C136  1.397735 A    
C123  H49   1.081359 S    
C67   C75   1.393356 A    
C119  C120  1.402160 A    
C202  H115  1.083192 S    
C193  H107  1.082409 S    
N1    C85   1.374897 A    
C157  C158  1.398727 A    
C170  H88   1.082285 S    
C141  C142  1.395455 A    
C214  H125  1.079048 S    
C205  C206  1.395049 A    
C223  C224  1.395952 A    
C216  H126  1.076833 S    
O9    C1    1.319337 A    
C57   C66   1.409870 A    
C136  H60   1.083097 S    
C78   C143  1.477189 S    
C156  C157  1.396444 A    
C222  C223  1.398909 A    
C72   C80   1.392895 A    
C180  H96   1.083373 S    
C41   C49   1.421644 A    
C213  H124  1.080971 S    
C183  C184  1.397685 A    
N2    C90   1.363484 A    
C13   C37   1.390207 A    
C173  C178  1.404331 A    
C171  H89   1.082362 S    
C16   C40   1.388263 A    
C153  C154  1.398105 A    
C39   H8    1.065727 S    
C123  C124  1.395339 A    
C20   C179  1.485976 S    
C18   C167  1.479843 S    
C207  C208  1.397399 A    
C230  C231  1.394961 A    
C9    C33   1.381030 A    
C212  C213  1.395796 A    
C77   C137  1.476412 S    
C192  H106  1.083316 S    
C37   H6    1.068732 S    
C118  H45   1.083152 S    
C44   C52   1.426110 A    
C138  C139  1.395776 A    
C116  H43   1.082443 S    
C110  H26   1.084741 S    
C28   H11   1.083461 S    
C75   C125  1.477048 S    
C131  C132  1.406558 A    
C188  H103  1.082357 S    
C87   C227  1.473973 S    
C129  C130  1.395606 A    
C206  C207  1.399210 A    
C187  H102  1.082358 S    
C70   C78   1.398015 A    
C50   C78   1.418569 A    
