data_mof_unit_16640.cif
_audit_creation_date              2012-12-10T17:55:49-0500
_audit_creation_method            fapswitch 2.2
_symmetry_space_group_name_H-M    P1
_symmetry_Int_Tables_number       1
_space_group_crystal_system       triclinic
_cell_length_a                    11.061727
_cell_length_b                    10.822606
_cell_length_c                    9.592177
_cell_angle_alpha                 90.623058
_cell_angle_beta                  103.722609
_cell_angle_gamma                 92.242487
_cell_volume                      1114.47043336

loop_
_atom_site_label
_atom_site_type_symbol
_atom_type_description
_atom_site_fract_x
_atom_site_fract_y
_atom_site_fract_z
_atom_type_partial_charge
C1    C     C_R   0.497284 0.262300 0.498960 0.838386
C2    C     C_R   0.502391 0.737683 0.500930 0.845121
C3    C     C_R   0.262391 0.500302 0.440585 0.819027
C4    C     C_R   0.737939 0.497443 0.559273 0.797145
C5    C     C_R   0.423868 0.417277 0.049390 0.244892
C6    C     C_R   0.575304 0.583670 0.950433 0.238548
C7    C     C_R   0.427396 0.416947 0.902402 -0.032685
C8    C     C_R   0.571982 0.583528 0.097558 -0.037325
C9    C     C_2   0.126189 0.507159 0.404924 0.001134
C10   C     C_2   0.874904 0.490291 0.593260 0.005418
C11   C     C_2   0.064540 0.463177 0.501089 -0.195641
C12   C     C_2   0.929443 0.469611 0.483468 -0.164941
C13   C     C_R   0.549969 0.066914 0.401607 -0.377764
C14   C     C_R   0.448978 0.932992 0.597805 -0.378264
C15   C     C_R   0.555223 0.938407 0.402078 0.430143
C16   C     C_R   0.443789 0.061529 0.597379 0.430040
C17   C     C_R   0.503522 0.871736 0.500815 -0.102945
C18   C     C_R   0.495667 0.128206 0.498789 -0.097838
Cu1   Cu    Cu3+1 0.500000 0.500020 0.640660 0.941797
Cu2   Cu    Cu3+1 0.500000 0.499980 0.359340 0.941304
H1    H     H_    0.871893 0.454481 0.375837 0.153784
H2    H     H_    0.116686 0.422230 0.598718 0.165376
H3    H     H_    0.370461 0.350677 0.827229 0.183090
H4    H     H_    0.627409 0.650480 0.172847 0.190314
H5    H     H_    0.590826 0.119379 0.327371 0.163456
H6    H     H_    0.408071 0.880494 0.671977 0.164272
N1    N     N_R   0.500030 0.500030 0.852080 -0.204566
N2    N     N_R   0.499970 0.499970 0.147920 -0.205073
O1    O     O_R   0.499990 0.319660 0.618740 -0.530301
O2    O     O_R   0.500010 0.680340 0.381260 -0.530565
O3    O     O_R   0.499990 0.319630 0.381170 -0.624603
O4    O     O_R   0.500010 0.680370 0.618830 -0.620032
O5    O     O_R   0.320690 0.500020 0.575130 -0.589283
O6    O     O_R   0.679310 0.499980 0.424870 -0.588775
O7    O     O_R   0.320680 0.499990 0.337560 -0.588153
O8    O     O_R   0.679320 0.500010 0.662440 -0.596116
C19   C     C_3   0.332897 0.323131 0.088717 -0.359074
C20   C     C_3   0.199284 0.339537 0.003212 -0.931965
H7    H     H_    0.177023 0.438648 0.001688 0.264530
H8    H     H_    0.186169 0.304231 0.891349 0.247876
H9    H     H_    0.133125 0.286515 0.053169 0.249777
H10   H     H_    0.360998 0.228548 0.067605 0.184303
H11   H     H_    0.329844 0.327452 0.201079 0.264520
C21   C     C_3   0.661695 0.681965 0.909399 -0.361983
C22   C     C_3   0.794542 0.681348 0.003176 -0.935330
H12   H     H_    0.800110 0.722266 0.111164 0.260713
H13   H     H_    0.827112 0.585562 0.014407 0.255927
H14   H     H_    0.857969 0.738201 0.953293 0.257770
H15   H     H_    0.671080 0.671495 0.799588 0.268962
H16   H     H_    0.623709 0.774369 0.919246 0.190173
C23   C     C_3   0.949141 0.505758 0.747630 -0.402947
C24   C     C_3   0.019755 0.631155 0.774993 -0.813041
H17   H     H_    0.092991 0.638587 0.713688 0.267935
H18   H     H_    0.954423 0.706896 0.743459 0.248695
H19   H     H_    0.065233 0.642424 0.891027 0.235729
H20   H     H_    0.886857 0.497683 0.822226 0.220094
H21   H     H_    0.014219 0.429848 0.775231 0.201873
C25   C     C_3   0.064316 0.571989 0.268190 -0.395728
C26   C     C_3   0.106065 0.708633 0.275059 -0.812106
H22   H     H_    0.081534 0.755586 0.367561 0.254984
H23   H     H_    0.208141 0.719649 0.286013 0.255875
H24   H     H_    0.058489 0.753988 0.174852 0.240294
H25   H     H_    0.088885 0.526490 0.175230 0.208764
H26   H     H_    0.961769 0.567213 0.246545 0.209557
O9    O     O_3   0.612743 0.876972 0.310100 -0.744929
H27   H     H_    0.643412 0.937685 0.248379 0.314432
O10   O     O_3   0.386304 0.123006 0.689354 -0.748170
H28   H     H_    0.355476 0.062277 0.750935 0.314118

loop_
_geom_bond_atom_site_label_1
_geom_bond_atom_site_label_2
_ccdc_geom_bond_type
C21   H15   S    
C19   H11   S    
C6    C8    A    
C11   C12   S    
C4    O8    A    
C19   C20   S    
C23   H21   S    
C14   C16   A    
C5    C19   S    
C5    N2    A    
Cu1   N1    S    
C11   H2    S    
Cu1   Cu2   S    
C24   H19   S    
C3    O7    A    
C2    O2    A    
Cu2   O6    S    
C13   C15   A    
C5    C7    A    
C26   H22   S    
C16   O10   S    
Cu2   O2    S    
C22   H12   S    
C14   H6    S    
C2    C17   S    
C20   H8    S    
C9    C11   D    
C14   C17   A    
C13   H5    S    
C1    C18   S    
C10   C12   D    
C13   C18   A    
O10   H28   S    
C3    C9    S    
Cu1   O4    S    
C1    O1    A    
C8    H4    S    
C24   H18   S    
C23   H20   S    
C4    O6    A    
Cu1   O8    S    
C22   H13   S    
C25   H26   S    
C20   H7    S    
C8    N2    A    
C7    H3    S    
C26   H23   S    
C3    O5    A    
C4    C10   S    
C23   C24   S    
Cu1   O1    S    
C25   H25   S    
C10   C23   S    
C1    O3    A    
C7    N1    A    
C24   H17   S    
C20   H9    S    
C2    O4    A    
O9    H27   S    
Cu1   O5    S    
C22   H14   S    
C21   H16   S    
C19   H10   S    
C15   C17   A    
C9    C25   S    
C26   H24   S    
C6    C21   S    
Cu2   N2    S    
C25   C26   S    
Cu2   O7    S    
C12   H1    S    
C16   C18   A    
C21   C22   S    
C6    N1    A    
Cu2   O3    S    
C15   O9    S    
