data_mof_unit_30281.cif
_audit_creation_date              2012-12-11T14:08:33-0500
_audit_creation_method            fapswitch 2.2
_symmetry_space_group_name_H-M    P1
_symmetry_Int_Tables_number       1
_space_group_crystal_system       triclinic
_cell_length_a                    28.087824
_cell_length_b                    7.177228
_cell_length_c                    17.143026
_cell_angle_alpha                 90.491573
_cell_angle_beta                  100.760674
_cell_angle_gamma                 90.412793
_cell_volume                      3394.87783864

loop_
_atom_site_label
_atom_site_type_symbol
_atom_type_description
_atom_site_fract_x
_atom_site_fract_y
_atom_site_fract_z
_atom_type_partial_charge
O1    O     O_R   0.000700 0.436510 0.857920 -0.533607
O2    O     O_R   0.999300 0.563490 0.142080 -0.533581
O3    O     O_R   0.999300 0.936510 0.642080 -0.533827
O4    O     O_R   0.000700 0.063490 0.357920 -0.533839
O5    O     O_R   0.930080 0.766380 0.721890 -0.521624
O6    O     O_R   0.069920 0.233620 0.278110 -0.521630
O7    O     O_R   0.069920 0.266380 0.778110 -0.522019
O8    O     O_R   0.930080 0.733620 0.221890 -0.521961
C1    C     C_R   0.910451 0.596456 0.708597 0.767696
C2    C     C_R   0.089549 0.403541 0.291449 0.767652
C3    C     C_R   0.089532 0.098500 0.790854 0.768468
C4    C     C_R   0.910468 0.901492 0.209093 0.768469
O9    O     O_R   0.996180 0.766230 0.862310 -0.542770
O10   O     O_R   0.003820 0.233770 0.137690 -0.542787
O11   O     O_R   0.003820 0.266230 0.637690 -0.539423
O12   O     O_R   0.996180 0.733770 0.362310 -0.539419
O13   O     O_R   0.065870 0.936460 0.783500 -0.524171
O14   O     O_R   0.934130 0.063540 0.216500 -0.524171
O15   O     O_R   0.934130 0.436460 0.716500 -0.522948
O16   O     O_R   0.065870 0.563540 0.283500 -0.522905
C5    C     C_R   0.998394 0.596888 0.894607 0.780092
C6    C     C_R   0.001608 0.403112 0.105393 0.780185
C7    C     C_R   0.001848 0.096131 0.605644 0.792060
C8    C     C_R   0.998149 0.903869 0.394356 0.792069
O17   O     O_3   0.022790 0.603020 0.723980 -0.364827
O18   O     O_3   0.977210 0.396980 0.276020 -0.364816
O19   O     O_3   0.977210 0.103020 0.776020 -0.367210
O20   O     O_3   0.022790 0.896980 0.223980 -0.367188
V1    V     V_3+5 0.995770 0.877900 0.754830 1.547892
V2    V     V_3+5 0.004230 0.122100 0.245170 1.547886
V3    V     V_3+5 0.004230 0.377900 0.745170 1.551383
V4    V     V_3+5 0.995770 0.622100 0.254830 1.551452
C9    C     C_2   0.001936 0.082673 0.519731 -0.288202
C10   C     C_2   0.998061 0.917327 0.480268 -0.288224
C11   C     C_2   0.998203 0.583017 0.980743 -0.288560
C12   C     C_2   0.001798 0.416983 0.019257 -0.288589
H1    H     H_    0.004903 0.211840 0.488338 0.154876
H2    H     H_    0.995094 0.788160 0.511661 0.154909
H3    H     H_    0.995248 0.712017 0.013015 0.152928
H4    H     H_    0.004753 0.287983 0.986985 0.152927
C13   C     C_R   0.685110 0.014574 0.030712 0.635453
C14   C     C_R   0.314847 0.983833 0.968517 0.634897
C15   C     C_R   0.316803 0.421688 0.470615 0.622357
C16   C     C_R   0.683182 0.579103 0.530049 0.622444
O21   O     O_2   0.716424 0.072433 0.985181 -0.495871
O22   O     O_2   0.283478 0.925139 0.013799 -0.495705
O23   O     O_2   0.287705 0.358797 0.519014 -0.497998
O24   O     O_2   0.712276 0.642872 0.481816 -0.497989
N1    N     N_R   0.702926 0.964213 0.107198 -0.543064
N2    N     N_R   0.297086 0.035487 0.892188 -0.543163
N3    N     N_R   0.297800 0.447267 0.392142 -0.541853
N4    N     N_R   0.702182 0.552560 0.608451 -0.541928
C17   C     C_R   0.672604 0.936400 0.159888 0.686587
C18   C     C_R   0.327442 0.064341 0.839641 0.687107
C19   C     C_R   0.327133 0.480367 0.338353 0.690242
C20   C     C_R   0.672855 0.518493 0.662156 0.690778
C21   C     C_R   0.780396 0.070816 0.187464 -0.139122
C22   C     C_R   0.219587 0.929393 0.811883 -0.139045
C23   C     C_R   0.224486 0.292977 0.318064 -0.150030
C24   C     C_R   0.775517 0.706508 0.682634 -0.149903
C25   C     C_R   0.830297 0.054075 0.214206 0.122585
C26   C     C_R   0.169667 0.946116 0.785332 0.122286
C27   C     C_R   0.174327 0.282465 0.291914 0.129132
C28   C     C_R   0.825692 0.717168 0.708570 0.128690
C29   C     C_R   0.830348 0.778119 0.129811 0.041460
C30   C     C_R   0.169705 0.221652 0.869996 0.041557
C31   C     C_R   0.165495 0.567904 0.366816 0.050126
C32   C     C_R   0.834478 0.432276 0.633287 0.050028
C33   C     C_R   0.779611 0.795831 0.104214 0.441311
C34   C     C_R   0.220450 0.203918 0.895430 0.441354
C35   C     C_R   0.216468 0.579881 0.389705 0.447942
C36   C     C_R   0.783501 0.420220 0.610550 0.447829
C37   C     C_R   0.754749 0.943818 0.132871 0.229291
C38   C     C_R   0.245275 0.056146 0.866541 0.229442
C39   C     C_R   0.245805 0.439942 0.366352 0.223864
C40   C     C_R   0.754177 0.559792 0.634217 0.224038
C41   C     C_R   0.602434 0.985504 0.054377 -0.148119
C42   C     C_R   0.397556 0.013761 0.945103 -0.147746
C43   C     C_R   0.397953 0.477656 0.445284 -0.150500
C44   C     C_R   0.602041 0.522188 0.555219 -0.150366
C45   C     C_R   0.634633 0.012078 0.000676 -0.084532
C46   C     C_R   0.365314 0.985989 0.998639 -0.084407
C47   C     C_R   0.366485 0.453909 0.500111 -0.086305
C48   C     C_R   0.633513 0.546896 0.500467 -0.085855
C49   C     C_R   0.615201 0.032268 0.919056 0.219192
C50   C     C_R   0.384693 0.964172 0.080187 0.218113
C51   C     C_R   0.385654 0.467307 0.582169 0.232088
C52   C     C_R   0.614368 0.534430 0.418382 0.231028
C53   C     C_R   0.621681 0.951402 0.135418 -0.120029
C54   C     C_R   0.378359 0.049227 0.864150 -0.120021
C55   C     C_R   0.378163 0.490872 0.363166 -0.118937
C56   C     C_R   0.621823 0.507952 0.637312 -0.118764
C57   C     C_R   0.856555 0.910297 0.184270 -0.191202
C58   C     C_R   0.143450 0.089672 0.815503 -0.191174
C59   C     C_R   0.143493 0.417179 0.317448 -0.201325
C60   C     C_R   0.856502 0.582790 0.682749 -0.201099
C61   C     C_R   0.480872 0.034726 0.918552 0.001807
C62   C     C_R   0.519125 0.964966 0.081084 0.001891
C63   C     C_R   0.519535 0.485527 0.582594 0.002773
C64   C     C_R   0.480463 0.513983 0.417816 0.002666
C65   C     C_R   0.467815 0.973418 0.053843 0.035076
C66   C     C_R   0.532149 0.025058 0.945681 0.034894
C67   C     C_R   0.531659 0.519368 0.445151 0.031786
C68   C     C_R   0.468346 0.480854 0.555294 0.031325
C69   C     C_R   0.448883 0.006057 0.972464 0.070451
C70   C     C_R   0.551100 0.993079 0.027087 0.070323
C71   C     C_R   0.550923 0.510218 0.527671 0.070304
C72   C     C_R   0.449077 0.489644 0.472778 0.070176
C73   C     C_R   0.460463 0.074727 0.838869 -0.299373
C74   C     C_R   0.539608 0.927023 0.160955 -0.299164
C75   C     C_R   0.540424 0.460126 0.663252 -0.300740
C76   C     C_R   0.459546 0.538156 0.337083 -0.300426
C77   C     C_R   0.410313 0.071685 0.810290 0.516177
C78   C     C_R   0.589774 0.930362 0.189435 0.516105
C79   C     C_R   0.590474 0.479374 0.691803 0.518029
C80   C     C_R   0.409511 0.518351 0.308600 0.517494
O25   O     O_2   0.308188 0.108160 0.764052 -0.451681
O26   O     O_2   0.691898 0.893713 0.235590 -0.451803
O27   O     O_2   0.693214 0.495201 0.739124 -0.462010
O28   O     O_2   0.306779 0.502786 0.261327 -0.462062
C81   C     C_R   0.565252 0.038897 0.893157 -0.241369
C82   C     C_R   0.434637 0.957521 0.106173 -0.240982
C83   C     C_R   0.435528 0.479044 0.608436 -0.236671
C84   C     C_R   0.564506 0.522318 0.392057 -0.236685
H5    H     H_    0.238954 0.818173 0.788663 0.187623
H6    H     H_    0.761003 0.182189 0.210523 0.187677
H7    H     H_    0.752553 0.811346 0.701883 0.193949
H8    H     H_    0.247464 0.187880 0.299032 0.193825
H9    H     H_    0.482491 0.114722 0.796834 0.127256
H10   H     H_    0.517661 0.888929 0.203343 0.127136
H11   H     H_    0.518714 0.417389 0.705489 0.127880
H12   H     H_    0.481186 0.580104 0.294641 0.128111
H13   H     H_    0.553606 0.047941 0.829948 0.143612
H14   H     H_    0.446158 0.946292 0.169309 0.143817
H15   H     H_    0.447424 0.496003 0.671553 0.143196
H16   H     H_    0.552684 0.506163 0.328904 0.142918
I1    I     I_    0.864852 0.548848 0.082671 -0.337094
I2    I     I_    0.135258 0.450569 0.917480 -0.336420
I3    I     I_    0.125209 0.783365 0.412138 -0.330919
I4    I     I_    0.874744 0.217308 0.587612 -0.330815
O29   O     O_3   0.753161 0.656958 0.058394 -0.546785
C85   C     C_3   0.755150 0.679946 0.977139 -0.033839
H17   H     H_    0.767029 0.547239 0.953513 0.194563
H18   H     H_    0.780023 0.793009 0.964328 0.145703
H19   H     H_    0.718145 0.707820 0.943804 0.173437
O30   O     O_3   0.246923 0.342581 0.941349 -0.546575
C86   C     C_3   0.245109 0.318748 0.022619 -0.033214
H20   H     H_    0.219954 0.206576 0.035305 0.145195
H21   H     H_    0.233668 0.451666 0.046709 0.195112
H22   H     H_    0.282088 0.289093 0.055630 0.172402
O31   O     O_3   0.238251 0.740797 0.425542 -0.546485
C87   C     C_3   0.240227 0.738091 0.508586 -0.054057
H23   H     H_    0.220958 0.618310 0.530398 0.157247
H24   H     H_    0.224158 0.868506 0.526794 0.188372
H25   H     H_    0.278694 0.738115 0.538866 0.166988
O32   O     O_3   0.761712 0.259568 0.574470 -0.546340
C88   C     C_3   0.759643 0.263181 0.491412 -0.053593
H26   H     H_    0.775812 0.133267 0.472925 0.188540
H27   H     H_    0.778759 0.383566 0.469735 0.157183
H28   H     H_    0.721152 0.262811 0.461237 0.166606
I5    I     I_    0.656022 0.028074 0.825325 -0.271033
I6    I     I_    0.343777 0.965898 0.173811 -0.269969
I7    I     I_    0.343465 0.508386 0.672508 -0.278988
I8    I     I_    0.656600 0.495299 0.327969 -0.278607
I9    I     I_    0.138735 0.756928 0.693004 -0.318087
I10   I     I_    0.861118 0.243544 0.306499 -0.317488
I11   I     I_    0.849365 0.933015 0.793426 -0.297745
I12   I     I_    0.150753 0.066348 0.207137 -0.297035
O33   O     O_3   0.391965 0.106047 0.730672 -0.508411
C89   C     C_3   0.413541 0.990239 0.680160 -0.136463
H29   H     H_    0.421561 0.848137 0.704571 0.117397
H30   H     H_    0.446962 0.056936 0.667174 0.116807
H31   H     H_    0.387887 0.973651 0.622852 0.183556
O34   O     O_3   0.608194 0.897696 0.269179 -0.508280
C90   C     C_3   0.586613 0.014481 0.319335 -0.136156
H32   H     H_    0.553340 0.947701 0.332860 0.117038
H33   H     H_    0.578351 0.155878 0.294306 0.116877
H34   H     H_    0.612368 0.032763 0.376442 0.183644
O35   O     O_3   0.609810 0.453515 0.771820 -0.508362
C91   C     C_3   0.584552 0.555995 0.821675 -0.136880
H35   H     H_    0.553773 0.472341 0.835345 0.120705
H36   H     H_    0.571672 0.693006 0.796263 0.113601
H37   H     H_    0.609568 0.584603 0.878754 0.178352
O36   O     O_3   0.390206 0.542568 0.228479 -0.508457
C92   C     C_3   0.415304 0.437727 0.179139 -0.136976
H38   H     H_    0.427890 0.300949 0.205174 0.113791
H39   H     H_    0.446270 0.519774 0.165176 0.120490
H40   H     H_    0.390274 0.408485 0.122135 0.178338

loop_
_geom_bond_atom_site_label_1
_geom_bond_atom_site_label_2
_ccdc_geom_bond_type
O17   V3    S    
C51   C83   A    
N1    C17   A    
C22   C26   A    
C88   H26   S    
C62   C74   A    
O19   V1    S    
C49   I5    S    
O33   C89   S    
O1    C5    A    
O3    C7    A    
C86   H20   S    
C14   C46   A    
C76   C80   A    
C52   C84   A    
O15   V3    S    
O4    V2    S    
C90   H33   S    
C68   C83   A    
C42   C54   A    
O7    C3    A    
C44   C71   A    
C41   C53   A    
C32   C60   A    
C42   C69   A    
C36   O32   S    
O9    V1    S    
C41   C70   A    
C86   H21   S    
N3    C39   S    
C18   C54   A    
C28   I11   S    
N2    C38   S    
O4    C8    A    
C25   C57   A    
C92   H39   S    
C31   C35   A    
C89   H29   S    
C33   O29   S    
C27   C59   A    
C15   C47   A    
O1    V3    S    
O13   V1    S    
O36   C92   S    
O2    V4    S    
C25   I10   S    
C14   O22   S    
C54   C77   A    
C21   C37   A    
O3    V1    S    
C34   C38   A    
C82   H14   S    
C19   C55   A    
O34   C90   S    
C1    O15   A    
C35   O31   S    
C11   C12   D    
C2    O16   A    
C7    C9    S    
O2    C6    A    
O31   C87   S    
C33   C37   A    
C34   O30   S    
O8    C4    A    
C66   C81   A    
C31   I3    S    
C51   I7    S    
C74   C78   A    
C43   C55   A    
C61   C66   A    
C91   H37   S    
C73   C77   A    
C30   C58   A    
C29   I1    S    
C16   N4    A    
O11   C7    A    
C63   C68   A    
C63   C75   A    
O12   C8    A    
C31   C59   A    
C85   H19   S    
O10   V2    S    
C67   C84   A    
C13   N1    A    
C91   H36   S    
C45   C49   A    
C90   H34   S    
O5    V1    S    
C19   O28   S    
C65   C69   A    
C64   C72   A    
O7    V3    S    
C84   H16   S    
C44   C48   A    
O8    V4    S    
C12   H4    S    
C86   H22   S    
C28   C60   A    
C55   C80   A    
C21   H6    S    
C17   O26   S    
C92   H40   S    
C77   O33   S    
N4    C40   S    
C23   H8    S    
C46   C50   A    
C24   C40   A    
C64   C67   A    
C8    C10   S    
C83   H15   S    
O32   C88   S    
C44   C56   A    
C11   H3    S    
O5    C1    A    
C61   C73   A    
C42   C46   A    
C90   H32   S    
C30   I2    S    
C87   H25   S    
C41   C45   A    
C32   C36   A    
C13   C45   A    
C9    C10   D    
O9    C5    A    
C36   C40   A    
N2    C18   A    
C76   H12   S    
O11   V3    S    
C1    C60   S    
C14   N2    A    
C50   I6    S    
C3    C58   S    
C75   H11   S    
C27   I12   S    
O6    V2    S    
C87   H24   S    
C64   C76   A    
C88   H28   S    
C26   C58   A    
C17   C53   A    
O14   V2    S    
C20   O27   S    
N1    C37   S    
C4    C57   S    
C32   I4    S    
C23   C39   A    
C68   C72   A    
C85   H18   S    
C63   C71   A    
C91   H35   S    
C22   C38   A    
O30   C86   S    
O16   V4    S    
C53   C78   A    
C3    O13   A    
C10   H2    S    
C24   H7    S    
C48   C52   A    
C16   C48   A    
C47   C51   A    
O6    C2    A    
C75   C79   A    
C21   C25   A    
O18   V4    S    
O12   V4    S    
C62   C65   A    
C6    C12   S    
C23   C27   A    
C65   C82   A    
C62   C70   A    
C24   C28   A    
C49   C81   A    
O10   C6    A    
O20   V2    S    
C5    C11   S    
C61   C69   A    
C52   I8    S    
O29   C85   S    
C35   C39   A    
C15   N3    A    
C92   H38   S    
C30   C34   A    
C89   H30   S    
C2    C59   S    
C29   C33   A    
C78   O34   S    
C80   O36   S    
C29   C57   A    
C43   C72   A    
C74   H10   S    
N3    C19   A    
C50   C82   A    
C56   C79   A    
C9    H1    S    
O35   C91   S    
C43   C47   A    
N4    C20   A    
C20   C56   A    
C26   I9    S    
C87   H23   S    
C22   H5    S    
C88   H27   S    
C18   O25   S    
C66   C70   A    
C4    O14   A    
C13   O21   S    
C85   H17   S    
C67   C71   A    
C81   H13   S    
C73   H9    S    
C15   O23   S    
C79   O35   S    
C16   O24   S    
C89   H31   S    
