data_mof_unit_53887.cif
_audit_creation_date              2012-12-10T17:45:35-0500
_audit_creation_method            fapswitch 2.2
_symmetry_space_group_name_H-M    P1
_symmetry_Int_Tables_number       1
_space_group_crystal_system       triclinic
_cell_length_a                    11.532369
_cell_length_b                    10.627607
_cell_length_c                    9.985473
_cell_angle_alpha                 89.996542
_cell_angle_beta                  89.68752
_cell_angle_gamma                 93.382547
_cell_volume                      1221.68403909

loop_
_atom_site_label
_atom_site_type_symbol
_atom_type_description
_atom_site_fract_x
_atom_site_fract_y
_atom_site_fract_z
_atom_type_partial_charge
C1    C     C_R   0.504234 0.261136 0.499977 0.866538
C2    C     C_R   0.511676 0.872275 0.499657 -0.093795
C3    C     C_R   0.364014 0.320884 0.149221 -0.129265
C4    C     C_R   0.282469 0.503466 0.500103 0.912405
C5    C     C_R   0.311921 0.215170 0.091745 -0.226600
C6    C     C_R   0.312725 0.203622 0.955565 -0.210052
C7    C     C_R   0.359637 0.301377 0.873866 0.006906
C8    C     C_R   0.431558 0.406095 0.930071 0.109288
C9    C     C_R   0.432619 0.409742 0.074951 0.158633
C10   C     C_R   0.564189 0.586749 0.070495 -0.102731
C11   C     C_R   0.563877 0.587061 0.928110 -0.103563
C12   C     C_R   0.787412 0.083164 0.686202 -0.126848
C13   C     C_R   0.503600 0.739353 0.499943 0.854541
C14   C     C_R   0.717803 0.500920 0.499705 0.867643
C15   C     C_1   0.161893 0.504481 0.500358 -0.175502
C16   C     C_1   0.059607 0.504301 0.500095 -0.001019
C17   C     C_1   0.940774 0.503245 0.499531 -0.001282
C18   C     C_1   0.838441 0.502095 0.499262 -0.189150
C19   C     C_R   0.697141 0.143268 0.625503 -0.174934
C20   C     C_1   0.307730 0.285846 0.744392 0.281097
C21   C     C_R   0.787411 0.952253 0.685756 -0.139974
C22   C     C_R   0.697116 0.880976 0.624653 -0.190036
C23   C     C_R   0.603996 0.940432 0.564182 0.097567
C24   C     C_R   0.604078 0.072393 0.564443 0.088579
C25   C     C_R   0.511982 0.129163 0.499848 -0.088245
C26   C     C_R   0.424448 0.059565 0.432870 -0.194842
C27   C     C_R   0.424336 0.930999 0.432651 -0.206549
H1    H     H_    0.354653 0.105031 0.383418 0.142940
H2    H     H_    0.347731 0.329763 0.253061 0.207797
H3    H     H_    0.265018 0.144767 0.152853 0.152580
H4    H     H_    0.264406 0.121906 0.913898 0.151498
H5    H     H_    0.616448 0.658498 0.874691 0.144401
H6    H     H_    0.702146 0.245060 0.625381 0.151907
H7    H     H_    0.858182 0.138400 0.732492 0.141946
H8    H     H_    0.858179 0.905792 0.731690 0.138145
H9    H     H_    0.702179 0.779716 0.623631 0.142251
H10   H     H_    0.354597 0.876845 0.382684 0.152968
H11   H     H_    0.617112 0.658000 0.123043 0.147443
N1    N     N_R   0.498930 0.498800 0.142780 -0.120270
N2    N     N_R   0.498900 0.498720 0.857170 -0.117767
N3    N     N_1   0.260815 0.262930 0.644242 -0.252203
O1    O     O_R   0.500000 0.316780 0.614690 -0.623273
O2    O     O_R   0.499990 0.316750 0.385360 -0.632430
O3    O     O_R   0.334450 0.500030 0.614670 -0.605757
O4    O     O_R   0.334440 0.500000 0.385330 -0.639308
O5    O     O_R   0.500010 0.683250 0.614640 -0.620015
O6    O     O_R   0.500000 0.683220 0.385310 -0.613801
O7    O     O_R   0.665560 0.500000 0.614670 -0.625078
O8    O     O_R   0.665550 0.499970 0.385330 -0.600478
Zn1   Zn    Zn3+2 0.500010 0.500020 0.653130 0.946588
Zn2   Zn    Zn3+2 0.499990 0.499980 0.346870 0.941109

loop_
_geom_bond_atom_site_label_1
_geom_bond_atom_site_label_2
_ccdc_geom_bond_type
N1    Zn2   S    
C23   C24   A    
C6    C7    A    
C3    C9    A    
C22   H9    S    
C14   C18   S    
C26   H1    S    
C10   H11   S    
C2    C27   A    
C4    C15   S    
O7    Zn1   S    
C19   C24   A    
C7    C8    A    
C21   C22   A    
C1    C25   S    
O2    Zn2   S    
C26   C27   A    
C13   O5    A    
C4    O3    A    
O1    Zn1   S    
C14   O7    A    
N2    Zn1   S    
C5    C6    A    
C12   C19   A    
C27   H10   S    
C11   H5    S    
C17   C18   T    
C4    O4    A    
C19   H6    S    
C11   N2    A    
C21   H8    S    
C14   O8    A    
C16   C17   S    
C10   C11   A    
O4    Zn2   S    
C12   H7    S    
C15   C16   T    
C1    O1    A    
C9    N1    A    
C24   C25   A    
C13   O6    A    
C7    C20   S    
C5    H3    S    
O3    Zn1   S    
C2    C23   A    
C3    H2    S    
C2    C13   S    
O5    Zn1   S    
C22   C23   A    
C8    C9    A    
C6    H4    S    
C8    N2    A    
C3    C5    A    
C25   C26   A    
C12   C21   A    
C1    O2    A    
O6    Zn2   S    
C20   N3    T    
C10   N1    A    
O8    Zn2   S    
