data_mof_unit_62395.cif
_audit_creation_date              2012-12-10T17:46:09-0500
_audit_creation_method            fapswitch 2.2
_symmetry_space_group_name_H-M    P1
_symmetry_Int_Tables_number       1
_space_group_crystal_system       triclinic
_cell_length_a                    16.068837
_cell_length_b                    17.841598
_cell_length_c                    17.75093
_cell_angle_alpha                 115.076034
_cell_angle_beta                  99.190729
_cell_angle_gamma                 76.376681
_cell_volume                      4469.34780397

loop_
_atom_site_label
_atom_site_type_symbol
_atom_type_description
_atom_site_fract_x
_atom_site_fract_y
_atom_site_fract_z
_atom_type_partial_charge
Br1   Br    Br    0.034578 0.372300 0.380046 -0.425446
Br2   Br    Br    0.345906 0.454311 0.804007 -0.327396
Br3   Br    Br    0.389172 0.834830 0.726325 -0.482283
Br4   Br    Br    0.710453 0.977414 0.269171 -0.349418
Br5   Br    Br    0.321440 0.311301 0.865999 -0.416378
C1    C     C_R   0.462579 0.457343 0.280702 0.799052
C2    C     C_R   0.493563 0.557763 0.928342 -0.080459
C3    C     C_R   0.512784 0.638102 0.981720 -0.032736
C4    C     C_R   0.537542 0.542898 0.719702 0.893702
C5    C     C_R   0.451607 0.516399 0.960446 -0.102315
C6    C     C_R   0.453342 0.542716 0.048031 -0.084293
C7    C     C_R   0.468644 0.625433 0.100056 0.411251
C8    C     C_R   0.498658 0.671083 0.066492 -0.092122
C9    C     C_R   0.402262 0.454234 0.909038 0.266966
C10   C     C_R   0.380642 0.401312 0.940113 0.194867
C11   C     C_R   0.403147 0.413802 0.024099 0.029152
C12   C     C_1   0.889074 0.475460 0.476080 -0.010272
C13   C     C_R   0.438312 0.485802 0.079174 0.046640
C14   C     C_R   0.389455 0.356969 0.054970 -0.096705
C15   C     C_R   0.410432 0.370256 0.138282 -0.187373
C16   C     C_R   0.461975 0.723718 0.548179 0.943969
C17   C     C_R   0.462569 0.495441 0.162368 -0.209544
C18   C     C_R   0.558732 0.185553 0.435493 -0.089461
C19   C     C_R   0.448246 0.814253 0.570615 -0.114716
C20   C     C_R   0.637082 0.044545 0.359627 0.337788
C21   C     C_R   0.614898 0.129852 0.374603 -0.242328
C22   C     C_R   0.525076 0.155409 0.482477 -0.211993
C23   C     C_1   0.111132 0.523475 0.521590 0.110144
C24   C     C_R   0.552125 0.071761 0.475031 -0.039633
C25   C     C_R   0.605174 0.013640 0.409263 0.034418
C26   C     C_R   0.523407 0.044093 0.529127 -0.043904
C27   C     C_R   0.527573 0.956567 0.503432 0.001948
C28   C     C_R   0.537834 0.276027 0.452643 0.829439
C29   C     C_R   0.583746 0.900341 0.441746 -0.318052
C30   C     C_R   0.623986 0.927601 0.395952 0.471766
C31   C     C_R   0.493380 0.099994 0.609301 0.433850
C32   C     C_R   0.456269 0.070275 0.654248 -0.130424
C33   C     C_R   0.451482 0.985415 0.624378 -0.047653
C34   C     C_1   0.813823 0.480882 0.481110 -0.109307
C35   C     C_R   0.482945 0.927776 0.546203 0.000012
C36   C     C_R   0.420209 0.956919 0.674805 -0.166060
C37   C     C_R   0.422664 0.871329 0.650133 0.187238
C38   C     C_R   0.470599 0.842989 0.515767 0.330141
C39   C     C_R   0.276037 0.513628 0.513261 0.815522
C40   C     C_R   0.724339 0.486637 0.486562 0.835388
C41   C     C_1   0.186437 0.519216 0.517971 -0.067073
C42   C     C_2   0.021082 0.527987 0.525436 -0.235712
C43   C     C_2   0.979026 0.468448 0.469676 0.311697
C44   C     C_R   0.540057 0.571479 0.811078 -0.119699
C45   C     C_R   0.446450 0.439674 0.192051 -0.005981
C46   C     C_R   0.543584 0.685462 0.949267 0.487795
C47   C     C_R   0.553320 0.652953 0.863310 -0.363793
C48   C     C_R   0.520085 0.520629 0.845502 0.446960
H1    H     H_    0.362365 0.301852 0.015538 0.191015
H2    H     H_    0.397756 0.326746 0.161046 0.147778
H3    H     H_    0.570362 0.691755 0.837095 0.199619
H4    H     H_    0.393361 0.649811 0.185259 0.351112
H5    H     H_    0.685302 0.813017 0.335699 0.346166
H6    H     H_    0.456759 0.821022 0.398702 0.363811
H7    H     H_    0.565878 0.181321 0.636381 0.343845
H8    H     H_    0.581152 0.788852 0.969068 0.356930
H9    H     H_    0.545208 0.405567 0.837023 0.345965
H10   H     H_    0.435051 0.113574 0.715480 0.200793
H11   H     H_    0.641126 0.152502 0.337360 0.203610
H12   H     H_    0.476347 0.197867 0.524281 0.229909
H13   H     H_    0.987485 0.581493 0.575348 0.150642
H14   H     H_    0.600862 0.834650 0.431517 0.198470
H15   H     H_    0.398203 0.000673 0.735544 0.193186
H16   H     H_    0.509291 0.733895 0.107578 0.228773
H17   H     H_    0.496746 0.544404 0.204707 0.186360
O1    O     O_3   0.500000 0.500000 0.500000 -0.512281
O2    O     O_R   0.299440 0.550140 0.473730 -0.633622
O3    O     O_R   0.684420 0.431670 0.431640 -0.622958
O4    O     O_R   0.331720 0.471780 0.548240 -0.610002
O5    O     O_R   0.684420 0.546410 0.546380 -0.636841
O6    O     O_3   0.445417 0.668263 0.181142 -0.755924
O7    O     O_3   0.680366 0.870222 0.337547 -0.692493
O8    O     O_3   0.476272 0.787763 0.433150 -0.762679
O9    O     O_3   0.509082 0.180877 0.651111 -0.724408
O10   O     O_3   0.560147 0.764518 0.001735 -0.732708
O11   O     O_3   0.533012 0.434663 0.798634 -0.704272
O12   O     O_R   0.525630 0.690350 0.582790 -0.638018
O13   O     O_R   0.571070 0.303900 0.411450 -0.646440
O14   O     O_R   0.412800 0.516450 0.332470 -0.619986
O15   O     O_R   0.490500 0.489300 0.673290 -0.564040
O16   O     O_R   0.525640 0.414150 0.306600 -0.633235
O17   O     O_R   0.571060 0.580100 0.687640 -0.655095
O18   O     O_R   0.412790 0.677900 0.493930 -0.602172
O19   O     O_R   0.490510 0.327840 0.511830 -0.621362
Zn1   Zn    Zn3+2 0.569080 0.577860 0.577850 1.013366
Zn2   Zn    Zn3+2 0.407860 0.560080 0.450890 1.035059
Zn3   Zn    Zn3+2 0.453980 0.448130 0.557350 1.061654
Zn4   Zn    Zn3+2 0.569080 0.413920 0.413920 1.003296

loop_
_geom_bond_atom_site_label_1
_geom_bond_atom_site_label_2
_ccdc_geom_bond_type
C2    C5    A    
Br3   C37   S    
C3    C8    A    
C22   C24   A    
C19   C37   A    
C36   C37   A    
C14   C15   A    
C12   C43   S    
O3    Zn4   S    
Br4   C20   S    
C2    C3    A    
C6    C13   A    
C38   O8    S    
C7    C8    A    
C23   C41   T    
C24   C25   A    
C25   C30   A    
H4    O6    S    
C40   O3    A    
C31   C32   A    
C26   C31   A    
H8    O10   S    
C10   C11   A    
O13   Zn4   S    
C48   O11   S    
C29   C30   A    
C12   C34   T    
C18   C21   A    
O4    Zn3   S    
C21   H11   S    
C46   O10   S    
C15   C45   A    
O5    Zn1   S    
C4    O15   A    
C35   C38   A    
O1    Zn3   S    
C42   C43   D    
C18   C28   S    
O14   Zn2   S    
C18   C22   A    
C42   H13   S    
H5    O7    S    
C23   C42   S    
C17   C45   A    
C16   O18   A    
C15   H2    S    
H6    O8    S    
C32   H10   S    
O15   Zn3   S    
C39   C41   S    
C36   H15   S    
C1    O14   A    
C46   C47   A    
C4    C44   S    
C33   C36   A    
C5    C9    A    
O2    Zn2   S    
C20   C21   A    
C30   O7    S    
C27   C29   A    
C32   C33   A    
C22   H12   S    
O16   Zn4   S    
C28   O19   A    
C26   C27   A    
O18   Zn2   S    
C44   C47   A    
C1    C45   S    
O19   Zn3   S    
C39   O4    A    
C28   O13   A    
C3    C46   A    
C14   H1    S    
H9    O11   S    
C7    O6    S    
O17   Zn1   S    
C2    C48   A    
C20   C25   A    
C13   C17   A    
C31   O9    S    
C1    O16   A    
C29   H14   S    
C6    C7    A    
Br1   C43   S    
O1    Zn4   S    
O12   Zn1   S    
C34   C40   S    
C40   O5    A    
C24   C26   A    
C4    O17   A    
C33   C35   A    
O1    Zn1   S    
C8    H16   S    
C11   C14   A    
C44   C48   A    
C39   O2    A    
C27   C35   A    
Br2   C9    S    
Br5   C10   S    
C5    C6    A    
O1    Zn2   S    
C16   O12   A    
C11   C13   A    
C16   C19   S    
C19   C38   A    
C9    C10   A    
C17   H17   S    
C47   H3    S    
H7    O9    S    
