data_mof_unit_27410.cif
_audit_creation_date              2012-10-26T20:43:03-0400
_audit_creation_method            fapswitch 2.2
_symmetry_space_group_name_H-M    P1
_symmetry_Int_Tables_number       1
_space_group_crystal_system       triclinic
_cell_length_a                    10.904491
_cell_length_b                    9.660767
_cell_length_c                    15.044997
_cell_angle_alpha                 90.614504
_cell_angle_beta                  90.269901
_cell_angle_gamma                 87.892521
_cell_volume                      1583.74853611

loop_
_atom_site_label
_atom_site_type_symbol
_atom_type_description
_atom_site_fract_x
_atom_site_fract_y
_atom_site_fract_z
_atom_type_partial_charge
C1    C     C_R   0.262669 0.502715 0.505677 0.559096
C2    C     C_R   0.127839 0.507817 0.512239 -0.061501
C3    C     C_R   0.454581 0.075900 0.429007 0.331895
C4    C     C_R   0.536368 0.926391 0.573570 0.324390
C5    C     C_R   0.548009 0.074167 0.570273 0.322176
C6    C     C_R   0.464931 0.927676 0.425973 0.317910
C7    C     C_R   0.500543 0.499501 0.329382 0.577266
C8    C     C_R   0.495446 0.501047 0.670438 0.596552
C9    C     C_R   0.604057 0.466516 0.810868 0.246856
C10   C     C_R   0.403140 0.567027 0.188515 0.238926
C11   C     C_R   0.495075 0.504841 0.766960 -0.020608
C12   C     C_R   0.737747 0.497558 0.494245 0.574016
C13   C     C_R   0.501507 0.500167 0.232620 -0.035091
C14   C     C_R   0.390537 0.552804 0.814186 -0.015850
C15   C     C_R   0.601833 0.441678 0.185775 -0.005620
C16   C     C_R   0.399943 0.573412 0.907161 -0.017653
C17   C     C_R   0.608185 0.457909 0.092678 -0.023311
C18   C     C_R   0.504630 0.518534 0.952912 -0.072442
C19   C     C_R   0.506298 0.519611 0.046941 -0.070427
C20   C     C_R   0.606257 0.460009 0.904630 -0.042160
C21   C     C_R   0.406100 0.581887 0.095088 -0.045735
C22   C     C_R   0.310093 0.652995 0.954940 0.276559
C23   C     C_R   0.312267 0.656821 0.048227 0.070445
C24   C     C_R   0.714369 0.415166 0.043972 0.251747
C25   C     C_3   0.775139 0.551838 0.749079 -0.102024
C26   C     C_3   0.221107 0.515356 0.251947 -0.079250
C27   C     C_2   0.269632 0.567867 0.767977 0.641850
C28   C     C_2   0.694760 0.355550 0.234129 0.660091
C29   C     C_3   0.262981 0.868318 0.900024 -0.086025
C30   C     C_3   0.887100 0.502746 0.103106 -0.032156
C31   C     C_2   0.218634 0.747444 0.093659 0.642859
C32   C     C_2   0.810251 0.322822 0.907005 0.672472
C33   C     C_2   0.132736 0.273529 0.584089 0.634316
C34   C     C_R   0.709433 0.404077 0.951367 0.074807
C35   C     C_2   0.865166 0.738492 0.430739 0.646323
C36   C     C_2   0.895638 0.233958 0.491739 0.629663
C37   C     C_2   0.112483 0.766175 0.481716 0.662112
C38   C     C_3   0.291744 0.133772 0.337559 -0.092436
C39   C     C_3   0.476290 0.884830 0.714653 -0.104067
C40   C     C_3   0.710556 0.088999 0.671539 -0.001859
C41   C     C_3   0.533345 0.878320 0.286137 -0.038007
C42   C     C_R   0.067834 0.384770 0.532289 -0.023487
C43   C     C_R   0.933139 0.618289 0.469661 0.005077
C44   C     C_R   0.943922 0.373163 0.508994 -0.014581
C45   C     C_R   0.058725 0.627476 0.485979 -0.013116
C46   C     C_R   0.873395 0.494162 0.487328 -0.041487
Cu1   Cu    Cu3+1 0.500000 0.640660 0.500000 1.126824
Cu2   Cu    Cu3+1 0.500000 0.359340 0.500000 1.123399
H1    H     H_    0.806875 0.594090 0.813986 0.139225
H2    H     H_    0.236100 0.933341 0.958505 0.160840
H3    H     H_    0.217604 0.914638 0.840667 0.167692
H4    H     H_    0.835090 0.573429 0.149408 0.143042
H5    H     H_    0.906827 0.557985 0.040523 0.183450
H6    H     H_    0.976177 0.474798 0.135223 0.167087
H7    H     H_    0.183759 0.910181 0.175905 0.347938
H8    H     H_    0.990946 0.302106 0.879828 0.362532
H9    H     H_    0.204436 0.078669 0.588126 0.354944
H10   H     H_    0.761805 0.910256 0.455888 0.301743
H11   H     H_    0.810795 0.110186 0.403757 0.323465
H12   H     H_    0.721705 0.633102 0.712229 0.163009
H13   H     H_    0.132437 0.939330 0.411820 0.344718
H14   H     H_    0.235665 0.169753 0.395088 0.162385
H15   H     H_    0.270747 0.026694 0.317467 0.183385
H16   H     H_    0.264990 0.199849 0.280423 0.121291
H17   H     H_    0.383687 0.859822 0.689028 0.181003
H18   H     H_    0.475238 0.993844 0.738810 0.141962
H19   H     H_    0.496837 0.818021 0.772613 0.124974
H20   H     H_    0.755370 0.013444 0.624616 0.182575
H21   H     H_    0.697060 0.037993 0.736273 0.170059
H22   H     H_    0.774292 0.174087 0.683501 0.219016
H23   H     H_    0.857713 0.523560 0.709081 0.147769
H24   H     H_    0.623935 0.845849 0.314744 0.137425
H25   H     H_    0.536067 0.986153 0.261912 0.174344
H26   H     H_    0.517643 0.812060 0.226972 0.168573
H27   H     H_    0.134166 0.564142 0.277122 0.177796
H28   H     H_    0.255814 0.442278 0.303367 0.110671
H29   H     H_    0.199228 0.458517 0.189355 0.103921
H30   H     H_    0.089454 0.527036 0.768683 0.350987
H31   H     H_    0.781758 0.168226 0.244788 0.358635
H32   H     H_    0.363866 0.872618 0.890119 0.069695
N1    N     N_R   0.500000 0.852070 0.500000 -0.256377
N2    N     N_R   0.500000 0.147930 0.500000 -0.254403
O1    O     O_R   0.319640 0.618740 0.499990 -0.444707
O2    O     O_3   0.305413 0.620333 0.238376 -0.497707
O3    O     O_2   0.259369 0.632431 0.698840 -0.509132
O4    O     O_R   0.166774 0.508571 0.805012 -0.608718
O5    O     O_2   0.758127 0.407887 0.291633 -0.489554
O6    O     O_R   0.711341 0.215396 0.211435 -0.649834
O7    O     O_3   0.221659 0.732416 0.910089 -0.515415
O8    O     O_3   0.824114 0.380016 0.086168 -0.531500
O9    O     O_2   0.109512 0.731004 0.079876 -0.500656
O10   O     O_R   0.255778 0.854855 0.149505 -0.663558
O11   O     O_2   0.787593 0.216049 0.866860 -0.503447
O12   O     O_R   0.680360 0.381260 0.500010 -0.454181
O13   O     O_R   0.930838 0.366498 0.912712 -0.666819
O14   O     O_2   0.171781 0.300139 0.658358 -0.497930
O15   O     O_R   0.154468 0.141717 0.547196 -0.672734
O16   O     O_2   0.839981 0.738371 0.351500 -0.515825
O17   O     O_R   0.825272 0.847723 0.486039 -0.657814
O18   O     O_2   0.911951 0.140460 0.544793 -0.493477
O19   O     O_R   0.836396 0.208964 0.411105 -0.652452
O20   O     O_2   0.156793 0.817336 0.548678 -0.463834
O21   O     O_R   0.105913 0.840962 0.402860 -0.655319
O22   O     O_3   0.417841 0.147997 0.353968 -0.538537
O23   O     O_R   0.680360 0.618740 0.500010 -0.491599
O24   O     O_3   0.568386 0.857558 0.650410 -0.559023
O25   O     O_3   0.597533 0.147302 0.640956 -0.532008
O26   O     O_3   0.436979 0.860932 0.347348 -0.496470
O27   O     O_R   0.319640 0.381260 0.499990 -0.508902
O28   O     O_R   0.499970 0.618800 0.370260 -0.442070
O29   O     O_R   0.500030 0.381200 0.629740 -0.421316
O30   O     O_R   0.500030 0.618800 0.629740 -0.464615
O31   O     O_R   0.499970 0.381200 0.370260 -0.454367
O32   O     O_3   0.706926 0.431950 0.760402 -0.550588

loop_
_geom_bond_atom_site_label_1
_geom_bond_atom_site_label_2
_ccdc_geom_bond_type
C3    O22   S    
C39   O24   S    
C41   O26   S    
H8    O13   S    
C30   O8    S    
C3    C6    A    
C29   O7    S    
C30   H6    S    
C40   H22   S    
C9    O32   S    
C19   C21   A    
C18   C19   A    
C8    O30   A    
C29   H3    S    
C37   O20   D    
C11   C14   A    
Cu1   O30   S    
C1    C2    S    
C27   O3    D    
C38   O22   S    
C1    O27   A    
C41   H26   S    
C4    N1    A    
Cu1   O23   S    
C28   O6    S    
C26   H28   S    
C25   H23   S    
C25   H12   S    
Cu1   O1    S    
C14   C27   S    
C35   O16   D    
C35   C43   S    
C33   O15   S    
C20   C34   A    
H30   O4    S    
C32   O11   D    
C10   C21   A    
C6    N1    A    
C39   H17   S    
C12   O12   A    
C42   C44   A    
C3    N2    A    
C35   O17   S    
H31   O6    S    
C44   C46   A    
C38   H16   S    
C29   H2    S    
C2    C45   A    
C30   H5    S    
C26   H29   S    
C40   H21   S    
C17   C24   A    
C12   C46   S    
C8    O29   A    
C37   O21   S    
C23   C31   S    
C4    O24   S    
C24   C34   A    
C36   O19   S    
H11   O19   S    
C27   O4    S    
H7    O10   S    
C9    C11   A    
C9    C20   A    
Cu1   Cu2   S    
H9    O15   S    
C32   O13   S    
C28   O5    D    
C26   H27   S    
C36   O18   D    
C43   C45   A    
Cu2   O12   S    
C40   O25   S    
C31   O9    D    
C13   C15   A    
C39   H18   S    
C14   C16   A    
C36   C44   S    
C33   C42   S    
C37   C45   S    
C33   O14   D    
C38   H15   S    
C5    O25   S    
C15   C17   A    
C30   H4    S    
C16   C22   A    
H13   O21   S    
C39   H19   S    
H10   O17   S    
C4    C5    A    
C10   C13   A    
C24   O8    S    
C1    O1    A    
Cu1   O28   S    
C41   H24   S    
C7    O28   A    
C7    O31   A    
C21   C23   A    
C25   O32   S    
C26   O2    S    
C5    N2    A    
C15   C28   S    
C12   O23   A    
C29   H32   S    
C2    C42   A    
C8    C11   S    
C10   O2    S    
C17   C19   A    
C22   O7    S    
Cu2   N2    S    
Cu2   O27   S    
C18   C20   A    
Cu1   N1    S    
C43   C46   A    
C25   H1    S    
C41   H25   S    
C7    C13   S    
Cu2   O29   S    
C16   C18   A    
C31   O10   S    
C40   H20   S    
C6    O26   S    
C22   C23   A    
C32   C34   S    
Cu2   O31   S    
C38   H14   S    
