data_mof_unit_42783.cif
_audit_creation_date              2012-12-10T19:04:11-0500
_audit_creation_method            fapswitch 2.2
_symmetry_space_group_name_H-M    P1
_symmetry_Int_Tables_number       1
_space_group_crystal_system       triclinic
_cell_length_a                    10.651256
_cell_length_b                    10.807725
_cell_length_c                    9.612188
_cell_angle_alpha                 90.209948
_cell_angle_beta                  89.423308
_cell_angle_gamma                 90.962018
_cell_volume                      1106.29638077

loop_
_atom_site_label
_atom_site_type_symbol
_atom_type_description
_atom_site_fract_x
_atom_site_fract_y
_atom_site_fract_z
_atom_type_partial_charge
C1    C     C_R   0.496093 0.262517 0.499824 0.806219
C2    C     C_3   0.959028 0.598788 0.562716 -0.209876
C3    C     C_3   0.045437 0.597025 0.432205 -0.133450
C4    C     C_3   0.123394 0.497390 0.501920 -0.090252
C5    C     C_R   0.481549 0.064301 0.624995 0.011099
C6    C     C_R   0.480087 0.129304 0.500009 -0.075583
C7    C     C_R   0.456953 0.063570 0.376075 -0.177529
C8    C     C_R   0.455733 0.934319 0.376717 -0.151397
C9    C     C_R   0.479640 0.870437 0.500718 -0.162767
C10   C     C_R   0.481496 0.937016 0.625287 0.081148
C11   C     C_3   0.570600 0.933413 0.743804 0.508949
C12   C     C_R   0.259769 0.499133 0.500673 0.807110
C13   C     C_3   0.570130 0.073842 0.744104 -0.475783
C14   C     C_R   0.554858 0.596337 0.072789 0.057211
C15   C     C_R   0.432952 0.414186 0.074647 -0.028057
C16   C     C_R   0.431482 0.415315 0.926245 -0.052239
C17   C     C_R   0.563148 0.589521 0.926144 0.156747
C18   C     C_3   0.701807 0.612476 0.927091 0.544433
C19   C     C_3   0.687913 0.643218 0.080239 0.554459
C20   C     C_R   0.496019 0.737501 0.500199 0.804561
C21   C     C_R   0.740709 0.497700 0.499110 0.872883
C22   C     C_3   0.043851 0.393730 0.436146 -0.272450
C23   C     C_3   0.963388 0.493308 0.366459 -0.125965
C24   C     C_3   0.878188 0.495518 0.496785 -0.089105
C25   C     C_3   0.957724 0.397032 0.565118 0.665741
C26   C     C_3   0.039611 0.498925 0.632677 -0.167739
Cu1   Cu    Cu3+1 0.499990 0.499980 0.640670 1.023435
Cu2   Cu    Cu3+1 0.500010 0.500020 0.359330 1.011970
H1    H     H_    0.938686 0.485587 0.255480 0.248923
H2    H     H_    0.662801 0.893159 0.716089 0.145397
H3    H     H_    0.525166 0.114387 0.838292 0.230251
H4    H     H_    0.662259 0.116361 0.714121 0.208498
H5    H     H_    0.380691 0.342908 0.130084 0.132319
H6    H     H_    0.377362 0.345395 0.871385 0.144678
H7    H     H_    0.081024 0.309211 0.385548 0.165447
H8    H     H_    0.073917 0.500345 0.741348 0.182136
H9    H     H_    0.921989 0.682945 0.614201 0.209427
H10   H     H_    0.084318 0.679660 0.377462 0.168204
H11   H     H_    0.446099 0.111223 0.278104 0.170904
H12   H     H_    0.442866 0.885282 0.279363 0.195066
N1    N     N_R   0.500800 0.500930 0.147930 -0.168218
N2    N     N_R   0.500800 0.500890 0.852020 -0.197387
O1    O     O_R   0.500000 0.319640 0.618810 -0.579399
O2    O     O_R   0.500010 0.319680 0.381230 -0.595218
O3    O     O_R   0.316850 0.499950 0.618770 -0.586313
O4    O     O_R   0.316860 0.499990 0.381190 -0.587505
O5    O     O_R   0.499990 0.680320 0.618770 -0.540272
O6    O     O_R   0.500000 0.680360 0.381190 -0.576993
O7    O     O_R   0.683140 0.500010 0.618810 -0.550100
O8    O     O_R   0.683150 0.500050 0.381230 -0.501519
I1    I     I_    0.809478 0.446221 0.898484 -0.200518
F1    F     F_    0.739961 0.710811 0.844720 -0.665197
F2    F     F_    0.764016 0.573877 0.161373 -0.675450
I2    I     I_    0.703431 0.836030 0.131932 -0.193842
F3    F     F_    0.910689 0.292090 0.630412 -0.653522
F4    F     F_    0.513533 0.883606 0.861272 -0.623569

loop_
_geom_bond_atom_site_label_1
_geom_bond_atom_site_label_2
_ccdc_geom_bond_type
C4    C26   S    
C23   C24   S    
Cu1   N2    S    
C6    C7    A    
C12   O3    A    
Cu1   O1    S    
C4    C12   S    
C4    C22   S    
C9    C10   A    
C1    O2    A    
C5    C13   S    
C2    H9    S    
Cu2   O4    S    
Cu1   O3    S    
C21   O7    A    
C2    C3    S    
C18   F1    S    
C5    C10   A    
C2    C26   S    
C22   H7    S    
C11   C13   S    
C14   C17   A    
C19   F2    S    
C20   O6    A    
Cu2   O8    S    
C11   H2    S    
C14   N1    A    
C15   C16   A    
C23   H1    S    
C19   I2    S    
C26   H8    S    
C21   O8    A    
C13   H3    S    
C18   I1    S    
C17   C18   S    
C2    C24   S    
C5    C6    A    
C20   O5    A    
C10   C11   S    
C11   F4    S    
Cu1   O7    S    
C1    C6    S    
C16   N2    A    
Cu2   N1    S    
C7    C8    A    
C8    H12   S    
C24   C25   S    
C15   N1    A    
Cu2   O2    S    
C12   O4    A    
C18   C19   S    
C21   C24   S    
Cu1   O5    S    
Cu1   Cu2   S    
C7    H11   S    
C22   C23   S    
Cu2   O6    S    
C9    C20   S    
C16   H6    S    
C25   C26   S    
C17   N2    A    
C13   H4    S    
C3    C23   S    
C14   C19   S    
C1    O1    A    
C3    C4    S    
C25   F3    S    
C3    H10   S    
C15   H5    S    
C8    C9    A    
C22   C25   S    
