data_mof_unit_52048.cif
_audit_creation_date              2012-12-10T19:00:43-0500
_audit_creation_method            fapswitch 2.2
_symmetry_space_group_name_H-M    P1
_symmetry_Int_Tables_number       1
_space_group_crystal_system       triclinic
_cell_length_a                    15.053687
_cell_length_b                    10.83072
_cell_length_c                    9.61641
_cell_angle_alpha                 90.429187
_cell_angle_beta                  89.552569
_cell_angle_gamma                 91.069347
_cell_volume                      1567.51814247

loop_
_atom_site_label
_atom_site_type_symbol
_atom_type_description
_atom_site_fract_x
_atom_site_fract_y
_atom_site_fract_z
_atom_type_partial_charge
C1    C     C_R   0.496374 0.262702 0.499507 0.852577
C2    C     C_R   0.905650 0.591463 0.556127 -0.002066
C3    C     C_R   0.952304 0.286914 0.389325 0.655326
C4    C     C_R   0.044431 0.289217 0.390435 -0.210737
C5    C     C_R   0.092796 0.390869 0.444192 0.010790
C6    C     C_R   0.045882 0.490772 0.503239 0.058854
C7    C     C_R   0.092408 0.593099 0.562696 -0.025652
C8    C     C_R   0.044058 0.693344 0.615923 -0.256367
C9    C     C_R   0.952100 0.692818 0.612123 0.665359
C10   C     C_R   0.186676 0.394585 0.441481 -0.089896
C11   C     C_R   0.232233 0.496357 0.502004 -0.116834
C12   C     C_R   0.329210 0.499191 0.500570 0.806189
C13   C     C_R   0.185974 0.594851 0.564205 -0.003990
C14   C     C_R   0.489875 0.065581 0.623898 -0.045409
C15   C     C_R   0.484189 0.129755 0.499415 -0.297109
C16   C     C_R   0.462470 0.063046 0.377553 0.544329
C17   C     C_R   0.462391 0.933941 0.378535 0.577363
C18   C     C_R   0.485744 0.870825 0.500633 -0.233051
C19   C     C_R   0.491340 0.938576 0.624451 -0.042197
C20   C     C_3   0.557273 0.936532 0.739751 -0.301075
C21   C     C_3   0.555365 0.076882 0.739569 0.506555
C22   C     C_R   0.577333 0.515449 0.071685 -0.033874
C23   C     C_R   0.497588 0.737667 0.500268 0.946692
C24   C     C_R   0.427801 0.459890 0.075684 0.767951
C25   C     C_R   0.428030 0.456504 0.927351 -0.127454
C26   C     C_R   0.577377 0.513125 0.925844 0.117033
C27   C     C_3   0.649484 0.608418 0.915963 1.013797
C28   C     C_3   0.648853 0.614730 0.076102 -0.315596
C29   C     C_R   0.670469 0.497873 0.499526 0.780875
C30   C     C_R   0.813549 0.592464 0.551230 -0.065845
C31   C     C_R   0.766365 0.491466 0.498513 -0.143595
C32   C     C_R   0.809790 0.384593 0.451985 -0.050023
C33   C     C_R   0.904037 0.384933 0.448208 -0.010626
C34   C     C_R   0.951833 0.488740 0.502744 -0.089250
Cu1   Cu    Cu3+1 0.500000 0.499980 0.640670 1.026495
Cu2   Cu    Cu3+1 0.500000 0.500020 0.359330 1.088097
H1    H     H_    0.777573 0.671989 0.589231 0.220747
H2    H     H_    0.528232 0.894154 0.835156 0.225332
H3    H     H_    0.622263 0.899714 0.704808 0.263940
H4    H     H_    0.076742 0.209181 0.347700 0.220380
H5    H     H_    0.076523 0.774719 0.658947 0.177151
N1    N     N_R   0.500570 0.500930 0.147930 -0.256984
N2    N     N_R   0.500570 0.500890 0.852020 -0.270173
O1    O     O_R   0.500000 0.319640 0.618810 -0.616976
O2    O     O_R   0.500010 0.319680 0.381230 -0.520612
O3    O     O_R   0.370250 0.499950 0.618800 -0.626666
O4    O     O_R   0.370260 0.499990 0.381220 -0.498532
O5    O     O_R   0.499990 0.680320 0.618770 -0.533445
O6    O     O_R   0.500000 0.680360 0.381190 -0.538843
O7    O     O_R   0.629740 0.500010 0.618780 -0.506766
O8    O     O_R   0.629750 0.500050 0.381200 -0.599193
F1    F     F_    0.442396 0.872191 0.259203 -0.605147
C35   C     C_2   0.518326 0.134889 0.870075 0.391852
H6    H     H_    0.556273 0.206913 0.923182 0.116255
O9    O     O_2   0.446158 0.102145 0.917304 -0.488935
F2    F     F_    0.635461 0.130200 0.697678 -0.618935
F3    F     F_    0.356902 0.412038 0.145274 -0.571440
C36   C     C_2   0.353973 0.388979 0.859602 0.577102
H7    H     H_    0.366936 0.325286 0.774915 0.071091
O10   O     O_2   0.277430 0.401978 0.899270 -0.474608
F4    F     F_    0.726378 0.561156 0.857921 -0.620963
F5    F     F_    0.622861 0.713654 0.850308 -0.711273
C37   C     C_2   0.735432 0.572478 0.138005 0.559169
H8    H     H_    0.783927 0.639943 0.175582 0.107500
O11   O     O_2   0.753638 0.463074 0.141007 -0.521909
C38   C     C_2   0.754923 0.273007 0.417724 0.597171
H9    H     H_    0.698004 0.279992 0.349962 0.072985
O12   O     O_2   0.769783 0.173995 0.471901 -0.400178
C39   C     C_2   0.616066 0.736133 0.133560 0.456462
H10   H     H_    0.555383 0.774335 0.093338 0.161231
O13   O     O_2   0.656576 0.792645 0.224168 -0.525798
F6    F     F_    0.912094 0.190137 0.323310 -0.592572
C40   C     C_2   0.239188 0.291789 0.380441 0.526116
H11   H     H_    0.295817 0.256999 0.436145 0.022506
O14   O     O_2   0.222988 0.250396 0.264769 -0.416036
C41   C     C_2   0.235378 0.700578 0.629034 0.399581
H12   H     H_    0.216222 0.734360 0.731231 0.100335
O15   O     O_2   0.296164 0.752656 0.567066 -0.541639
F7    F     F_    0.908510 0.792243 0.663419 -0.605181
F8    F     F_    0.445061 0.121465 0.256575 -0.561740

loop_
_geom_bond_atom_site_label_1
_geom_bond_atom_site_label_2
_ccdc_geom_bond_type
C8    C9    A    
C38   O12   D    
C37   O11   D    
C24   N1    A    
C40   H11   S    
Cu2   N1    S    
C19   C20   S    
C25   N2    A    
C7    C8    A    
C35   H6    S    
C26   C27   S    
C5    C6    A    
C14   C21   S    
C41   O15   D    
C30   C31   A    
C10   C40   S    
C23   O6    A    
C3    C33   A    
C36   O10   D    
C15   C16   A    
Cu2   O4    S    
C18   C19   A    
C9    F7    S    
C39   O13   D    
C27   F4    S    
C28   C39   S    
C16   C17   A    
C1    C15   S    
Cu1   N2    S    
C2    C34   A    
C38   H9    S    
C8    H5    S    
C22   C28   S    
C40   O14   D    
C12   O4    A    
Cu1   O5    S    
C17   F1    S    
C26   N2    A    
C17   C18   A    
C29   O7    A    
C35   O9    D    
C18   C23   S    
C4    H4    S    
C24   C25   A    
C12   O3    A    
C20   H3    S    
C24   F3    S    
C36   H7    S    
C6    C34   A    
C30   H1    S    
C16   F8    S    
Cu1   Cu2   S    
C2    C9    A    
C27   F5    S    
C20   H2    S    
C1    O1    A    
C31   C32   A    
C13   C41   S    
Cu1   O7    S    
C33   C34   A    
Cu2   O2    S    
C41   H12   S    
Cu1   O1    S    
Cu2   O8    S    
C25   C36   S    
C3    C4    A    
C32   C38   S    
C29   O8    A    
C23   O5    A    
C14   C19   A    
C4    C5    A    
C21   F2    S    
C11   C12   S    
C6    C7    A    
C2    C30   A    
C32   C33   A    
C3    F6    S    
C5    C10   A    
C29   C31   S    
C21   C35   S    
C11   C13   A    
C1    O2    A    
C22   N1    A    
C39   H10   S    
C10   C11   A    
C37   H8    S    
C28   C37   S    
C7    C13   A    
C20   C21   S    
C22   C26   A    
C27   C28   S    
C14   C15   A    
Cu1   O3    S    
Cu2   O6    S    
