data_mof_unit_54757.cif
_audit_creation_date              2013-03-05T15:40:10-0500
_audit_creation_method            fapswitch 2.2
_symmetry_space_group_name_H-M    P1
_symmetry_Int_Tables_number       1
_space_group_crystal_system       triclinic
_cell_length_a                    7.531067
_cell_length_b                    8.690609
_cell_length_c                    12.94826
_cell_angle_alpha                 86.984682
_cell_angle_beta                  79.18518
_cell_angle_gamma                 103.303965
_cell_volume                      805.98968696

loop_
_atom_site_label
_atom_site_type_symbol
_atom_site_description
_atom_site_fract_x
_atom_site_fract_y
_atom_site_fract_z
_atom_type_partial_charge
O1    O     O_R   0.621060 0.286250 0.492350 -0.561624
O2    O     O_R   0.378940 0.713750 0.507650 -0.561763
O3    O     O_R   0.306310 0.256580 0.512240 -0.576864
O4    O     O_R   0.693690 0.743420 0.487760 -0.576757
C1    C     C_R   0.452377 0.199696 0.503790 0.855723
C2    C     C_R   0.547623 0.800304 0.496208 0.855624
O5    O     O_R   0.631800 0.512400 0.642670 -0.567456
O6    O     O_R   0.368200 0.487600 0.357330 -0.567422
O7    O     O_R   0.317060 0.482730 0.662570 -0.551264
O8    O     O_R   0.682940 0.517270 0.337430 -0.551327
C3    C     C_R   0.466328 0.494858 0.701093 0.816645
C4    C     C_R   0.533673 0.505141 0.298907 0.816592
Cu1   Cu    Cu3+1 0.686350 0.517570 0.488220 1.123673
Cu2   Cu    Cu3+1 0.313650 0.482430 0.511780 1.123609
N1    N     N_2   0.033570 0.455950 0.529530 0.019310
N2    N     N_2   0.966430 0.544050 0.470470 0.019380
C5    C     C_R   0.553066 0.515075 0.185183 -0.115472
C6    C     C_R   0.446939 0.484928 0.814817 -0.115494
C7    C     C_R   0.261539 0.384403 0.989114 0.365009
C8    C     C_R   0.738452 0.615633 0.010890 0.365032
C9    C     C_R   0.280953 0.397706 0.879826 -0.140311
C10   C     C_R   0.719040 0.602323 0.120177 -0.140346
C11   C     C_R   0.596228 0.560033 0.857893 -0.120648
C12   C     C_R   0.403786 0.439959 0.142106 -0.120566
C13   C     C_R   0.585026 0.543925 0.966698 -0.008516
C14   C     C_R   0.414977 0.456089 0.033303 -0.008530
H1    H     H_    0.834899 0.659455 0.154496 0.223093
H2    H     H_    0.165085 0.340591 0.845508 0.223132
C15   C     C_2   0.426150 0.031124 0.507239 -0.281958
C16   C     C_2   0.573851 0.968876 0.492757 -0.281923
H3    H     H_    0.280217 0.367575 0.194403 0.217244
H4    H     H_    0.719811 0.632391 0.805594 0.217236
N3    N     N_R   0.085345 0.299255 0.053084 0.119223
O9    O     O_R   0.994382 0.168104 0.024012 -0.287492
O10   O     O_R   0.998596 0.368089 0.126302 -0.326549
N4    N     N_R   0.914621 0.700837 0.946923 0.119209
O11   O     O_R   0.005487 0.832041 0.975982 -0.287492
O12   O     O_R   0.001455 0.632019 0.873731 -0.326512
N5    N     N_R   0.914496 0.376416 0.621068 0.258049
O13   O     O_R   0.926506 0.436660 0.709961 -0.314015
O14   O     O_R   0.845373 0.224363 0.624056 -0.357765
N6    N     N_R   0.085536 0.623744 0.378991 0.258070
O15   O     O_R   0.073956 0.563436 0.290087 -0.314026
O16   O     O_R   0.154020 0.775875 0.376005 -0.357772
H5    H     H_    0.284183 0.957959 0.522416 0.212006
H6    H     H_    0.715819 0.042040 0.477581 0.212004

loop_
_geom_bond_atom_site_label_1
_geom_bond_atom_site_label_2
_geom_bond_distance
_ccdc_geom_bond_type
C4    C5    1.448186 S    
O7    Cu2   1.957581 S    
N6    O16   1.299536 A    
C3    C6    1.448193 S    
C15   C16   1.332091 D    
C6    C9    1.395584 A    
C5    C10   1.395582 A    
C16   H6    1.086814 S    
O6    C4    1.301974 A    
C11   H4    1.081463 S    
N4    O12   1.300211 A    
N3    O9    1.301024 A    
C12   H3    1.081461 S    
N5    O14   1.299674 A    
Cu1   Cu2   2.709056 S    
O5    C3    1.301970 A    
O7    C3    1.298094 A    
N1    N5    1.384354 S    
O2    C2    1.295933 A    
O3    Cu2   1.950458 S    
O8    C4    1.298087 A    
O1    C1    1.295934 A    
N1    N2    1.299368 D    
N4    O11   1.301029 A    
C7    C9    1.390887 A    
C9    H2    1.083814 S    
C12   C14   1.393097 A    
C1    C15   1.429636 S    
C10   H1    1.083818 S    
C11   C13   1.393102 A    
C7    N3    1.437206 S    
O2    Cu2   1.951891 S    
C5    C12   1.391778 A    
O1    Cu1   1.951890 S    
C8    C13   1.416018 A    
C6    C11   1.391788 A    
C8    N4    1.437192 S    
N2    N6    1.384328 S    
O5    Cu1   1.960604 S    
O4    C2    1.295088 A    
N6    O15   1.299059 A    
Cu1   N2    2.035692 S    
C15   H5    1.086812 S    
N5    O13   1.299145 A    
C7    C14   1.416016 A    
Cu2   N1    2.035693 S    
O6    Cu2   1.960603 S    
N3    O10   1.300210 A    
C13   C14   1.425791 A    
C2    C16   1.429634 S    
O4    Cu1   1.950458 S    
C8    C10   1.390884 A    
O3    C1    1.295087 A    
O8    Cu1   1.957579 S    
