data_mof_unit_36980.cif
_audit_creation_date              2012-12-11T18:13:26-0500
_audit_creation_method            fapswitch 2.2
_symmetry_space_group_name_H-M    P1
_symmetry_Int_Tables_number       1
_space_group_crystal_system       triclinic
_cell_length_a                    8.225247
_cell_length_b                    12.717755
_cell_length_c                    18.716205
_cell_angle_alpha                 99.553173
_cell_angle_beta                  91.383777
_cell_angle_gamma                 98.660583
_cell_volume                      1906.24815404

loop_
_atom_site_label
_atom_site_type_symbol
_atom_type_description
_atom_site_fract_x
_atom_site_fract_y
_atom_site_fract_z
_atom_type_partial_charge
Ba1   Ba    Ba6+2 0.852780 0.548340 0.465070 1.720978
Ba2   Ba    Ba6+2 0.337060 0.451750 0.534940 1.715876
C1    C     C_3   0.642189 0.880149 0.194998 0.506389
C2    C     C_R   0.893225 0.396313 0.094902 0.035441
C3    C     C_R   0.729653 0.352029 0.072312 -0.078896
C4    C     C_3   0.133483 0.752171 0.266818 0.421597
C5    C     C_R   0.669242 0.355810 0.002482 -0.087915
C6    C     C_R   0.771593 0.403182 0.953731 0.024404
C7    C     C_R   0.935615 0.448424 0.975872 0.017733
C8    C     C_R   0.712400 0.404713 0.883143 -0.112872
C9    C     C_R   0.815316 0.449190 0.832844 0.003171
C10   C     C_R   0.978856 0.498465 0.855604 0.031336
C11   C     C_R   0.038286 0.497397 0.927385 -0.006445
C12   C     C_3   0.591491 0.797382 0.243580 0.356339
C13   C     C_R   0.760381 0.444467 0.760111 0.045745
C14   C     C_R   0.868089 0.486007 0.711084 -0.254343
C15   C     C_R   0.026420 0.540906 0.733088 0.067217
C16   C     C_3   0.137320 0.778634 0.190495 -0.298049
C17   C     C_R   0.082960 0.548685 0.806975 0.008327
C18   C     C_R   0.160033 0.489897 0.069631 -0.004055
C19   C     C_R   0.218463 0.490676 0.141930 -0.000833
C20   C     C_R   0.111509 0.446500 0.191891 -0.048825
C21   C     C_R   0.953122 0.394503 0.165395 -0.048943
C22   C     C_R   0.240675 0.603019 0.833892 -0.003002
C23   C     C_3   0.444392 0.282052 0.314668 0.290081
C24   C     C_R   0.303048 0.595565 0.903212 0.013520
C25   C     C_R   0.201620 0.543005 0.950314 0.011235
C26   C     C_R   0.263401 0.537382 0.020797 0.008473
C27   C     C_R   0.467093 0.638389 0.925782 -0.070399
C28   C     C_3   0.221724 0.797819 0.628320 0.833115
C29   C     C_R   0.530157 0.628775 0.994085 -0.018170
C30   C     C_R   0.428516 0.579958 0.042452 0.033417
C31   C     C_R   0.382923 0.537073 0.164160 -0.057292
C32   C     C_R   0.488496 0.575952 0.112621 -0.077462
C33   C     C_R   0.434388 0.547861 0.238089 -0.022200
C34   C     C_3   0.381019 0.243824 0.235732 -0.415160
C35   C     C_R   0.324192 0.511771 0.288102 -0.280357
C36   C     C_R   0.165487 0.457834 0.266573 0.041126
C37   C     C_R   0.769778 0.180095 0.520122 -0.204365
C38   C     C_R   0.425948 0.807727 0.470666 -0.227624
C39   C     C_R   0.400212 0.983250 0.443130 -0.095382
C40   C     C_3   0.144772 0.899882 0.638015 -0.217457
C41   C     C_R   0.334829 0.875589 0.441222 -0.057523
C42   C     C_R   0.577593 0.848136 0.508039 0.166798
C43   C     C_R   0.642385 0.960039 0.513833 -0.017386
C44   C     C_R   0.553177 0.027438 0.479436 -0.020038
C45   C     C_3   0.053052 0.236963 0.733334 0.341796
C46   C     C_R   0.618960 0.137696 0.482985 0.027655
C47   C     C_R   0.858832 0.115374 0.553376 0.055129
C48   C     C_R   0.793681 0.006808 0.551897 -0.068409
C49   C     C_3   0.883874 0.194914 0.328577 0.775081
C50   C     C_3   0.777286 0.168050 0.258281 -0.317402
C51   C     C_3   0.731437 0.713770 0.685339 0.354539
C52   C     C_3   0.751739 0.758855 0.766356 0.999445
C53   C     C_3   0.066303 0.210969 0.809483 -0.331623
C54   C     C_3   0.546489 0.176858 0.692906 0.330601
C55   C     C_3   0.573471 0.080307 0.727394 -0.338114
C56   C     C_R   0.996390 0.445051 0.046831 0.013096
F1    F     F_    0.878929 0.845237 0.779500 -0.693708
F2    F     F_    0.785914 0.680947 0.805043 -0.776555
F3    F     F_    0.658826 0.828621 0.125105 -0.719124
F4    F     F_    0.388813 0.828241 0.629932 -0.774300
H1    H     H_    0.563357 0.838400 0.297964 -0.024342
H2    H     H_    0.631032 0.643366 0.675914 -0.017305
H3    H     H_    0.546512 0.932888 0.193941 -0.057628
H4    H     H_    0.636033 0.786753 0.785360 -0.025336
H5    H     H_    0.478078 0.747215 0.217244 -0.059119
H6    H     H_    0.347676 0.318448 0.345447 0.062030
H7    H     H_    0.554820 0.344762 0.316671 0.037514
H8    H     H_    0.254188 0.198881 0.233008 0.156565
H9    H     H_    0.380847 0.313620 0.207402 0.061491
H10   H     H_    0.459152 0.189406 0.205912 0.126744
H11   H     H_    0.761384 0.929979 0.215235 0.129657
H12   H     H_    0.208760 0.959743 0.683725 0.141473
H13   H     H_    0.174278 0.711087 0.152243 0.064301
H14   H     H_    0.138016 0.312976 0.731444 0.079401
H15   H     H_    0.924583 0.248475 0.721966 -0.087494
H16   H     H_    0.195315 0.202782 0.823407 0.147165
H17   H     H_    0.028832 0.276504 0.849356 0.054306
H18   H     H_    0.984550 0.134203 0.812790 0.150206
H19   H     H_    0.665022 0.208143 0.670955 -0.092238
H20   H     H_    0.453365 0.149589 0.647130 0.086467
H21   H     H_    0.672214 0.105338 0.771070 0.115475
H22   H     H_    0.610755 0.016549 0.685916 0.128270
H23   H     H_    0.154267 0.934814 0.587579 0.056710
H24   H     H_    0.041958 0.678455 0.266423 0.084583
H25   H     H_    0.458559 0.047022 0.751086 0.147964
H26   H     H_    0.647869 0.315219 0.108916 0.066300
H27   H     H_    0.542340 0.321346 0.986533 0.077819
H28   H     H_    0.825003 0.479903 0.655256 0.049497
H29   H     H_    0.585757 0.369744 0.868044 0.105798
H30   H     H_    0.871331 0.356244 0.199861 0.089530
H31   H     H_    0.319581 0.648435 0.800775 0.095936
H32   H     H_    0.547305 0.678405 0.890254 0.132379
H33   H     H_    0.657860 0.661475 0.009587 0.141091
H34   H     H_    0.014096 0.881234 0.650802 0.103970
H35   H     H_    0.616487 0.607792 0.127309 0.127840
H36   H     H_    0.256739 0.736014 0.282980 -0.173972
H37   H     H_    0.365370 0.521453 0.344476 0.062003
H38   H     H_    0.328599 0.031534 0.416872 0.136827
H39   H     H_    0.863143 0.960249 0.580038 0.072492
H40   H     H_    0.820832 0.264011 0.521482 0.051434
H41   H     H_    0.374041 0.723698 0.467994 0.055100
H42   H     H_    0.013419 0.791884 0.172566 0.177731
H43   H     H_    0.227243 0.852771 0.189469 0.114446
H44   H     H_    0.177466 0.748424 0.574864 -0.041187
H45   H     H_    0.821422 0.235273 0.374541 -0.102021
H46   H     H_    0.159483 0.047704 0.293735 0.348990
H47   H     H_    0.673242 0.103117 0.261515 0.103154
H48   H     H_    0.850493 0.141685 0.211356 0.112286
H49   H     H_    0.725583 0.239506 0.248918 0.034969
H50   H     H_    0.848071 0.688774 0.666098 -0.071837
O1    O     O_2   0.873090 0.425890 0.325140 -0.500275
O2    O     O_2   0.200490 0.123465 0.553661 -0.456230
O3    O     O_3   0.096752 0.151399 0.683849 -0.611211
O4    O     O_3   0.122420 0.434370 0.414380 -0.470609
O5    O     O_3   0.578370 0.633800 0.536380 -0.480509
O6    O     O_2   0.341510 0.231850 0.465510 -0.411570
O7    O     O_3   0.485006 0.193810 0.343540 -0.655945
O8    O     O_2   0.419464 0.449668 0.757123 -0.501863
O9    O     O_3   0.488172 0.253675 0.745018 -0.604050
O10   O     O_3   0.659500 0.627100 0.368810 -0.469901
O11   O     O_2   0.768614 0.541126 0.245261 -0.499672
O12   O     O_3   0.692537 0.796079 0.650219 -0.613838
O13   O     O_3   0.033311 0.255047 0.316937 -0.668458
O14   O     O_3   0.720358 0.737936 0.250304 -0.568600
O15   O     O_2   0.848200 0.768190 0.534530 -0.514276
O16   O     O_3   0.081160 0.685950 0.404810 -0.507097
O17   O     O_2   0.994174 0.876801 0.447026 -0.401829
O18   O     O_2   0.043286 0.096069 0.417150 -0.315365
O19   O     O_2   0.785817 0.994428 0.357669 -0.359741
O20   O     O_3   0.041991 0.021059 0.279173 -0.521072
O21   O     O_3   0.087889 0.839317 0.314130 -0.514756
O22   O     O_2   0.316610 0.574140 0.674900 -0.472114
O23   O     O_3   0.067290 0.565720 0.585630 -0.515032
O24   O     O_3   0.530210 0.372990 0.631200 -0.478906
O25   O     O_3   0.184659 0.746325 0.687675 -0.614508
O26   O     O_3   0.611340 0.366290 0.463630 -0.492600
O27   O     O_3   0.108550 0.314140 0.595200 -0.488598
P1    P     P_3+3 0.041040 0.394770 0.336330 0.962900
P2    P     P_3+3 0.672880 0.754030 0.556100 1.049389
P3    P     P_3+3 0.125145 0.822524 0.403336 1.066612
P4    P     P_3+3 0.148670 0.605320 0.663680 1.007676
P5    P     P_3+3 0.064742 0.175246 0.595531 1.000977
P6    P     P_3+3 0.642584 0.613366 0.274613 0.963124
P7    P     P_3+3 0.519081 0.230638 0.437530 0.958859
P8    P     P_3+3 0.549834 0.382767 0.724573 0.952405
S1    S     S_3+6 0.936373 0.072819 0.348754 -0.096183

loop_
_geom_bond_atom_site_label_1
_geom_bond_atom_site_label_2
_ccdc_geom_bond_type
C6    C7    A    
C14   H28   S    
C16   H13   S    
C39   H38   S    
Ba1   O16   S    
Ba2   O6    S    
C5    C6    A    
C52   F2    S    
C43   C44   A    
O7    P7    S    
C45   O3    S    
O21   P3    S    
Ba2   O22   S    
C40   H34   S    
Ba2   O27   S    
C4    H36   S    
C33   C35   A    
C22   C24   A    
C45   H14   S    
C7    C56   A    
C4    O21   S    
O15   P2    D    
C27   H32   S    
C51   H2    S    
C19   C31   A    
C13   C14   A    
C20   C36   A    
C47   P5    S    
C32   H35   S    
C54   C55   S    
Ba1   Ba2   S    
C33   P6    S    
O10   P6    S    
C7    C11   A    
Ba1   O10   S    
C31   C33   A    
O22   P4    D    
C3    H26   S    
Ba2   O4    S    
O14   P6    S    
C38   C41   A    
O11   P6    D    
C14   C15   A    
C46   P7    S    
C39   C44   A    
C55   H21   S    
Ba1   O4    S    
C50   H48   S    
C34   H9    S    
O23   P4    S    
O25   P4    S    
C28   O25   S    
C19   C20   A    
C28   H44   S    
Ba2   P4    S    
C39   C41   A    
C1    H3    S    
C23   H6    S    
Ba1   O1    S    
C49   H45   S    
C23   O7    S    
Ba2   O5    S    
C34   H8    S    
C52   F1    S    
C1    F3    S    
O13   P1    S    
C4    C16   S    
C44   C46   A    
C40   H12   S    
O18   S1    D    
C49   C50   S    
C49   O13   S    
C26   C30   A    
C3    C5    A    
C2    C21   A    
C42   P2    S    
C16   H42   S    
O17   P3    D    
C18   C26   A    
C50   H49   S    
C51   C52   S    
Ba2   O24   S    
C55   H25   S    
O2    P5    D    
Ba2   O26   S    
O5    P2    S    
C35   C36   A    
C53   H17   S    
O27   P5    S    
C29   C30   A    
O6    P7    D    
C12   H5    S    
O9    P8    S    
C31   C32   A    
C24   C25   A    
C55   H22   S    
O19   S1    D    
C40   H23   S    
Ba1   O5    S    
C18   C19   A    
Ba1   P1    S    
C1    C12   S    
C24   C27   A    
C51   H50   S    
O1    P1    D    
C37   C47   A    
C8    H29   S    
C9    C13   A    
C28   F4    S    
O12   P2    S    
C23   H7    S    
C45   H15   S    
C18   C56   A    
C35   H37   S    
C42   C43   A    
C37   H40   S    
C45   C53   S    
C53   H16   S    
O3    P5    S    
C20   C21   A    
O20   S1    S    
C28   C40   S    
Ba1   O15   S    
C2    C3    A    
C51   O12   S    
C12   O14   S    
C9    C10   A    
C54   H20   S    
C52   H4    S    
Ba2   O23   S    
C4    H24   S    
C48   H39   S    
C15   P4    S    
C54   O9    S    
C17   C22   A    
C16   H43   S    
C27   C29   A    
C22   H31   S    
C38   H41   S    
C13   P8    S    
C53   H18   S    
C50   H47   S    
O26   P7    S    
C29   H33   S    
C12   H1    S    
C10   C17   A    
C49   S1    S    
C15   C17   A    
C54   H19   S    
C1    H11   S    
H46   O20   S    
O24   P8    S    
Ba1   P2    S    
C8    C9    A    
C23   C34   S    
C38   C42   A    
C10   C11   A    
O8    P8    D    
C6    C8    A    
C47   C48   A    
C2    C56   A    
C25   C26   A    
C36   P1    S    
C21   H30   S    
C11   C25   A    
C41   P3    S    
C43   C48   A    
Ba1   O23   S    
O16   P3    S    
Ba1   O26   S    
C34   H10   S    
C30   C32   A    
C37   C46   A    
O4    P1    S    
C5    H27   S    
