data_mof_unit_53331.cif
_audit_creation_date              2013-03-05T16:11:44-0500
_audit_creation_method            fapswitch 2.2
_symmetry_space_group_name_H-M    P1
_symmetry_Int_Tables_number       1
_space_group_crystal_system       triclinic
_cell_length_a                    10.727321
_cell_length_b                    9.920598
_cell_length_c                    10.487957
_cell_angle_alpha                 90.101255
_cell_angle_beta                  91.057453
_cell_angle_gamma                 90.010955
_cell_volume                      1115.95162028

loop_
_atom_site_label
_atom_site_type_symbol
_atom_site_description
_atom_site_fract_x
_atom_site_fract_y
_atom_site_fract_z
_atom_type_partial_charge
O1    O     O_R   0.316770 0.614620 0.499990 -0.602911
O2    O     O_R   0.683230 0.385380 0.500010 -0.602925
O3    O     O_R   0.683230 0.614620 0.500010 -0.601644
O4    O     O_R   0.316770 0.385380 0.499990 -0.601679
C1    C     C_R   0.872480 0.499997 0.498809 -0.046028
C2    C     C_R   0.127520 0.500003 0.501199 -0.046030
C3    C     C_R   0.260106 0.499996 0.500548 0.875746
C4    C     C_R   0.739894 0.500004 0.499454 0.875758
O5    O     O_R   0.499970 0.614650 0.313950 -0.589479
O6    O     O_R   0.500030 0.385350 0.686050 -0.589471
O7    O     O_R   0.500030 0.614650 0.686050 -0.592875
O8    O     O_R   0.499970 0.385350 0.313950 -0.592878
C5    C     C_R   0.502134 0.499881 0.257532 0.890016
C6    C     C_R   0.497865 0.500119 0.742468 0.890022
Zn1   Zn    Zn3+2 0.500000 0.653120 0.500000 1.046864
Zn2   Zn    Zn3+2 0.500000 0.346880 0.500000 1.046855
N1    N     N_R   0.500000 0.857200 0.500000 -0.225902
N2    N     N_R   0.500000 0.142800 0.500000 -0.225910
C7    C     C_3   0.382600 0.506727 0.042098 -0.185196
C8    C     C_3   0.617400 0.493274 0.957902 -0.185190
C9    C     C_3   0.445450 0.614391 0.958952 -0.058661
C10   C     C_3   0.554549 0.385610 0.041048 -0.058647
C11   C     C_3   0.434442 0.392678 0.958021 -0.077441
C12   C     C_3   0.565558 0.607323 0.041979 -0.077455
H1    H     H_    0.380657 0.305601 0.919449 0.198597
H2    H     H_    0.619342 0.694400 0.080551 0.198595
C13   C     C_3   0.497504 0.500335 0.877582 -0.052500
C14   C     C_3   0.502496 0.499666 0.122418 -0.052497
C15   C     C_R   0.560545 0.072000 0.594673 0.215935
C16   C     C_R   0.439455 0.928000 0.405327 0.215940
C17   C     C_R   0.439318 0.071628 0.405413 0.214156
C18   C     C_R   0.560675 0.928371 0.594593 0.214146
C19   C     C_R   0.063827 0.377165 0.502052 -0.139842
C20   C     C_R   0.936173 0.622835 0.497959 -0.139837
C21   C     C_R   0.936169 0.377153 0.500050 -0.140749
C22   C     C_R   0.063831 0.622847 0.499960 -0.140752
H3    H     H_    0.111996 0.281294 0.504334 0.206272
H4    H     H_    0.888005 0.718706 0.495678 0.206263
H5    H     H_    0.888002 0.281253 0.499458 0.206975
H6    H     H_    0.111998 0.718747 0.500551 0.206971
N3    N     N_R   0.625984 0.142598 0.694002 0.264702
O9    O     O_R   0.740855 0.179158 0.677306 -0.380748
O10   O     O_R   0.581278 0.144255 0.808417 -0.348031
N4    N     N_R   0.374023 0.857402 0.305992 0.264704
O11   O     O_R   0.259163 0.820807 0.322693 -0.380723
O12   O     O_R   0.418719 0.855783 0.191572 -0.348032
N5    N     N_R   0.372974 0.141816 0.306685 0.264013
O13   O     O_R   0.415556 0.141239 0.191408 -0.350092
O14   O     O_R   0.258597 0.179247 0.324980 -0.378960
N6    N     N_R   0.626994 0.858179 0.693340 0.264018
O15   O     O_R   0.584414 0.858826 0.808621 -0.350087
O16   O     O_R   0.741329 0.820636 0.675039 -0.378967
H7    H     H_    0.287337 0.512222 0.081430 0.181523
H8    H     H_    0.712662 0.487779 0.918570 0.181524
H9    H     H_    0.400040 0.707090 0.921439 0.206274
H10   H     H_    0.599960 0.292911 0.078561 0.206271

loop_
_geom_bond_atom_site_label_1
_geom_bond_atom_site_label_2
_geom_bond_distance
_ccdc_geom_bond_type
O4    Zn2   2.002403 S    
C1    C4    1.422434 S    
N6    O16   1.299422 A    
C5    C14   1.417142 S    
C2    C3    1.422434 S    
O1    Zn1   2.002260 S    
C8    C13   1.526106 S    
C11   C13   1.527749 S    
C6    C13   1.417142 S    
O2    Zn2   2.002259 S    
N3    O9    1.299496 A    
C21   H5    1.082513 S    
N5    O13   1.300310 A    
C2    C19   1.397109 A    
C8    C10   1.542902 S    
C18   N6    1.427985 S    
C1    C20   1.397111 A    
C7    H7    1.110379 S    
N6    O15   1.300335 A    
C9    C13   1.528013 S    
C9    H9    1.110036 S    
N5    O14   1.299513 A    
N2    C15   1.371096 A    
O6    Zn2   1.987588 S    
N4    O11   1.299487 A    
N1    C16   1.371100 A    
N3    O10   1.300536 A    
C16   N4    1.427874 S    
O4    C3    1.289490 A    
C1    C21   1.397208 A    
Zn2   N2    2.024596 S    
C10   C14   1.528012 S    
C2    C22   1.397208 A    
C15   C18   1.424890 A    
C20   C22   1.369202 A    
C11   H1    1.110291 S    
C7    C14   1.526106 S    
C16   C17   1.424876 A    
C19   C21   1.369201 A    
O7    C6    1.282384 A    
C19   H3    1.082576 S    
C17   N5    1.427943 S    
O8    Zn2   1.988913 S    
C22   H6    1.082514 S    
O3    Zn1   2.002402 S    
O8    C5    1.282386 A    
C8    H8    1.110379 S    
O3    C4    1.289491 A    
O6    C6    1.282639 A    
C9    C12   1.543395 S    
Zn1   N1    2.024596 S    
N1    C18   1.371104 A    
O5    C5    1.282639 A    
C7    C11   1.543307 S    
O1    C3    1.289377 A    
C10   H10   1.110036 S    
N2    C17   1.371098 A    
N4    O12   1.300537 A    
C15   N3    1.427867 S    
C20   H4    1.082576 S    
O7    Zn1   1.988912 S    
C8    C12   1.543307 S    
C10   C11   1.543395 S    
O2    C4    1.289377 A    
C12   C14   1.527750 S    
O5    Zn1   1.987589 S    
C12   H2    1.110291 S    
C7    C9    1.542903 S    
