data_mof_unit_62866.cif
_audit_creation_date              2012-12-10T20:48:25-0500
_audit_creation_method            fapswitch 2.2
_symmetry_space_group_name_H-M    P1
_symmetry_Int_Tables_number       1
_space_group_crystal_system       triclinic
_cell_length_a                    16.025898
_cell_length_b                    19.27543
_cell_length_c                    19.23666
_cell_angle_alpha                 94.932191
_cell_angle_beta                  94.984229
_cell_angle_gamma                 90.40814
_cell_volume                      5897.29328287

loop_
_atom_site_label
_atom_site_type_symbol
_atom_type_description
_atom_site_fract_x
_atom_site_fract_y
_atom_site_fract_z
_atom_type_partial_charge
C1    C     C_R   0.508369 0.310725 0.492958 0.804733
C2    C     C_R   0.411893 0.801967 0.526039 -0.030780
C3    C     C_R   0.449383 0.118651 0.471258 -0.218617
C4    C     C_R   0.490485 0.689299 0.506762 0.798720
C5    C     C_R   0.441999 0.190738 0.470440 -0.042114
C6    C     C_R   0.526810 0.088758 0.491676 0.258443
C7    C     C_R   0.512868 0.234256 0.490241 -0.063254
C8    C     C_R   0.590180 0.204205 0.509221 -0.263600
C9    C     C_R   0.597541 0.132108 0.509255 -0.007527
C10   C     C_R   0.491169 0.486711 0.233140 -0.019322
C11   C     C_R   0.532509 0.537752 0.200727 -0.219981
C12   C     C_1   0.111030 0.482859 0.482993 0.018397
C13   C     C_R   0.534370 0.532650 0.128361 -0.180722
C14   C     C_R   0.494715 0.476061 0.086500 0.272732
C15   C     C_R   0.454122 0.424339 0.119078 -0.010895
C16   C     C_R   0.509137 0.508831 0.690067 0.796913
C17   C     C_R   0.451874 0.430070 0.191919 -0.249050
C18   C     C_R   0.526698 0.456054 0.874396 -0.155491
C19   C     C_R   0.527338 0.453622 0.801822 -0.234786
C20   C     C_R   0.512685 0.519502 0.913426 0.304186
C21   C     C_R   0.513020 0.513980 0.766964 -0.044313
C22   C     C_R   0.500995 0.578011 0.806276 -0.029141
C23   C     C_1   0.888867 0.517590 0.517764 0.012441
C24   C     C_R   0.501723 0.580130 0.879065 -0.226830
C25   C     C_R   0.491663 0.491759 0.309901 0.805180
C26   C     C_R   0.723979 0.509963 0.509988 0.812821
C27   C     C_R   0.275900 0.490123 0.490161 0.816563
C28   C     C_1   0.813552 0.514141 0.514269 -0.130419
C29   C     C_2   0.978837 0.521457 0.521647 -0.157175
C30   C     C_2   0.021067 0.479015 0.479199 -0.161106
C31   C     C_1   0.413677 0.365279 0.078176 0.177262
C32   C     C_1   0.490089 0.642539 0.773696 0.193154
C33   C     C_1   0.360331 0.218403 0.451770 0.200106
C34   C     C_1   0.186338 0.486191 0.486279 -0.122072
C35   C     C_1   0.338419 0.766721 0.545003 0.208111
C36   C     C_1   0.678098 0.103252 0.529114 0.180127
C37   C     C_R   0.484460 0.765709 0.507597 -0.048900
C38   C     C_R   0.552383 0.803254 0.487367 -0.233842
C39   C     C_R   0.548968 0.875192 0.485603 -0.158937
C40   C     C_R   0.476804 0.911324 0.503829 0.306452
C41   C     C_R   0.408884 0.874200 0.523646 -0.229093
H1    H     H_    0.988266 0.441053 0.441248 0.162995
H2    H     H_    0.492636 0.629145 0.909409 0.149563
H3    H     H_    0.563715 0.581762 0.231333 0.173482
H4    H     H_    0.353085 0.902024 0.537022 0.149612
H5    H     H_    0.645209 0.237090 0.523813 0.172996
H6    H     H_    0.011621 0.559429 0.559597 0.166381
H7    H     H_    0.394461 0.085846 0.456092 0.162941
H8    H     H_    0.602481 0.902141 0.469296 0.160853
H9    H     H_    0.608614 0.776867 0.472912 0.173365
H10   H     H_    0.537169 0.404163 0.772660 0.167836
H11   H     H_    0.537310 0.408519 0.899810 0.159911
H12   H     H_    0.420323 0.389911 0.216421 0.174331
H13   H     H_    0.567593 0.572801 0.105352 0.161204
N1    N     N_2   0.468876 0.984420 0.501499 -0.189596
N2    N     N_2   0.535565 0.015676 0.494311 -0.186725
N3    N     N_2   0.495800 0.469398 0.012326 -0.188543
N4    N     N_2   0.511055 0.525208 0.987255 -0.194360
N5    N     N_1   0.381246 0.317918 0.045356 -0.188184
N6    N     N_1   0.481366 0.694226 0.747613 -0.183391
N7    N     N_1   0.294869 0.240500 0.436835 -0.183752
N8    N     N_1   0.279485 0.738570 0.560187 -0.180277
N9    N     N_1   0.742680 0.080092 0.545034 -0.191484
O1    O     O_3   0.500000 0.500000 0.500000 -0.484708
O2    O     O_R   0.688130 0.469010 0.547620 -0.633772
O3    O     O_R   0.315580 0.449250 0.449280 -0.629529
O4    O     O_R   0.680710 0.547310 0.468650 -0.635133
O5    O     O_R   0.315580 0.534430 0.534450 -0.629870
O6    O     O_R   0.456860 0.545290 0.655940 -0.631157
O7    O     O_R   0.446440 0.450430 0.339790 -0.643237
O8    O     O_R   0.557290 0.347960 0.537250 -0.642523
O9    O     O_R   0.539410 0.656320 0.467010 -0.644510
O10   O     O_R   0.456880 0.340240 0.450910 -0.633520
O11   O     O_R   0.446420 0.655480 0.544820 -0.628435
O12   O     O_R   0.557280 0.467820 0.657110 -0.639383
O13   O     O_R   0.539420 0.536460 0.347160 -0.645614
Zn1   Zn    Zn3+2 0.430910 0.557800 0.557800 1.001801
Zn2   Zn    Zn3+2 0.574380 0.447110 0.559460 0.979373
Zn3   Zn    Zn3+2 0.563780 0.559000 0.446630 0.974045
Zn4   Zn    Zn3+2 0.430930 0.436090 0.436110 0.988641

loop_
_geom_bond_atom_site_label_1
_geom_bond_atom_site_label_2
_ccdc_geom_bond_type
C2    C35   S    
N1    N2    D    
C16   C21   S    
C16   O12   A    
O1    Zn1   S    
O6    Zn1   S    
O13   Zn3   S    
C3    C6    A    
C6    C9    A    
C18   H11   S    
C7    C8    A    
C29   C30   D    
C22   C32   S    
C29   H6    S    
C26   O4    A    
C23   C29   S    
C19   C21   A    
O9    Zn3   S    
C38   C39   A    
C10   C17   A    
C3    H7    S    
C18   C19   A    
C31   N5    T    
C27   O5    A    
C20   C24   A    
C8    C9    A    
O11   Zn1   S    
C5    C33   S    
C9    C36   S    
C36   N9    T    
C4    O11   A    
C13   C14   A    
O1    Zn4   S    
C27   C34   S    
O7    Zn4   S    
O4    Zn3   S    
C39   C40   A    
C5    C7    A    
C37   C38   A    
C40   N1    S    
C11   H3    S    
C1    O8    A    
C23   C28   T    
C10   C25   S    
C40   C41   A    
C39   H8    S    
O1    Zn3   S    
C22   C24   A    
C32   N6    T    
C12   C34   T    
C17   H12   S    
C4    O9    A    
C13   H13   S    
O5    Zn1   S    
C15   C17   A    
C14   N3    S    
O2    Zn2   S    
C12   C30   S    
C1    C7    S    
C26   O2    A    
O1    Zn2   S    
C16   O6    A    
C6    N2    S    
C3    C5    A    
C15   C31   S    
C38   H9    S    
O3    Zn4   S    
C26   C28   S    
C25   O13   A    
C1    O10   A    
C27   O3    A    
C11   C13   A    
C2    C37   A    
N3    N4    D    
O10   Zn4   S    
C35   N8    T    
C18   C20   A    
O12   Zn2   S    
C8    H5    S    
C10   C11   A    
C19   H10   S    
C4    C37   S    
C33   N7    T    
C24   H2    S    
C41   H4    S    
C14   C15   A    
C30   H1    S    
C25   O7    A    
C2    C41   A    
C21   C22   A    
C20   N4    S    
O8    Zn2   S    
