data_mof_unit_42071.cif
_audit_creation_date              2013-03-05T16:45:21-0500
_audit_creation_method            fapswitch 2.2
_symmetry_space_group_name_H-M    P1
_symmetry_Int_Tables_number       1
_space_group_crystal_system       triclinic
_cell_length_a                    8.904144
_cell_length_b                    10.667232
_cell_length_c                    9.883474
_cell_angle_alpha                 89.943053
_cell_angle_beta                  89.882686
_cell_angle_gamma                 90.147557
_cell_volume                      938.752209635

loop_
_atom_site_label
_atom_site_type_symbol
_atom_site_description
_atom_site_fract_x
_atom_site_fract_y
_atom_site_fract_z
_atom_type_partial_charge
O1    O     O_R   0.500020 0.316790 0.614690 -0.585076
O2    O     O_R   0.500000 0.316760 0.385350 -0.607784
C1    C     C_R   0.505852 0.259971 0.500075 0.887908
O3    O     O_R   0.285350 0.500020 0.614650 -0.611631
O4    O     O_R   0.285340 0.499980 0.385310 -0.624863
C2    C     C_R   0.218775 0.500218 0.500021 0.933937
Zn1   Zn    Zn3+2 0.500010 0.500020 0.653130 1.004896
Zn2   Zn    Zn3+2 0.499990 0.499980 0.346870 0.967153
O5    O     O_R   0.500000 0.683240 0.614650 -0.627721
O6    O     O_R   0.499980 0.683210 0.385310 -0.629471
O7    O     O_R   0.714660 0.500020 0.614690 -0.585592
O8    O     O_R   0.714650 0.499980 0.385350 -0.628617
C3    C     C_R   0.505407 0.740068 0.499893 0.869225
C4    C     C_R   0.781249 0.500270 0.499894 0.930897
C5    C     C_1   0.065441 0.500600 0.499836 -0.148601
C6    C     C_1   0.934598 0.500601 0.499646 -0.139720
C7    C     C_R   0.543758 0.063973 0.622140 0.103969
C8    C     C_R   0.533361 0.128825 0.500108 -0.157225
C9    C     C_R   0.554485 0.065078 0.377437 -0.157047
H1    H     H_    0.559459 0.114037 0.281440 0.218056
C10   C     C_R   0.554087 0.935492 0.377296 -0.198936
H2    H     H_    0.559049 0.886820 0.281237 0.186711
C11   C     C_R   0.532239 0.871391 0.499786 -0.095759
C12   C     C_R   0.542103 0.935928 0.621861 0.060529
C13   C     C_3   0.446557 0.927983 0.746243 -0.527705
C14   C     C_3   0.447922 0.070488 0.746980 0.160838
H3    H     H_    0.333542 0.887664 0.725863 0.191660
H4    H     H_    0.507632 0.884171 0.832148 0.228184
C15   C     C_R   0.390907 0.437383 0.071683 0.244661
N1    N     N_R   0.499010 0.499140 0.142800 -0.115689
C16   C     C_R   0.614492 0.552771 0.071569 -0.107421
C17   C     C_R   0.614361 0.552997 0.927802 -0.072411
N2    N     N_R   0.499010 0.499180 0.857150 -0.137363
C18   C     C_R   0.391312 0.436312 0.929025 0.222117
C19   C     C_3   0.225877 0.461290 0.925588 0.052640
C20   C     C_3   0.226673 0.462836 0.079359 -0.565512
N3    N     N_R   0.140005 0.355787 0.870835 0.246525
O9    O     O_R   0.167581 0.241324 0.909058 -0.361862
O10   O     O_R   0.026419 0.377171 0.791742 -0.367897
H5    H     H_    0.201712 0.556894 0.122151 0.192733
H6    H     H_    0.164022 0.384397 0.127792 0.250040
H7    H     H_    0.336204 0.114037 0.730125 0.148595
N4    N     N_R   0.527313 0.121580 0.864331 0.238377
O11   O     O_R   0.651528 0.184910 0.849935 -0.338098
O12   O     O_R   0.467696 0.110984 0.984057 -0.384108
H8    H     H_    0.705218 0.598144 0.125360 0.152774
H9    H     H_    0.704922 0.598603 0.873580 0.160073
H10   H     H_    0.196214 0.553000 0.879055 0.123610

loop_
_geom_bond_atom_site_label_1
_geom_bond_atom_site_label_2
_geom_bond_distance
_ccdc_geom_bond_type
C7    C8    1.393188 A    
O4    Zn2   1.947905 S    
N4    O11   1.302003 A    
C15   N1    1.361981 A    
C13   H3    1.112196 S    
Zn1   N2    2.016439 S    
C19   C20   1.519923 S    
Zn2   O8    1.949597 S    
N1    C16   1.368740 A    
C11   C12   1.392528 A    
Zn2   N1    2.016986 S    
C17   N2    1.368507 A    
O2    C1    1.286236 A    
C2    C5    1.365332 S    
N3    O10   1.300026 A    
C10   H2    1.083422 S    
C13   H4    1.112395 S    
Zn1   O7    1.947906 S    
N4    O12   1.300626 A    
C15   C20   1.489836 S    
C14   H7    1.111757 S    
C20   H6    1.111834 S    
N3    O9    1.301870 A    
O3    Zn1   1.949597 S    
C7    C14   1.500517 S    
O3    C2    1.279723 A    
C9    C10   1.382323 A    
O8    C4    1.279083 A    
C14   N4    1.464447 S    
N2    C18   1.366354 A    
C10   C11   1.402758 A    
O4    C2    1.278260 A    
C17   H9    1.081566 S    
C4    C6    1.365434 S    
C7    C12   1.365926 A    
C19   H10   1.113226 S    
C5    C6    1.165050 T    
C20   H5    1.112007 S    
C12   C13   1.495777 S    
C3    C11   1.420467 S    
C1    C8    1.420873 S    
Zn2   O6    1.991509 S    
C18   C19   1.498083 S    
O7    C4    1.279084 A    
Zn1   O5    1.990737 S    
O5    C3    1.286256 A    
C8    C9    1.403239 A    
C19   N3    1.463742 S    
C13   C14   1.520176 S    
O1    Zn1   1.991509 S    
C15   C18   1.410012 A    
O6    C3    1.286140 A    
C16   C17   1.420925 A    
O2    Zn2   1.990739 S    
C9    H1    1.083342 S    
O1    C1    1.286298 A    
C16   H8    1.081557 S    
