data_mof_unit_6846.cif
_audit_creation_date              2012-10-26T19:03:33-0400
_audit_creation_method            fapswitch 2.2
_symmetry_space_group_name_H-M    P1
_symmetry_Int_Tables_number       1
_space_group_crystal_system       triclinic
_cell_length_a                    10.81238
_cell_length_b                    12.974139
_cell_length_c                    11.729526
_cell_angle_alpha                 99.313142
_cell_angle_beta                  92.567459
_cell_angle_gamma                 92.401568
_cell_volume                      1620.09689764

loop_
_atom_site_label
_atom_site_type_symbol
_atom_type_description
_atom_site_fract_x
_atom_site_fract_y
_atom_site_fract_z
_atom_type_partial_charge
C1    C     C_R   0.497165 0.299224 0.478918 0.531512
C2    C     C_R   0.451214 0.123854 0.360806 -0.137292
C3    C     C_R   0.518824 0.138548 0.563301 -0.144709
C4    C     C_R   0.262721 0.503092 0.501942 0.532392
C5    C     C_R   0.506405 0.030646 0.554992 0.044530
C6    C     C_R   0.467318 0.968551 0.448021 0.045088
C7    C     C_R   0.458541 0.860327 0.439013 -0.157775
C8    C     C_R   0.525050 0.875777 0.641999 -0.124435
C9    C     C_R   0.533157 0.983914 0.651924 -0.149997
C10   C     C_R   0.358462 0.426007 0.030418 -0.189165
C11   C     C_R   0.376521 0.428160 0.149790 -0.019812
C12   C     C_R   0.073518 0.584796 0.586901 -0.010642
C13   C     C_R   0.562043 0.533450 0.153894 0.433003
C14   C     C_R   0.551941 0.526579 0.031052 -0.027701
C15   C     C_R   0.447809 0.473032 0.968768 -0.025733
C16   C     C_R   0.496341 0.700388 0.521346 0.566068
C17   C     C_R   0.436260 0.468277 0.846265 0.427946
C18   C     C_R   0.624722 0.569956 0.850004 -0.019132
C19   C     C_R   0.642138 0.572557 0.969439 -0.193416
C20   C     C_R   0.737561 0.506475 0.499285 0.598531
C21   C     C_R   0.143469 0.655737 0.673012 -0.113214
C22   C     C_R   0.085807 0.730536 0.748412 -0.178211
C23   C     C_R   0.129312 0.509740 0.505913 0.012031
C24   C     C_R   0.960059 0.743864 0.732398 -0.110094
C25   C     C_R   0.890486 0.680893 0.641840 0.279509
C26   C     C_R   0.943365 0.592884 0.577132 0.025610
C27   C     C_3   0.346767 0.306349 0.770375 -0.094352
C28   C     C_3   0.635893 0.701395 0.221695 -0.102105
C29   C     C_3   0.810691 0.785546 0.525292 -0.124586
C30   C     C_R   0.056847 0.442207 0.421574 -0.152793
C31   C     C_R   0.929331 0.444455 0.418749 -0.160714
C32   C     C_R   0.871821 0.517157 0.497219 0.009805
C33   C     C_R   0.490860 0.813600 0.534792 -0.007884
C34   C     C_R   0.490111 0.185626 0.466998 -0.003654
C35   C     C_R   0.439995 0.015624 0.351334 -0.143421
Cu1   Cu    Cu3+1 0.509250 0.507730 0.615930 1.001135
Cu2   Cu    Cu3+1 0.490750 0.492270 0.384070 0.987763
H1    H     H_    0.099289 0.385014 0.359459 0.119910
H2    H     H_    0.140485 0.783047 0.814727 0.116248
H3    H     H_    0.918520 0.809143 0.783732 0.117442
H4    H     H_    0.875055 0.387435 0.356503 0.131127
H5    H     H_    0.429029 0.812620 0.357004 0.110345
H6    H     H_    0.549872 0.840872 0.717187 0.145782
H7    H     H_    0.410109 0.968914 0.268792 0.098048
H8    H     H_    0.279479 0.271833 0.823868 0.094594
H9    H     H_    0.441446 0.282087 0.792590 0.088971
H10   H     H_    0.321470 0.271396 0.679246 0.152577
H11   H     H_    0.661329 0.743548 0.309720 0.138282
H12   H     H_    0.562285 0.030770 0.734593 0.099047
H13   H     H_    0.537875 0.718422 0.200821 0.093606
H14   H     H_    0.697349 0.735156 0.162669 0.092879
H15   H     H_    0.876700 0.850973 0.565403 0.109240
H16   H     H_    0.726512 0.822184 0.498352 0.134143
H17   H     H_    0.848915 0.742049 0.445950 0.125429
H18   H     H_    0.428273 0.159147 0.285458 0.126471
H19   H     H_    0.551480 0.185675 0.644706 0.110923
H20   H     H_    0.694214 0.607315 0.804819 0.159118
H21   H     H_    0.274161 0.387967 0.987827 0.133922
H22   H     H_    0.726923 0.609632 0.012229 0.136005
H23   H     H_    0.307986 0.389653 0.194959 0.130241
H24   H     H_    0.242948 0.656780 0.683377 0.160775
N1    N     N_R   0.523180 0.519350 0.790130 -0.225724
N2    N     N_R   0.476820 0.480650 0.209890 -0.219896
O1    O     O_R   0.506570 0.354460 0.582000 -0.501103
O2    O     O_3   0.656864 0.593940 0.218704 -0.537755
O3    O     O_3   0.780587 0.717486 0.603970 -0.567504
O4    O     O_R   0.490940 0.341410 0.386200 -0.515863
O5    O     O_R   0.327470 0.506530 0.597920 -0.463009
O6    O     O_R   0.311840 0.493480 0.402120 -0.526431
O7    O     O_R   0.509060 0.658590 0.613800 -0.494203
O8    O     O_R   0.493430 0.645540 0.418000 -0.492973
O9    O     O_R   0.688160 0.506520 0.597880 -0.495302
O10   O     O_R   0.672530 0.493470 0.402080 -0.451172
O11   O     O_3   0.335014 0.415821 0.782835 -0.538280

loop_
_geom_bond_atom_site_label_1
_geom_bond_atom_site_label_2
_ccdc_geom_bond_type
C2    C35   A    
C26   C32   A    
Cu2   O6    S    
C8    H6    S    
C13   O2    S    
C12   C23   A    
C21   C22   A    
Cu1   Cu2   S    
C10   H21   S    
C11   N2    A    
C2    H18   S    
C5    C6    A    
C17   N1    A    
C28   H14   S    
C29   H17   S    
C6    C35   A    
C30   H1    S    
C18   C19   A    
C7    H5    S    
C24   H3    S    
C28   H13   S    
C8    C9    A    
C27   O11   S    
C21   H24   S    
C27   H8    S    
C13   C14   A    
C7    C33   A    
C16   O8    A    
Cu1   N1    S    
C4    O6    A    
Cu2   N2    S    
Cu1   O7    S    
C1    C34   S    
C23   C30   A    
C9    H12   S    
C24   C25   A    
C4    O5    A    
C4    C23   S    
C18   N1    A    
C3    C34   A    
C19   H22   S    
C25   C26   A    
C12   C21   A    
C12   C26   A    
C5    C9    A    
C16   C33   S    
C3    H19   S    
C18   H20   S    
C31   C32   A    
C13   N2    A    
C16   O7    A    
C35   H7    S    
C27   H9    S    
Cu2   O8    S    
C17   O11   S    
C22   C24   A    
C11   H23   S    
C1    O1    A    
C20   C32   S    
C27   H10   S    
C15   C17   A    
Cu2   O10   S    
C28   H11   S    
C31   H4    S    
C14   C19   A    
C25   O3    S    
C3    C5    A    
Cu1   O5    S    
C6    C7    A    
C10   C15   A    
C28   O2    S    
C2    C34   A    
C30   C31   A    
C29   H16   S    
C22   H2    S    
Cu2   O4    S    
C1    O4    A    
C20   O10   A    
C8    C33   A    
C10   C11   A    
C29   O3    S    
C14   C15   A    
C20   O9    A    
Cu1   O1    S    
Cu1   O9    S    
C29   H15   S    
