data_mof_unit_24272.cif
_audit_creation_date              2012-12-11T15:46:55-0500
_audit_creation_method            fapswitch 2.2
_symmetry_space_group_name_H-M    P1
_symmetry_Int_Tables_number       1
_space_group_crystal_system       triclinic
_cell_length_a                    11.691544
_cell_length_b                    11.626881
_cell_length_c                    19.507869
_cell_angle_alpha                 90.635817
_cell_angle_beta                  89.990415
_cell_angle_gamma                 59.818715
_cell_volume                      2292.14966988

loop_
_atom_site_label
_atom_site_type_symbol
_atom_type_description
_atom_site_fract_x
_atom_site_fract_y
_atom_site_fract_z
_atom_type_partial_charge
C1    C     C_R   0.640032 0.117309 0.599116 0.542605
C2    C     C_1   0.640750 0.704265 0.667828 0.001784
C3    C     C_1   0.126383 0.198617 0.859362 0.004158
C4    C     C_1   0.171170 0.170943 0.727552 -0.034484
C5    C     C_1   0.149828 0.182407 0.798889 -0.033231
C6    C     C_1   0.195145 0.161705 0.667153 0.000916
C7    C     C_1   0.679575 0.190635 0.860909 0.004097
C8    C     C_1   0.658372 0.167364 0.728996 -0.033728
C9    C     C_1   0.666234 0.180483 0.800407 -0.032955
C10   C     C_1   0.652384 0.150052 0.668506 0.002328
C11   C     C_R   0.678062 0.633073 0.199601 -0.079079
C12   C     C_R   0.611841 0.746897 0.598518 0.530883
C13   C     C_R   0.609255 0.590907 0.240257 0.017989
C14   C     C_R   0.606318 0.599869 0.309662 -0.065986
C15   C     C_R   0.766734 0.672567 0.303878 0.282563
C16   C     C_R   0.767431 0.661653 0.231817 -0.134645
C17   C     C_3   0.477235 0.604531 0.234553 0.199201
C18   C     C_3   0.473572 0.607569 0.312407 0.178200
C19   C     C_R   0.671498 0.657703 0.342085 -0.002868
C20   C     C_R   0.146305 0.201160 0.191181 -0.019680
C21   C     C_R   0.116822 0.307855 0.235133 0.050285
C22   C     C_R   0.136863 0.291089 0.304648 0.017942
C23   C     C_R   0.241339 0.145453 0.598004 0.538133
C24   C     C_R   0.209647 0.058189 0.290228 -0.137358
C25   C     C_R   0.194731 0.074619 0.219127 -0.124494
C26   C     C_3   0.167877 0.402044 0.231410 0.212143
C27   C     C_3   0.185636 0.388558 0.308917 0.203574
C28   C     C_R   0.186860 0.165143 0.333487 -0.014721
C29   C     C_R   0.673499 0.202030 0.196101 0.043941
C30   C     C_R   0.727066 0.240526 0.249329 0.076374
C31   C     C_R   0.713597 0.215365 0.316819 -0.113821
C32   C     C_R   0.577253 0.123437 0.280437 0.234804
C33   C     C_R   0.587082 0.156816 0.211781 -0.178535
C34   C     C_R   0.642634 0.111285 0.402060 0.583010
C35   C     C_3   0.865315 0.209829 0.260465 0.172882
C36   C     C_3   0.849637 0.184817 0.335766 -0.269603
C37   C     C_R   0.649516 0.146159 0.332213 0.020233
C38   C     C_R   0.081363 0.231221 0.928722 0.539338
C39   C     C_R   0.684359 0.603350 0.929565 0.542019
C40   C     C_R   0.709117 0.206612 0.930237 0.537228
C41   C     C_R   0.086547 0.234711 0.123791 0.553845
C42   C     C_R   0.685313 0.605817 0.127257 0.543766
C43   C     C_R   0.707682 0.212407 0.126505 0.562748
C44   C     C_R   0.620008 0.733968 0.404744 0.567640
C45   C     C_R   0.245912 0.139993 0.401048 0.565925
C46   C     C_1   0.670699 0.645623 0.860180 0.003367
C47   C     C_1   0.654535 0.683588 0.728309 -0.034330
C48   C     C_1   0.663532 0.666121 0.799672 -0.033432
Cr1   Cr    Cr6+3 0.404720 0.198220 0.499960 1.000664
Cr2   Cr    Cr6+3 0.698290 0.897110 0.500380 1.030772
Cr3   Cr    Cr6+3 0.396970 0.904720 0.499610 1.042718
Cr4   Cr    Cr6+3 0.926290 0.152010 0.028150 1.034967
Cr5   Cr    Cr6+3 0.921440 0.451830 0.027490 1.001293
Cr6   Cr    Cr6+3 0.626370 0.446880 0.028730 1.026907
H1    H     H_    0.263832 0.358369 0.203508 0.032602
H2    H     H_    0.291447 0.346459 0.323269 0.103791
H3    H     H_    0.535907 0.139697 0.170269 0.081794
H4    H     H_    0.873724 0.300040 0.253511 0.136263
H5    H     H_    0.911883 0.082580 0.355218 0.128400
H6    H     H_    0.846500 0.262771 0.370538 0.106510
H7    H     H_    0.830301 0.683014 0.200796 0.155083
H8    H     H_    0.405480 0.700447 0.209698 0.105184
H9    H     H_    0.482063 0.516648 0.336355 0.121901
H10   H     H_    0.248076 0.960360 0.310522 0.190987
H11   H     H_    0.214842 0.990299 0.186586 0.132157
O1    O     O_R   0.267750 0.231960 0.575440 -0.527856
O2    O     O_R   0.685950 0.784660 0.430010 -0.462730
O3    O     O_R   0.502510 0.767000 0.423980 -0.459748
O4    O     O_R   0.288320 0.026340 0.429250 -0.485909
O5    O     O_3   0.499990 0.000020 0.499980 -0.250512
O6    O     O_R   0.821590 0.119350 0.952850 -0.513701
O7    O     O_R   0.037230 0.162540 0.957390 -0.501327
O8    O     O_R   0.056530 0.344750 0.951370 -0.515352
O9    O     O_R   0.798000 0.560370 0.957490 -0.499622
O10   O     O_R   0.596230 0.579400 0.952760 -0.510830
O11   O     O_R   0.639160 0.321170 0.958690 -0.502935
O12   O     O_R   0.527290 0.186640 0.570530 -0.503331
O13   O     O_R   0.821370 0.124220 0.104400 -0.492517
O14   O     O_R   0.037020 0.167050 0.097880 -0.460460
O15   O     O_R   0.056310 0.349620 0.102920 -0.525015
O16   O     O_R   0.797790 0.564880 0.097980 -0.512256
O17   O     O_R   0.596000 0.584270 0.104310 -0.495975
O18   O     O_R   0.638950 0.325690 0.099180 -0.470970
O19   O     O_3   0.824700 0.350240 0.028120 -0.257541
O20   O     O_R   0.728110 0.003450 0.576380 -0.511904
O21   O     O_R   0.682980 0.789190 0.570500 -0.508480
O22   O     O_R   0.499300 0.771880 0.575540 -0.513253
O23   O     O_R   0.285350 0.030870 0.569740 -0.497182
O24   O     O_R   0.270960 0.227070 0.423890 -0.536767
O25   O     O_R   0.530270 0.182120 0.430040 -0.492876
O26   O     O_R   0.731320 0.998570 0.424830 -0.522686
O27   O     O_3   0.856242 0.696187 0.338984 -0.494959
C49   C     C_3   0.876100 0.793291 0.308239 -0.062687
H12   H     H_    0.946635 0.751049 0.264896 0.150790
H13   H     H_    0.781741 0.879356 0.291947 0.106786
H14   H     H_    0.921629 0.829023 0.346486 0.130682
O28   O     O_3   0.092524 0.506794 0.343191 -0.495341
C50   C     C_3   0.130439 0.521145 0.410156 0.037657
H15   H     H_    0.112673 0.623894 0.414664 0.119319
H16   H     H_    0.236882 0.453953 0.421842 0.118664
C51   C     C_3   0.040857 0.509052 0.463628 -0.231821
H17   H     H_    0.935526 0.576878 0.450893 0.211514
H18   H     H_    0.056696 0.406801 0.463774 0.173067
C52   C     C_3   0.065536 0.545767 0.535263 -0.455822
H19   H     H_    0.171783 0.484993 0.548623 0.170329
H20   H     H_    0.005941 0.527765 0.573424 0.154638
H21   H     H_    0.035921 0.652723 0.537671 0.138157
O29   O     O_3   0.503720 0.064334 0.298890 -0.560099
C53   C     C_3   0.507311 0.976164 0.247423 -0.129729
H22   H     H_    0.605964 0.917962 0.222683 0.086771
H23   H     H_    0.433674 0.031717 0.207304 0.111434
H24   H     H_    0.482791 0.904770 0.270818 0.158895
O30   O     O_3   0.958182 0.102427 0.218537 -0.531052
C54   C     C_3   0.975878 0.975970 0.232864 -0.102395
H25   H     H_    0.030795 0.908123 0.189383 0.129646
H26   H     H_    0.880624 0.978676 0.236618 0.095845
H27   H     H_    0.037839 0.933065 0.278886 0.091853
O31   O     O_3   0.489663 0.486872 0.207051 -0.568159
C55   C     C_3   0.373427 0.516844 0.172569 -0.119338
H28   H     H_    0.351390 0.589462 0.130798 0.111250
H29   H     H_    0.290790 0.554759 0.210109 0.125794
H30   H     H_    0.387811 0.424306 0.147889 0.133932
O32   O     O_3   0.370237 0.731076 0.336361 -0.581593
C56   C     C_3   0.266645 0.715494 0.362164 -0.144756
H31   H     H_    0.299735 0.651008 0.408073 0.108477
H32   H     H_    0.228148 0.675088 0.322111 0.117580
H33   H     H_    0.184298 0.814336 0.378627 0.122700
O33   O     O_3   0.067000 0.530503 0.212245 -0.536058
C57   C     C_3   0.085637 0.566358 0.145767 -0.119461
H34   H     H_    0.169193 0.486429 0.115755 0.102488
H35   H     H_    0.098066 0.654639 0.149748 0.064735
H36   H     H_    0.994903 0.598168 0.115455 0.169038

loop_
_geom_bond_atom_site_label_1
_geom_bond_atom_site_label_2
_ccdc_geom_bond_type
C21   C26   S    
C49   H12   S    
C40   O6    A    
C34   C37   S    
C43   O18   A    
C14   C18   S    
C35   C36   S    
C42   O17   A    
Cr1   O25   S    
C36   H5    S    
C2    C12   S    
O33   C57   S    
C41   O15   A    
Cr6   O19   S    
C20   C41   S    
O32   C56   S    
Cr1   O5    S    
C43   O13   A    
C15   C19   A    
C26   C27   S    
C51   H17   S    
C30   C35   S    
Cr5   O19   S    
C23   O1    A    
O30   C54   S    
C53   H23   S    
C30   C31   A    
C18   H9    S    
C20   C25   A    
C15   C16   A    
C29   C33   A    
C1    O12   A    
O29   C53   S    
C11   C42   S    
Cr5   O16   S    
C39   O9    A    
Cr4   O19   S    
O31   C55   S    
Cr6   O18   S    
Cr2   O20   S    
C15   O27   S    
C34   O26   A    
Cr5   O9    S    
C3    C38   S    
C8    C9    S    
C7    C40   S    
Cr3   O5    S    
C39   O10   A    
Cr4   O14   S    
C45   O24   A    
Cr2   O2    S    
C18   O32   S    
C57   H36   S    
C24   H10   S    
C22   C28   A    
C21   C22   A    
C29   C43   S    
C42   O16   A    
Cr4   O13   S    
C52   H20   S    
C52   H19   S    
O28   C50   S    
C38   O7    A    
C55   H29   S    
C1    O20   A    
C46   C48   T    
C28   C45   S    
Cr1   O1    S    
C45   O4    A    
Cr5   O15   S    
C25   H11   S    
C24   C25   A    
C4    C6    T    
C53   H24   S    
Cr3   O22   S    
C27   H2    S    
C3    C5    T    
C31   C37   A    
C34   O25   A    
C29   C30   A    
Cr4   O7    S    
C17   H8    S    
C11   C16   A    
C47   C48   S    
C17   C18   S    
C26   O33   S    
C32   C37   A    
C17   O31   S    
C39   C46   S    
Cr6   O11   S    
C8    C10   T    
C49   H14   S    
C50   H16   S    
C23   O23   A    
C35   H4    S    
C44   O3    A    
C16   H7    S    
Cr6   O17   S    
C19   C44   S    
C56   H32   S    
C57   H34   S    
C55   H30   S    
C7    C9    T    
C27   O28   S    
C33   H3    S    
C12   O22   A    
C14   C19   A    
Cr5   O8    S    
C1    C10   S    
C24   C28   A    
Cr1   O24   S    
C4    C5    S    
C36   H6    S    
Cr3   O23   S    
C41   O14   A    
C54   H26   S    
C55   H28   S    
C54   H25   S    
C12   O21   A    
C2    C47   T    
C51   C52   S    
C50   C51   S    
C13   C17   S    
C22   C27   S    
C32   C33   A    
Cr2   O5    S    
Cr4   O6    S    
C53   H22   S    
C11   C13   A    
C49   H13   S    
C6    C23   S    
O27   C49   S    
C26   H1    S    
Cr1   O12   S    
C35   O30   S    
Cr3   O3    S    
C54   H27   S    
Cr2   O21   S    
Cr6   O10   S    
C40   O11   A    
Cr2   O26   S    
C20   C21   A    
C51   H18   S    
C50   H15   S    
C32   O29   S    
C56   H33   S    
C31   C36   S    
C44   O2    A    
Cr3   O4    S    
C13   C14   A    
C52   H21   S    
C56   H31   S    
C57   H35   S    
C38   O8    A    
