data_mof_unit_31367.cif
_audit_creation_date              2012-12-10T17:43:36-0500
_audit_creation_method            fapswitch 2.2
_symmetry_space_group_name_H-M    P1
_symmetry_Int_Tables_number       1
_space_group_crystal_system       triclinic
_cell_length_a                    14.98925
_cell_length_b                    10.7381
_cell_length_c                    9.97907
_cell_angle_alpha                 88.728335
_cell_angle_beta                  90.331996
_cell_angle_gamma                 91.219298
_cell_volume                      1605.40989544

loop_
_atom_site_label
_atom_site_type_symbol
_atom_type_description
_atom_site_fract_x
_atom_site_fract_y
_atom_site_fract_z
_atom_type_partial_charge
C1    C     C_R   0.505897 0.260457 0.502759 0.847513
C2    C     C_R   0.902499 0.607287 0.457692 0.017399
C3    C     C_R   0.958317 0.293017 0.608468 0.454448
C4    C     C_R   0.050075 0.296753 0.588651 -0.180706
C5    C     C_R   0.093461 0.404793 0.541728 0.071178
C6    C     C_R   0.044764 0.509412 0.501549 0.042123
C7    C     C_R   0.089565 0.618323 0.452598 -0.034131
C8    C     C_R   0.039167 0.723018 0.416612 -0.157655
C9    C     C_R   0.946787 0.717927 0.414336 0.320344
C10   C     C_R   0.185753 0.410422 0.539912 -0.205603
C11   C     C_R   0.230977 0.516691 0.493237 -0.177007
C12   C     C_R   0.327406 0.511144 0.498304 0.912003
C13   C     C_R   0.183437 0.619627 0.439127 0.366071
C14   C     C_R   0.496314 0.101985 0.758471 -0.179156
C15   C     C_R   0.456754 0.036844 0.864941 -0.344580
C16   C     C_R   0.407150 0.928219 0.842088 0.455475
C17   C     C_R   0.406348 0.876911 0.713844 0.420755
C18   C     C_R   0.459432 0.934562 0.609759 -0.142090
C19   C     C_R   0.489992 0.056945 0.626676 0.106892
C20   C     C_R   0.514552 0.127230 0.510353 -0.135318
C21   C     C_R   0.536227 0.068287 0.392737 -0.188208
C22   C     C_R   0.528685 0.941348 0.385952 0.432093
C23   C     C_R   0.496841 0.739806 0.498177 0.950280
C24   C     C_R   0.489443 0.873174 0.494288 -0.228350
C25   C     C_R   0.378973 0.346545 0.143049 -0.344277
C26   C     C_R   0.314833 0.273940 0.077307 0.379277
C27   C     C_R   0.314664 0.272644 0.937789 0.443045
C28   C     C_R   0.377391 0.345202 0.865303 -0.329916
C29   C     C_R   0.439062 0.425106 0.929583 0.054704
C30   C     C_R   0.439679 0.424996 0.073403 0.164978
C31   C     C_R   0.559191 0.568653 0.072888 -0.083464
C32   C     C_R   0.562199 0.567448 0.930865 0.398303
C33   C     C_R   0.672112 0.495983 0.500457 0.894892
C34   C     C_R   0.810546 0.598124 0.454151 -0.143088
C35   C     C_R   0.766901 0.492137 0.501498 -0.185551
C36   C     C_R   0.812428 0.387804 0.551855 0.486547
C37   C     C_R   0.906466 0.393721 0.558032 -0.044556
C38   C     C_R   0.951173 0.503613 0.506458 -0.072958
H1    H     H_    0.770510 0.673334 0.415122 0.230642
H2    H     H_    0.535545 0.183792 0.783160 0.205587
H3    H     H_    0.462791 0.074254 0.964367 0.165590
H4    H     H_    0.607466 0.622074 0.129814 0.209749
H5    H     H_    0.379544 0.338948 0.249005 0.222440
H6    H     H_    0.377115 0.335774 0.759245 0.246230
H7    H     H_    0.088849 0.216079 0.615955 0.237165
H8    H     H_    0.223423 0.330634 0.573233 0.206207
H9    H     H_    0.070654 0.810678 0.388831 0.256170
H10   H     H_    0.560746 0.120699 0.305877 0.189747
N1    N     N_R   0.499150 0.498800 0.142780 -0.119696
N2    N     N_R   0.499120 0.498720 0.857170 -0.146797
O1    O     O_R   0.500000 0.316780 0.614690 -0.660672
O2    O     O_R   0.499990 0.316750 0.385360 -0.654841
O3    O     O_R   0.367850 0.499980 0.614680 -0.605227
O4    O     O_R   0.367840 0.499960 0.385350 -0.579781
O5    O     O_R   0.500010 0.683250 0.614640 -0.569005
O6    O     O_R   0.500000 0.683220 0.385310 -0.581503
O7    O     O_R   0.632160 0.500040 0.614650 -0.523513
O8    O     O_R   0.632150 0.500020 0.385320 -0.626370
Zn1   Zn    Zn3+2 0.500010 0.500020 0.653130 1.048777
Zn2   Zn    Zn3+2 0.499990 0.499980 0.346870 1.016974
S1    S     S_3+6 0.349489 0.854301 0.976260 0.126304
O9    O     O_2   0.261018 0.803093 0.928815 -0.131712
O10   O     O_2   0.404048 0.748344 0.029336 -0.329926
O11   O     O_3   0.331899 0.955672 0.099080 -0.448592
H11   H     H_    0.391118 0.972226 0.140033 0.308367
O12   O     O_3   0.350970 0.774837 0.692746 -0.679429
H12   H     H_    0.339609 0.768636 0.595566 0.344987
O13   O     O_3   0.564678 0.886489 0.275924 -0.699251
H13   H     H_    0.514045 0.849783 0.225219 0.345751
O14   O     O_3   0.251428 0.204422 0.147884 -0.610931
H14   H     H_    0.260248 0.216296 0.245378 0.341048
S2    S     S_3+6 0.230147 0.189591 0.852606 0.076319
O15   O     O_2   0.153454 0.276066 0.835317 -0.270431
O16   O     O_2   0.262845 0.150015 0.718291 -0.378688
O17   O     O_3   0.194958 0.063333 0.941328 -0.363621
H15   H     H_    0.153138 0.018853 0.880883 0.415183
O18   O     O_3   0.767142 0.278238 0.586220 -0.672575
H16   H     H_    0.704389 0.279850 0.555374 0.314488
S3    S     S_3+6 0.661214 0.639773 0.863764 0.080695
O19   O     O_2   0.705099 0.720388 0.967623 -0.272474
O20   O     O_2   0.725649 0.539497 0.831749 -0.227483
O21   O     O_3   0.645730 0.730483 0.727163 -0.496219
H17   H     H_    0.622023 0.809129 0.761262 0.360184
S4    S     S_3+6 0.915917 0.167197 0.710040 0.141911
O22   O     O_2   0.867102 0.075479 0.623429 -0.172521
O23   O     O_2   0.990548 0.101676 0.781695 -0.250945
O24   O     O_3   0.845847 0.221672 0.825019 -0.466085
H18   H     H_    0.818734 0.146388 0.868716 0.399142
S5    S     S_3+6 0.235186 0.744983 0.344916 0.045415
O25   O     O_2   0.182361 0.767086 0.218360 -0.175483
O26   O     O_2   0.233870 0.861093 0.426457 -0.325898
O27   O     O_3   0.339569 0.718908 0.299093 -0.497651
H19   H     H_    0.367297 0.802874 0.291106 0.374793
S6    S     S_3+6 0.889581 0.850947 0.351573 0.095857
O28   O     O_2   0.821031 0.888698 0.451215 -0.191374
O29   O     O_2   0.952833 0.959208 0.325366 -0.226569
O30   O     O_3   0.837113 0.814464 0.207880 -0.472863
H20   H     H_    0.884722 0.785012 0.148668 0.380696

loop_
_geom_bond_atom_site_label_1
_geom_bond_atom_site_label_2
_ccdc_geom_bond_type
O24   H18   S    
C33   O8    A    
C31   H4    S    
O5    Zn1   S    
C35   C36   A    
S4    O24   S    
C25   H5    S    
O30   H20   S    
O3    Zn1   S    
C7    C8    A    
O4    Zn2   S    
O18   H16   S    
C17   O12   S    
C37   C38   A    
N1    Zn2   S    
C18   C24   A    
N2    Zn1   S    
C36   C37   A    
S4    O23   D    
C18   C19   A    
C36   O18   S    
C5    C6    A    
O7    Zn1   S    
O8    Zn2   S    
C15   C16   A    
C34   C35   A    
S1    O10   D    
O2    Zn2   S    
O13   H13   S    
C19   C20   A    
C8    C9    A    
C10   H8    S    
C23   C24   S    
C6    C38   A    
O14   H14   S    
S5    O26   D    
C12   O3    A    
C29   N2    A    
C21   H10   S    
C2    C34   A    
O12   H12   S    
C21   C22   A    
S6    O28   D    
C31   N1    A    
S2    O17   S    
C4    H7    S    
C34   H1    S    
C23   O6    A    
S4    O22   D    
C15   H3    S    
S2    O16   D    
S3    O20   D    
C16   C17   A    
S6    O30   S    
C25   C26   A    
C28   H6    S    
O6    Zn2   S    
S1    O11   S    
O17   H15   S    
C29   C30   A    
C2    C38   A    
C31   C32   A    
C7    C13   A    
C32   N2    A    
C17   C18   A    
C26   C27   A    
S5    O27   S    
S6    O29   D    
C1    O1    A    
C22   O13   S    
C30   N1    A    
C26   O14   S    
C22   C24   A    
O1    Zn1   S    
C16   S1    S    
C3    C4    A    
C27   C28   A    
C25   C30   A    
C28   C29   A    
C1    C20   S    
C33   O7    A    
C13   S5    S    
C14   C19   A    
S2    O15   D    
S3    O21   S    
C11   C12   S    
C23   O5    A    
C6    C7    A    
O11   H11   S    
C8    H9    S    
C5    C10   A    
C32   S3    S    
C11   C13   A    
O27   H19   S    
C33   C35   S    
S1    O9    D    
C1    O2    A    
C10   C11   A    
C14   H2    S    
S3    O19   D    
C4    C5    A    
C20   C21   A    
C3    C37   A    
O21   H17   S    
C3    S4    S    
C14   C15   A    
S5    O25   D    
C2    C9    A    
C9    S6    S    
C12   O4    A    
C27   S2    S    
