data_mof_unit_63920.cif
_audit_creation_date              2013-03-05T16:27:51-0500
_audit_creation_method            fapswitch 2.2
_symmetry_space_group_name_H-M    P1
_symmetry_Int_Tables_number       1
_space_group_crystal_system       triclinic
_cell_length_a                    38.764157
_cell_length_b                    32.224001
_cell_length_c                    21.612381
_cell_angle_alpha                 90.000901
_cell_angle_beta                  56.191902
_cell_angle_gamma                 89.999294
_cell_volume                      22431.8054827

loop_
_atom_site_label
_atom_site_type_symbol
_atom_site_description
_atom_site_fract_x
_atom_site_fract_y
_atom_site_fract_z
_atom_type_partial_charge
O1    O     O_R   0.940150 0.534620 0.559830 -0.577900
O2    O     O_R   0.059850 0.534620 0.440170 -0.578309
O3    O     O_R   0.440150 0.034620 0.559830 -0.578314
O4    O     O_R   0.559850 0.034620 0.440170 -0.577891
O5    O     O_R   0.940110 0.465340 0.559870 -0.590350
O6    O     O_R   0.059890 0.465340 0.440130 -0.592213
O7    O     O_R   0.440110 0.965340 0.559870 -0.592215
O8    O     O_R   0.559890 0.965340 0.440130 -0.590332
C1    C     C_R   0.920424 0.500029 0.581248 0.809664
C2    C     C_R   0.079616 0.500001 0.420064 0.832961
C3    C     C_R   0.420383 0.000002 0.579933 0.832885
C4    C     C_R   0.579576 0.000028 0.418750 0.809701
O9    O     O_R   0.999990 0.534620 0.408860 -0.588720
O10   O     O_R   0.000010 0.534620 0.591140 -0.591336
O11   O     O_R   0.499990 0.034620 0.408860 -0.591333
O12   O     O_R   0.500010 0.034620 0.591140 -0.588724
O13   O     O_R   0.999950 0.465340 0.408890 -0.611002
O14   O     O_R   0.000050 0.465340 0.591110 -0.611379
O15   O     O_R   0.499950 0.965340 0.408890 -0.611390
O16   O     O_R   0.500050 0.965340 0.591110 -0.611020
C5    C     C_R   0.997377 0.499886 0.382439 0.808990
C6    C     C_R   0.001878 0.499913 0.618346 0.826272
C7    C     C_R   0.498116 0.999912 0.381660 0.826170
C8    C     C_R   0.502617 0.999887 0.617568 0.809055
Cu1   Cu    Cu3+1 1.000000 0.540990 0.500000 0.937389
Cu2   Cu    Cu3+1 0.500000 0.040990 0.500000 0.937377
Cu3   Cu    Cu3+1 0.000000 0.458960 0.500000 0.921060
Cu4   Cu    Cu3+1 0.500000 0.958960 0.500000 0.921102
C9    C     C_1   0.999954 0.375864 0.000764 -0.114289
C10   C     C_1   0.500049 0.875865 0.999202 -0.114341
C11   C     C_1   0.499848 0.623963 0.000157 -0.161249
C12   C     C_1   0.000146 0.123963 0.999851 -0.161250
C13   C     C_R   0.998190 0.293550 0.003899 -0.123081
C14   C     C_R   0.501801 0.793550 0.996107 -0.123045
C15   C     C_R   0.984543 0.271623 0.964324 0.301327
C16   C     C_R   0.012611 0.271331 0.042022 0.301838
C17   C     C_R   0.487595 0.771325 0.957643 0.301871
C18   C     C_R   0.515218 0.771629 0.036046 0.301344
C19   C     C_3   0.980456 0.540736 0.303645 -0.364306
C20   C     C_3   0.018753 0.540769 0.697141 -0.361102
C21   C     C_3   0.481204 0.040753 0.302904 -0.361115
C22   C     C_3   0.519472 0.040761 0.696431 -0.364209
H1    H     H_    0.001123 0.566724 0.297265 0.181689
H2    H     H_    0.998116 0.566804 0.703583 0.179670
H3    H     H_    0.501826 0.066804 0.296463 0.179654
H4    H     H_    0.498763 0.066717 0.702851 0.181641
H5    H     H_    0.948900 0.547678 0.353401 0.204930
H6    H     H_    0.050286 0.547680 0.647302 0.206838
H7    H     H_    0.449671 0.047645 0.352758 0.206783
H8    H     H_    0.551017 0.047752 0.646690 0.204963
C23   C     C_3   0.979130 0.538612 0.233822 -0.469634
C24   C     C_3   0.020214 0.538639 0.766795 -0.471160
C25   C     C_3   0.479731 0.038612 0.233264 -0.471102
C26   C     C_3   0.520799 0.038642 0.766253 -0.469653
H9    H     H_    0.946282 0.540502 0.250862 0.238144
H10   H     H_    0.053053 0.540896 0.749684 0.238828
H11   H     H_    0.446884 0.040817 0.250400 0.238890
H12   H     H_    0.553643 0.040591 0.749221 0.238130
H13   H     H_    0.995671 0.565953 0.197711 0.146597
H14   H     H_    0.003384 0.565779 0.803276 0.147120
H15   H     H_    0.496513 0.065776 0.196817 0.147054
H16   H     H_    0.504207 0.065954 0.802413 0.146585
H17   H     H_    0.062563 0.517028 0.245898 0.157352
H18   H     H_    0.936659 0.517343 0.755820 0.157257
H19   H     H_    0.563323 0.017393 0.244219 0.157273
H20   H     H_    0.437404 0.016920 0.754144 0.157300
H21   H     H_    0.061124 0.523837 0.142196 0.106232
H22   H     H_    0.938289 0.523038 0.859420 0.106489
H23   H     H_    0.561673 0.023127 0.140640 0.106428
H24   H     H_    0.438831 0.023725 0.857857 0.106281
C27   C     C_3   0.041927 0.492764 0.246479 -0.554378
C28   C     C_3   0.957263 0.492818 0.754614 -0.565124
C29   C     C_3   0.542739 0.992858 0.245387 -0.565115
C30   C     C_3   0.458080 0.992689 0.753517 -0.554395
C31   C     C_3   0.969087 0.462803 0.316588 0.290724
C32   C     C_3   0.029914 0.462809 0.683623 0.290753
C33   C     C_3   0.470113 0.962785 0.316345 0.290675
C34   C     C_3   0.530970 0.962845 0.683347 0.290743
C35   C     C_3   0.996797 0.499134 0.314165 -0.007601
C36   C     C_3   0.002266 0.499204 0.686748 0.001371
C37   C     C_3   0.497729 0.999203 0.313258 0.001366
C38   C     C_3   0.503200 0.999133 0.685840 -0.007656
H25   H     H_    0.980923 0.432637 0.322970 0.034205
H26   H     H_    0.017241 0.433017 0.677515 0.032232
H27   H     H_    0.482795 0.933002 0.322465 0.032271
H28   H     H_    0.519181 0.932659 0.676924 0.034289
C39   C     C_3   0.999389 0.497785 0.190110 -0.018496
C40   C     C_3   0.000450 0.497602 0.809992 -0.016333
C41   C     C_3   0.499552 0.997602 0.190007 -0.016389
C42   C     C_3   0.500614 0.997780 0.809887 -0.018489
C43   C     C_3   0.044330 0.494889 0.172588 0.252695
C44   C     C_3   0.955349 0.494387 0.828107 0.255689
C45   C     C_3   0.544657 0.994447 0.171891 0.255726
C46   C     C_3   0.455677 0.994807 0.827409 0.252681
C47   C     C_3   0.973669 0.459922 0.240154 0.311914
C48   C     C_3   0.026423 0.460014 0.759123 0.305395
C49   C     C_3   0.473633 0.959977 0.240819 0.305248
C50   C     C_3   0.526403 0.959963 0.759768 0.311962
H29   H     H_    0.991878 0.431480 0.210112 0.081608
H30   H     H_    0.008632 0.431412 0.789256 0.075026
H31   H     H_    0.491478 0.931402 0.210661 0.075280
H32   H     H_    0.508249 0.931489 0.789768 0.081605
H33   H     H_    0.053618 0.462239 0.251565 0.199742
H34   H     H_    0.945336 0.462492 0.749345 0.199697
H35   H     H_    0.554689 0.962535 0.250617 0.199687
H36   H     H_    0.446440 0.962145 0.748379 0.199802
H37   H     H_    0.787597 0.501907 0.813528 0.155409
H38   H     H_    0.211903 0.487623 0.190178 0.155568
H39   H     H_    0.288099 0.987662 0.809825 0.155561
H40   H     H_    0.712403 0.001904 0.186469 0.155402
C51   C     C_R   0.727916 0.501638 0.828653 -0.171861
C52   C     C_R   0.271858 0.493688 0.172992 -0.172065
C53   C     C_R   0.228143 0.993710 0.827007 -0.172052
C54   C     C_R   0.772084 0.001634 0.171343 -0.171854
H41   H     H_    0.711165 0.502123 0.888837 0.151363
H42   H     H_    0.288343 0.487876 0.113711 0.151385
H43   H     H_    0.211658 0.987915 0.886293 0.151385
H44   H     H_    0.788835 0.002120 0.111158 0.151364
C55   C     C_R   0.706329 0.500867 0.793936 0.087567
C56   C     C_R   0.293776 0.500992 0.206022 0.086813
C57   C     C_R   0.206224 0.000991 0.793973 0.086853
C58   C     C_R   0.793671 0.000864 0.206058 0.087602
C59   C     C_R   0.728452 0.500211 0.715983 -0.253149
C60   C     C_R   0.272028 0.508420 0.282766 -0.252389
C61   C     C_R   0.227971 0.008396 0.717222 -0.252494
C62   C     C_R   0.771550 0.000207 0.284011 -0.253215
H45   H     H_    0.711985 0.499271 0.688716 0.153672
H46   H     H_    0.288779 0.513720 0.308813 0.155131
H47   H     H_    0.211220 0.013678 0.691172 0.155096
H48   H     H_    0.788017 0.999267 0.311276 0.153636
C63   C     C_R   0.772071 0.500716 0.672682 0.444173
C64   C     C_R   0.228443 0.508993 0.326522 0.440549
C65   C     C_R   0.271557 0.008967 0.673465 0.440580
C66   C     C_R   0.727930 0.000713 0.327313 0.444086
C67   C     C_R   0.793569 0.500824 0.707968 0.052259
C68   C     C_R   0.206531 0.500920 0.293252 0.056096
C69   C     C_R   0.293469 0.000919 0.706741 0.056146
C70   C     C_R   0.706432 0.000821 0.292029 0.052288
C71   C     C_R   0.771343 0.501548 0.785861 -0.247698
C72   C     C_R   0.228425 0.493582 0.216446 -0.249766
C73   C     C_R   0.271575 0.993602 0.783552 -0.249820
C74   C     C_R   0.728657 0.001544 0.214136 -0.247692
C75   C     C_1   0.661516 0.500519 0.838438 -0.034226
C76   C     C_1   0.338556 0.500604 0.161279 -0.034337
C77   C     C_1   0.161443 0.000603 0.838717 -0.034343
C78   C     C_1   0.838484 0.000517 0.161557 -0.034244
C79   C     C_1   0.838370 0.500451 0.664336 -0.028281
C80   C     C_1   0.161705 0.500372 0.337471 -0.024042
C81   C     C_1   0.338295 0.000373 0.662521 -0.023926
C82   C     C_1   0.661630 0.000449 0.335660 -0.028259
C83   C     C_1   0.875830 0.500203 0.626794 -0.194081
C84   C     C_1   0.124226 0.500117 0.374966 -0.193729
C85   C     C_1   0.375774 0.000120 0.625027 -0.193716
C86   C     C_1   0.624171 0.000201 0.373201 -0.194103
C87   C     C_1   0.624009 0.500249 0.875982 -0.164430
C88   C     C_1   0.376043 0.500296 0.123835 -0.163799
C89   C     C_1   0.123957 0.000295 0.876164 -0.163812
C90   C     C_1   0.875991 0.000248 0.124016 -0.164441
C91   C     C_1   0.499839 0.661426 0.000061 0.001533
C92   C     C_1   0.000152 0.161426 0.999951 0.001531
O17   O     O_R   0.965330 0.559800 0.034660 -0.586464
O18   O     O_R   0.034670 0.559800 0.965340 -0.586037
O19   O     O_R   0.465330 0.059800 0.034660 -0.586008
O20   O     O_R   0.534670 0.059800 0.965340 -0.586453
C93   C     C_R   1.000000 0.579556 1.000000 0.817853
C94   C     C_R   0.499999 0.079556 0.000001 0.817853
O21   O     O_R   0.965350 0.499950 0.125800 -0.553498
O22   O     O_R   0.034650 0.499950 0.874200 -0.555290
O23   O     O_R   0.465350 0.999950 0.125800 -0.555213
O24   O     O_R   0.534650 0.999950 0.874200 -0.553541
O25   O     O_R   0.034620 0.500000 0.056540 -0.590165
O26   O     O_R   0.965380 0.500000 0.943460 -0.591046
O27   O     O_R   0.534620 0.000000 0.056540 -0.590970
O28   O     O_R   0.465380 1.000000 0.943460 -0.590254
C95   C     C_R   0.999983 0.498654 0.120406 0.835211
C96   C     C_R   0.000010 0.498433 0.879589 0.833573
C97   C     C_R   0.499990 0.998434 0.120410 0.833689
C98   C     C_R   0.500017 0.998649 0.879594 0.835167
Cu5   Cu    Cu3+1 0.958960 0.499950 0.041020 0.946921
Cu6   Cu    Cu3+1 0.041040 0.499950 0.958980 0.942941
Cu7   Cu    Cu3+1 0.458960 0.999950 0.041020 0.942994
Cu8   Cu    Cu3+1 0.541040 0.999950 0.958980 0.946818
O29   O     O_R   0.965350 0.440100 0.034640 -0.586382
O30   O     O_R   0.034650 0.440100 0.965360 -0.593813
O31   O     O_R   0.465350 0.940100 0.034640 -0.593831
O32   O     O_R   0.534650 0.940100 0.965360 -0.586480
C99   C     C_1   0.999446 0.338431 0.001905 0.124970
C100  C     C_1   0.500554 0.838431 0.998067 0.125024
C101  C     C_R   0.000004 0.420400 0.000183 0.805918
C102  C     C_R   0.499997 0.920400 0.999800 0.805899
O33   O     O_R   0.499940 0.440170 0.947210 -0.578473
O34   O     O_R   0.500060 0.440170 0.052790 -0.578206
O35   O     O_R   0.999940 0.940170 0.947210 -0.578193
O36   O     O_R   0.000060 0.940170 0.052790 -0.578459
C103  C     C_R   0.500000 0.420675 1.000000 0.815754
C104  C     C_R   1.000000 0.920675 0.999999 0.815732
O37   O     O_R   0.559820 0.500010 0.887440 -0.578030
O38   O     O_R   0.440180 0.500010 0.112560 -0.577797
O39   O     O_R   0.059820 0.000010 0.887440 -0.577811
O40   O     O_R   0.940180 0.000010 0.112560 -0.578048
O41   O     O_R   0.559830 0.499950 0.992950 -0.577411
O42   O     O_R   0.440170 0.499950 0.007050 -0.577580
O43   O     O_R   0.059830 0.999950 0.992950 -0.577569
O44   O     O_R   0.940170 0.999950 0.007050 -0.577398
C105  C     C_R   0.579342 0.500011 0.920690 0.815511
C106  C     C_R   0.420676 0.500019 0.079272 0.815695
C107  C     C_R   0.079324 0.000019 0.920728 0.815689
C108  C     C_R   0.920658 0.000011 0.079310 0.815503
Cu9   Cu    Cu3+1 0.499970 0.500020 0.937550 0.969788
Cu10  Cu    Cu3+1 0.500030 0.500020 0.062450 0.970450
Cu11  Cu    Cu3+1 0.999970 0.000020 0.937550 0.970457
Cu12  Cu    Cu3+1 0.000030 0.000020 0.062450 0.969783
O45   O     O_R   0.500010 0.559860 0.947320 -0.576345
O46   O     O_R   0.499990 0.559860 0.052680 -0.576153
O47   O     O_R   0.000010 0.059860 0.947320 -0.576147
O48   O     O_R   0.999990 0.059860 0.052680 -0.576351
C109  C     C_R   0.499939 0.579362 0.000065 0.814892
C110  C     C_R   0.000060 0.079362 0.999937 0.814894
H49   H     H_    0.020853 0.711850 0.884423 0.135246
H50   H     H_    0.979144 0.711854 0.115576 0.135217
H51   H     H_    0.519063 0.211850 0.885377 0.135137
H52   H     H_    0.480931 0.211854 0.114627 0.135162
C111  C     C_R   0.510718 0.271835 0.935556 -0.172218
C112  C     C_R   0.489277 0.271837 0.064446 -0.172114
C113  C     C_R   0.011725 0.771835 0.935019 -0.172140
C114  C     C_R   0.988274 0.771837 0.064979 -0.172236
H53   H     H_    0.519065 0.288354 0.885374 0.139009
H54   H     H_    0.480929 0.288358 0.114627 0.139110
H55   H     H_    0.020855 0.788354 0.884420 0.139095
H56   H     H_    0.979143 0.788358 0.115577 0.138995
C115  C     C_R   0.499998 0.293717 0.000000 0.151312
C116  C     C_R   0.999999 0.793717 0.999999 0.151337
C117  C     C_R   0.988274 0.728375 0.064979 -0.175067
C118  C     C_R   0.011724 0.728373 0.935020 -0.174997
C119  C     C_R   0.489278 0.228375 0.064447 -0.174998
C120  C     C_R   0.510717 0.228373 0.935557 -0.175053
C121  C     C_R   0.999998 0.706495 1.000000 0.154677
C122  C     C_R   0.499997 0.206495 0.000002 0.154749
C123  C     C_1   0.499998 0.338521 1.000000 -0.064454
C124  C     C_1   1.000000 0.838521 0.999998 -0.064456
C125  C     C_1   0.999998 0.661695 0.000001 -0.069760
C126  C     C_1   0.499998 0.161695 0.000002 -0.069742
C127  C     C_1   0.999998 0.624202 0.000001 -0.174845
C128  C     C_1   0.499999 0.124202 0.000001 -0.174843
C129  C     C_1   0.499999 0.376018 0.999999 -0.160801
C130  C     C_1   1.000000 0.876018 0.999999 -0.160805
C131  C     C_R   0.513905 0.728043 0.037438 -0.226751
C132  C     C_R   0.486823 0.727726 0.960214 -0.229469
C133  C     C_R   0.013379 0.227732 0.039457 -0.229448
C134  C     C_R   0.985859 0.228037 0.962926 -0.226783
H57   H     H_    0.524300 0.711010 0.067435 0.188794
H58   H     H_    0.476311 0.710401 0.930678 0.189210
H59   H     H_    0.024057 0.210412 0.068733 0.189192
H60   H     H_    0.975293 0.211000 0.933202 0.188783
C135  C     C_R   0.500014 0.706193 0.999525 0.018872
C136  C     C_R   0.999972 0.206193 0.000488 0.018897
O49   O     O_3   0.064748 0.459066 0.128784 -0.599130
C137  C     C_3   0.108498 0.462734 0.089379 0.079378
H61   H     H_    0.121138 0.431354 0.086669 0.177205
H62   H     H_    0.118949 0.483185 0.117579 0.115542
C138  C     C_3   0.126482 0.477939 0.009895 -0.314299
H63   H     H_    0.115884 0.457223 0.982487 0.242639
H64   H     H_    0.115240 0.509871 0.011413 0.213002
C139  C     C_3   0.173838 0.478341 0.964062 -0.941669
H65   H     H_    0.185127 0.499346 0.989920 0.256590
H66   H     H_    0.185884 0.489628 0.906939 0.260858
H67   H     H_    0.185993 0.446556 0.960165 0.263176
O50   O     O_3   0.935495 0.458174 0.871085 -0.598726
C140  C     C_3   0.891679 0.461328 0.911165 0.082970
H68   H     H_    0.879382 0.429873 0.913110 0.179977
H69   H     H_    0.880746 0.481965 0.883966 0.114223
C141  C     C_3   0.873858 0.475798 0.990982 -0.312370
H70   H     H_    0.885045 0.454995 0.017319 0.246560
H71   H     H_    0.884634 0.507843 0.990261 0.211932
C142  C     C_3   0.826495 0.475436 0.037517 -0.940302
H72   H     H_    0.814618 0.496501 0.012731 0.255761
H73   H     H_    0.814566 0.486221 0.094864 0.260580
H74   H     H_    0.814805 0.443513 0.040646 0.264765
O51   O     O_3   0.564569 0.958269 0.128840 -0.598646
C143  C     C_3   0.608380 0.961487 0.088777 0.082942
H75   H     H_    0.620725 0.930048 0.086766 0.179853
H76   H     H_    0.619277 0.982130 0.116029 0.114250
C144  C     C_3   0.626186 0.976002 0.008989 -0.312431
H77   H     H_    0.615040 0.955188 0.982596 0.246422
H78   H     H_    0.615355 0.008030 0.009779 0.211957
C145  C     C_3   0.673549 0.975719 0.962470 -0.940431
H79   H     H_    0.685384 0.996796 0.987312 0.255797
H80   H     H_    0.685465 0.986534 0.905144 0.260587
H81   H     H_    0.685293 0.943814 0.959274 0.264695
O52   O     O_3   0.435327 0.958947 0.871146 -0.599202
C146  C     C_3   0.391570 0.962537 0.910565 0.079326
H82   H     H_    0.378986 0.931135 0.913215 0.177215
H83   H     H_    0.381078 0.982971 0.882410 0.115561
C147  C     C_3   0.373562 0.977707 0.990077 -0.314336
H84   H     H_    0.384206 0.957013 0.017438 0.242653
H85   H     H_    0.384741 0.009661 0.988621 0.213013
C148  C     C_3   0.326205 0.978018 0.035923 -0.941671
H86   H     H_    0.314870 0.999001 0.010115 0.256588
H87   H     H_    0.314141 0.989281 0.093067 0.260855
H88   H     H_    0.314112 0.946209 0.039761 0.263171
O53   O     O_3   0.793628 0.498366 0.595988 -0.618228
C149  C     C_3   0.800241 0.538990 0.566980 0.024608
H89   H     H_    0.813372 0.559653 0.590442 0.142790
H90   H     H_    0.770420 0.552287 0.579770 0.149059
C150  C     C_3   0.831205 0.537227 0.482556 -0.295906
H91   H     H_    0.860999 0.524104 0.469720 0.241822
H92   H     H_    0.818918 0.516678 0.457783 0.226925
C151  C     C_3   0.839431 0.580210 0.447445 -0.921700
H93   H     H_    0.810224 0.593838 0.458318 0.257589
H94   H     H_    0.862164 0.577689 0.386301 0.261980
H95   H     H_    0.852508 0.601036 0.470420 0.253414
O54   O     O_3   0.207476 0.514476 0.402587 -0.625915
C152  C     C_3   0.200460 0.557285 0.418520 0.027695
H96   H     H_    0.184429 0.571290 0.393785 0.145421
H97   H     H_    0.230498 0.573611 0.396431 0.149136
C153  C     C_3   0.172795 0.563114 0.502945 -0.307166
H98   H     H_    0.142668 0.547070 0.525460 0.226660
H99   H     H_    0.188097 0.549087 0.528762 0.230148
C154  C     C_3   0.164466 0.608939 0.523933 -0.922759
H100  H     H_    0.194070 0.625585 0.503282 0.258422
H101  H     H_    0.144270 0.612013 0.585478 0.258280
H102  H     H_    0.148456 0.623388 0.499803 0.256269
O55   O     O_3   0.292527 0.014429 0.597396 -0.625924
C155  C     C_3   0.299487 0.057239 0.581439 0.027739
H103  H     H_    0.315448 0.071314 0.606252 0.145349
H104  H     H_    0.269432 0.073509 0.603430 0.149180
C156  C     C_3   0.327210 0.063050 0.497016 -0.307211
H105  H     H_    0.357361 0.047077 0.474608 0.226548
H106  H     H_    0.311991 0.048939 0.471114 0.230197
C157  C     C_3   0.335461 0.108875 0.476000 -0.922668
H107  H     H_    0.305834 0.125448 0.496529 0.258431
H108  H     H_    0.355710 0.111936 0.414458 0.258294
H109  H     H_    0.351381 0.123412 0.500229 0.256257
O56   O     O_3   0.706373 0.998365 0.404007 -0.618261
C158  C     C_3   0.699823 0.038988 0.433003 0.024599
H110  H     H_    0.686673 0.059672 0.409604 0.142820
H111  H     H_    0.729674 0.052251 0.420125 0.149027
C159  C     C_3   0.668916 0.037237 0.517444 -0.295929
H112  H     H_    0.639089 0.024154 0.530373 0.241944
H113  H     H_    0.681221 0.016660 0.542148 0.226885
C160  C     C_3   0.660766 0.080218 0.552540 -0.921544
H114  H     H_    0.690007 0.093805 0.541580 0.257569
H115  H     H_    0.638069 0.077708 0.613697 0.262044
H116  H     H_    0.647675 0.101075 0.529629 0.253406
N1    N     N_R   0.026941 0.292177 0.082801 0.133088
O57   O     O_R   0.010831 0.327323 0.116215 -0.387673
O58   O     O_R   0.053498 0.274066 0.092782 -0.355413
N2    N     N_R   0.969598 0.292866 0.924914 0.127754
O59   O     O_R   0.948427 0.327112 0.950819 -0.363471
O60   O     O_R   0.973363 0.275748 0.866900 -0.362246
N3    N     N_R   0.529921 0.792878 0.075839 0.127658
O61   O     O_R   0.551114 0.827122 0.050115 -0.363513
O62   O     O_R   0.525910 0.775769 0.134065 -0.362466
N4    N     N_R   0.473480 0.792162 0.916519 0.133095
O63   O     O_R   0.489629 0.827324 0.883221 -0.387850
O64   O     O_R   0.447083 0.774037 0.906136 -0.355433
O65   O     O_3   0.926558 0.469963 0.373821 -0.597790
C161  C     C_3   0.912414 0.447331 0.440026 0.047651
H117  H     H_    0.904326 0.470244 0.484145 0.163177
H118  H     H_    0.935263 0.425331 0.437569 0.148988
C162  C     C_3   0.873124 0.423194 0.462379 -0.346706
H119  H     H_    0.850334 0.444297 0.462789 0.247752
H120  H     H_    0.881018 0.398118 0.421403 0.192940
C163  C     C_3   0.853231 0.403557 0.539230 -0.837758
H121  H     H_    0.875350 0.381951 0.539903 0.244803
H122  H     H_    0.825179 0.385874 0.553222 0.253377
H123  H     H_    0.843787 0.427861 0.582146 0.279037
O66   O     O_3   0.071924 0.470041 0.624158 -0.587704
C164  C     C_3   0.087636 0.437795 0.570818 0.003315
H124  H     H_    0.071558 0.437598 0.541514 0.183167
H125  H     H_    0.083663 0.406940 0.596943 0.126486
C165  C     C_3   0.133822 0.445231 0.514032 -0.289303
H126  H     H_    0.137902 0.476137 0.488346 0.252772
H127  H     H_    0.150389 0.445095 0.542618 0.227488
C166  C     C_3   0.152627 0.412239 0.453104 -0.881650
H128  H     H_    0.149597 0.381052 0.477540 0.247159
H129  H     H_    0.186081 0.418982 0.412428 0.272720
H130  H     H_    0.136815 0.412274 0.423205 0.259604
O67   O     O_3   0.428091 0.969999 0.375780 -0.587671
C167  C     C_3   0.412391 0.937768 0.429145 0.003329
H131  H     H_    0.428465 0.937600 0.458454 0.183172
H132  H     H_    0.416377 0.906903 0.403040 0.126540
C168  C     C_3   0.366202 0.945194 0.485923 -0.289340
H133  H     H_    0.362108 0.976108 0.511592 0.252769
H134  H     H_    0.349636 0.945030 0.457334 0.227504
C169  C     C_3   0.347408 0.912216 0.546871 -0.881630
H135  H     H_    0.350460 0.881017 0.522454 0.247167
H136  H     H_    0.313949 0.918945 0.587533 0.272712
H137  H     H_    0.363212 0.912284 0.576785 0.259616
O68   O     O_3   0.573484 0.970069 0.626108 -0.597787
C170  C     C_3   0.587656 0.947448 0.559877 0.047598
H138  H     H_    0.595832 0.970377 0.515737 0.163181
H139  H     H_    0.564790 0.925516 0.562235 0.149155
C171  C     C_3   0.626881 0.923224 0.537649 -0.346774
H140  H     H_    0.649681 0.944265 0.537331 0.247646
H141  H     H_    0.618901 0.898132 0.578635 0.192939
C172  C     C_3   0.646807 0.903598 0.460779 -0.837706
H142  H     H_    0.624677 0.882053 0.460017 0.244828
H143  H     H_    0.674810 0.885850 0.446876 0.253314
H144  H     H_    0.656335 0.927912 0.417851 0.279153
O69   O     O_3   0.933956 0.458660 0.250947 -0.560699
C173  C     C_3   0.917495 0.417863 0.266475 0.076965
H145  H     H_    0.883427 0.420177 0.307655 0.164531
H146  H     H_    0.929915 0.397679 0.291700 0.124023
C174  C     C_3   0.925438 0.397717 0.195743 -0.337603
H147  H     H_    0.910886 0.416882 0.173458 0.240915
H148  H     H_    0.959388 0.396261 0.153645 0.234468
C175  C     C_3   0.907618 0.353894 0.210616 -0.850040
H149  H     H_    0.922132 0.333964 0.232056 0.276191
H150  H     H_    0.914100 0.340199 0.157995 0.271903
H151  H     H_    0.873483 0.354620 0.251902 0.240290
O70   O     O_3   0.066571 0.459313 0.746561 -0.562204
C176  C     C_3   0.082739 0.418412 0.733733 0.079633
H152  H     H_    0.116686 0.420067 0.691127 0.167249
H153  H     H_    0.069499 0.397028 0.711616 0.112924
C177  C     C_3   0.075446 0.400325 0.805346 -0.338306
H154  H     H_    0.090637 0.420464 0.825227 0.244312
H155  H     H_    0.041567 0.399395 0.848210 0.218501
C178  C     C_3   0.092751 0.356405 0.793535 -0.888078
H156  H     H_    0.077134 0.335477 0.775550 0.271121
H157  H     H_    0.087106 0.344435 0.846612 0.265363
H158  H     H_    0.126715 0.356355 0.750738 0.250576
O71   O     O_3   0.433498 0.959197 0.253335 -0.562222
C179  C     C_3   0.417393 0.918269 0.266165 0.079658
H159  H     H_    0.383442 0.919880 0.308762 0.167223
H160  H     H_    0.430661 0.896931 0.288293 0.113055
C180  C     C_3   0.424722 0.900141 0.194549 -0.338512
H161  H     H_    0.409483 0.920216 0.174680 0.244215
H162  H     H_    0.458602 0.899277 0.151681 0.218711
C181  C     C_3   0.407514 0.856178 0.206350 -0.887475
H163  H     H_    0.423192 0.835311 0.224296 0.271543
H164  H     H_    0.413168 0.844184 0.153280 0.265163
H165  H     H_    0.373554 0.856060 0.249172 0.250430
O72   O     O_3   0.566125 0.958780 0.748947 -0.560682
C182  C     C_3   0.582645 0.918007 0.733432 0.076847
H166  H     H_    0.616706 0.920360 0.692203 0.164508
H167  H     H_    0.570227 0.897764 0.708274 0.124005
C183  C     C_3   0.574768 0.897919 0.804155 -0.337157
H168  H     H_    0.589290 0.917161 0.826411 0.240826
H169  H     H_    0.540825 0.896402 0.846273 0.234496
C184  C     C_3   0.592685 0.854138 0.789290 -0.850176
H170  H     H_    0.578224 0.834141 0.767831 0.276367
H171  H     H_    0.586221 0.840476 0.841919 0.271831
H172  H     H_    0.626820 0.854931 0.748020 0.240232

loop_
_geom_bond_atom_site_label_1
_geom_bond_atom_site_label_2
_geom_bond_distance
_ccdc_geom_bond_type
C170  C171  1.529456 S    
O36   C104  1.303571 A    
C180  H161  1.110917 S    
C133  H59   1.083793 S    
O65   C161  1.416646 S    
C33   O67   1.424404 S    
C39   C43   1.566170 S    
O38   C106  1.301741 A    
C55   C75   1.443466 S    
C46   O52   1.421731 S    
C146  H82   1.110895 S    
C56   C76   1.442403 S    
C29   C45   1.549120 S    
C68   C72   1.401383 A    
O9    Cu1   1.980632 S    
C40   C48   1.567677 S    
C31   C47   1.562848 S    
O31   C102  1.283877 A    
O53   C149  1.411963 S    
C65   C69   1.409158 A    
C114  C117  1.400532 A    
O24   C98   1.281999 A    
H23   C45   1.117878 S    
C172  H143  1.110278 S    
C47   H29   1.117920 S    
O35   Cu11  1.939808 S    
C13   C16   1.420074 A    
C165  H126  1.107850 S    
C161  C162  1.529458 S    
C81   C85   1.207201 T    
O44   C108  1.302506 A    
C155  H103  1.115954 S    
C126  C128  1.208162 T    
O4    C4    1.283573 A    
C88   C106  1.437625 S    
Cu5   O29   1.939553 S    
C151  H95   1.110878 S    
C164  C165  1.524413 S    
C176  H153  1.113430 S    
H49   C118  1.083425 S    
C112  H54   1.083405 S    
C21   H7    1.113002 S    
O66   C164  1.413581 S    
C162  C163  1.525957 S    
C157  H107  1.110831 S    
C51   C71   1.398803 A    
O55   C155  1.411120 S    
O34   C103  1.303569 A    
C178  H158  1.110742 S    
C52   C56   1.400642 A    
C184  H172  1.110739 S    
O16   Cu4   1.980875 S    
O22   Cu6   1.980849 S    
Cu9   O45   1.939899 S    
O7    Cu4   1.939939 S    
C153  H98   1.111577 S    
C118  C121  1.401987 A    
O32   C102  1.284053 A    
O15   C7    1.280271 A    
O18   C93   1.285416 A    
C77   C89   1.207451 T    
C34   C38   1.569880 S    
C5    C35   1.488395 S    
O9    C5    1.285854 A    
O34   Cu10  1.939801 S    
O22   C96   1.282551 A    
O26   Cu5   1.980853 S    
H17   C27   1.113641 S    
O27   Cu8   1.980853 S    
C140  H69   1.115647 S    
H51   C120  1.083425 S    
C25   C41   1.552862 S    
O8    Cu4   1.939947 S    
C9    C101  1.435175 S    
C174  C175  1.525660 S    
C169  H137  1.110846 S    
C168  H133  1.107858 S    
C59   H45   1.083632 S    
C19   H5    1.113032 S    
C20   H6    1.113001 S    
C1    C83   1.436541 S    
O45   C109  1.300351 A    
C145  H81   1.110860 S    
H24   C46   1.117860 S    
O3    Cu2   1.938638 S    
C4    C86   1.436558 S    
C87   C105  1.438732 S    
C166  H128  1.110722 S    
C55   C59   1.402306 A    
C165  C166  1.525551 S    
C177  H154  1.110922 S    
Cu10  O46   1.939906 S    
C174  H147  1.110828 S    
C32   C48   1.563096 S    
C145  H80   1.110386 S    
O25   C95   1.283536 A    
C155  C156  1.528745 S    
C114  C116  1.402017 A    
N2    O59   1.301313 A    
H22   C44   1.117880 S    
C23   H9    1.113033 S    
C58   C78   1.443459 S    
C181  H164  1.110500 S    
C45   O51   1.421737 S    
O3    C3    1.284467 A    
C171  H140  1.110953 S    
O36   Cu12  1.939801 S    
C158  H110  1.116578 S    
C44   O50   1.421729 S    
C61   H47   1.083718 S    
C62   C66   1.405066 A    
C21   H3    1.113244 S    
C31   C35   1.569880 S    
O17   C93   1.285419 A    
C132  H58   1.083793 S    
C167  H131  1.108497 S    
C182  H167  1.115408 S    
C19   C23   1.539746 S    
C154  H101  1.110465 S    
O19   Cu7   1.939498 S    
C52   C72   1.398936 A    
C178  H156  1.110958 S    
C89   C107  1.437625 S    
C32   O66   1.424394 S    
C27   C35   1.547481 S    
O69   C173  1.417686 S    
C57   C61   1.401066 A    
C103  C129  1.439030 S    
C153  C154  1.525616 S    
C113  C118  1.400532 A    
O70   C176  1.418932 S    
C146  H83   1.115642 S    
C112  C119  1.400532 A    
O48   C110  1.300348 A    
C26   C42   1.553806 S    
C141  C142  1.525663 S    
Cu8   O32   1.939563 S    
C138  H63   1.111806 S    
C111  H53   1.083406 S    
C152  H97   1.114403 S    
C19   C35   1.552536 S    
H20   C30   1.113640 S    
C163  H121  1.110810 S    
C60   C64   1.404000 A    
C51   C55   1.400870 A    
O49   C137  1.417101 S    
C117  C121  1.401985 A    
C24   H14   1.113400 S    
O5    Cu3   1.939939 S    
C25   H15   1.113401 S    
C163  H122  1.110279 S    
C139  H65   1.110912 S    
C150  H92   1.111599 S    
C39   C47   1.566053 S    
C33   C49   1.563105 S    
C93   C127  1.438679 S    
O17   Cu5   1.939498 S    
O18   Cu6   1.939487 S    
O8    C4    1.285677 A    
C33   H27   1.119192 S    
O24   Cu8   1.980849 S    
C144  C145  1.525664 S    
C148  H87   1.110386 S    
O23   C97   1.282572 A    
C151  H94   1.110648 S    
C160  H115  1.110647 S    
C134  C136  1.395740 A    
C149  H90   1.113869 S    
C66   O56   1.382053 S    
C113  C116  1.402020 A    
O13   Cu3   1.980886 S    
C177  C178  1.525627 S    
H50   C117  1.083423 S    
C24   C40   1.552831 S    
C142  H74   1.110861 S    
C143  H75   1.110902 S    
C112  C115  1.402016 A    
C156  H106  1.111648 S    
Cu12  O48   1.939906 S    
O56   C158  1.411950 S    
C141  H70   1.111818 S    
C114  H56   1.083405 S    
C15   C134  1.405145 A    
C154  H100  1.110829 S    
C16   N1    1.442687 S    
C76   C88   1.207451 T    
C79   C83   1.206568 T    
O5    C1    1.285672 A    
C75   C87   1.208101 T    
C64   C68   1.409181 A    
O35   C104  1.303569 A    
Cu9   Cu10  2.700681 S    
O50   C140  1.417121 S    
C161  H118  1.112454 S    
O15   Cu4   1.980886 S    
C21   C25   1.539137 S    
C68   C80   1.443982 S    
C22   H8    1.113030 S    
C167  C168  1.524414 S    
C53   H43   1.083428 S    
C179  H159  1.110854 S    
O33   Cu9   1.939808 S    
C159  H113  1.111599 S    
C12   C110  1.437219 S    
C119  C122  1.401987 A    
O42   Cu9   1.937780 S    
C52   H42   1.083428 S    
O21   C95   1.282021 A    
C173  H145  1.110737 S    
C166  H130  1.110848 S    
C158  H111  1.113878 S    
C170  H139  1.112434 S    
C27   H33   1.113746 S    
O14   C6    1.280272 A    
C63   O53   1.382049 S    
C11   C91   1.207223 T    
C32   C36   1.564646 S    
C138  C139  1.525667 S    
O1    Cu1   1.938638 S    
C78   C90   1.208094 T    
C131  H57   1.083819 S    
C159  C160  1.525370 S    
C39   C95   1.494048 S    
C67   C79   1.443266 S    
C40   C96   1.494999 S    
C163  H123  1.108951 S    
C121  C125  1.443655 S    
C29   H35   1.113710 S    
C90   C108  1.438725 S    
O10   C6    1.284210 A    
C137  H61   1.110897 S    
C168  C169  1.525548 S    
C28   C36   1.545821 S    
C172  H142  1.110811 S    
C139  H67   1.110862 S    
C48   H30   1.117784 S    
C13   C15   1.419202 A    
C53   C73   1.398936 A    
C10   C102  1.435171 S    
C41   C45   1.568104 S    
O38   Cu10  1.938909 S    
O33   C103  1.303571 A    
C111  C120  1.400532 A    
C3    C85   1.436905 S    
Cu6   O30   1.939563 S    
C20   H2    1.113241 S    
C53   C57   1.400639 A    
C155  H104  1.114390 S    
N4    O63   1.300876 A    
C144  H77   1.111818 S    
O41   C105  1.302512 A    
H39   C73   1.083521 S    
C49   O71   1.423393 S    
O26   C96   1.283743 A    
C164  H125  1.111024 S    
C34   O68   1.425431 S    
C134  H60   1.083819 S    
O21   Cu5   1.980847 S    
C42   C98   1.494047 S    
C176  H152  1.110855 S    
C14   C17   1.420096 A    
C94   C128  1.438679 S    
C30   C46   1.548585 S    
O37   C105  1.301627 A    
C142  H72   1.110914 S    
C143  C144  1.531098 S    
C91   C135  1.442588 S    
C32   H26   1.119197 S    
O72   C182  1.417677 S    
C132  C135  1.395799 A    
O67   C167  1.413581 S    
Cu7   Cu8   2.643749 S    
C162  H120  1.108717 S    
C157  H108  1.110465 S    
C178  H157  1.110508 S    
C147  H84   1.111803 S    
C28   C44   1.549118 S    
C184  H171  1.110509 S    
C62   H48   1.083634 S    
O29   C101  1.284052 A    
O47   C110  1.300208 A    
C153  H99   1.111647 S    
O52   C146  1.417102 S    
C22   H4    1.113223 S    
C29   C37   1.545827 S    
C183  H168  1.110842 S    
C2    C84   1.436903 S    
C179  C180  1.525855 S    
N3    O61   1.301313 A    
C157  H109  1.110900 S    
O51   C143  1.417126 S    
N1    O58   1.301573 A    
O28   C98   1.283558 A    
C60   H46   1.083720 S    
C140  H68   1.110906 S    
C124  C130  1.208287 T    
C30   C38   1.547489 S    
C111  C115  1.402015 A    
C42   C46   1.566152 S    
O12   Cu2   1.980635 S    
H52   C119  1.083422 S    
C80   C84   1.207201 T    
O19   C94   1.285419 A    
O1    C1    1.283575 A    
C147  C148  1.525672 S    
C70   C74   1.401005 A    
C172  H144  1.108945 S    
C31   O65   1.425430 S    
C25   H11   1.112953 S    
C26   H16   1.113362 S    
C113  H55   1.083405 S    
C9    C99   1.206437 T    
C183  C184  1.525657 S    
C177  H155  1.109022 S    
C43   O49   1.421735 S    
C180  H162  1.109021 S    
Cu11  Cu12  2.700681 S    
C33   C37   1.564676 S    
C21   C37   1.553251 S    
N2    O60   1.301519 A    
C16   C133  1.405698 A    
C181  H165  1.110741 S    
O23   Cu7   1.980847 S    
O40   C108  1.301631 A    
C171  H141  1.108696 S    
C176  C177  1.525857 S    
C50   O72   1.423480 S    
C167  H132  1.111019 S    
C69   C73   1.401380 A    
C7    C37   1.486905 S    
C59   C63   1.405057 A    
C171  C172  1.525968 S    
O6    C2    1.285038 A    
C158  C159  1.528388 S    
O4    Cu2   1.938624 S    
N3    O62   1.301517 A    
O68   C170  1.416667 S    
C28   H34   1.113710 S    
C67   C71   1.401001 A    
C123  C129  1.208287 T    
C92   C136  1.442588 S    
C169  H135  1.110724 S    
C156  H105  1.111577 S    
C50   H32   1.117929 S    
C22   C26   1.539732 S    
C31   H25   1.115739 S    
C152  H96   1.115937 S    
O44   Cu11  1.937780 S    
C120  C122  1.401985 A    
O2    Cu1   1.938624 S    
O10   Cu1   1.980635 S    
O13   C5    1.280431 A    
O20   Cu8   1.939487 S    
Cu5   Cu6   2.643749 S    
C27   C43   1.548585 S    
C175  H149  1.110783 S    
C133  C136  1.395802 A    
C139  H66   1.110381 S    
C150  H91   1.110471 S    
C140  C141  1.531095 S    
C10   C100  1.206437 T    
C11   C109  1.437219 S    
C131  C135  1.395738 A    
Cu11  O47   1.939899 S    
C144  H78   1.110762 S    
C148  H86   1.110912 S    
C169  H136  1.110468 S    
C22   C38   1.552560 S    
C170  H138  1.104528 S    
C160  H114  1.110778 S    
C70   C82   1.443267 S    
O7    C3    1.285034 A    
C149  C150  1.528389 S    
O40   Cu12  1.938909 S    
C17   C132  1.405700 A    
C54   C74   1.398806 A    
C142  H73   1.110384 S    
C143  H76   1.115645 S    
C63   C67   1.408291 A    
C174  H148  1.108804 S    
C145  H79   1.110913 S    
O25   Cu6   1.980853 S    
H19   C29   1.113550 S    
C115  C123  1.443787 S    
H40   C74   1.083505 S    
C8    C38   1.488395 S    
C181  H163  1.110961 S    
C40   C44   1.568083 S    
C165  H127  1.111616 S    
C34   C50   1.562858 S    
C20   C36   1.553260 S    
C41   C97   1.495006 S    
C65   O55   1.381097 S    
C182  C183  1.526174 S    
C34   H28   1.115750 S    
C179  H160  1.113439 S    
C154  H102  1.110900 S    
O12   C8    1.285853 A    
H37   C71   1.083506 S    
C69   C81   1.443979 S    
C48   O70   1.423400 S    
O28   Cu7   1.980853 S    
H21   C43   1.117856 S    
C138  H64   1.110785 S    
C173  H146  1.115421 S    
C166  H129  1.110467 S    
C180  C181  1.525637 S    
O16   C8    1.280420 A    
C146  C147  1.531135 S    
C23   C39   1.553846 S    
O71   C179  1.418946 S    
H38   C72   1.083521 S    
Cu7   O31   1.939553 S    
O11   Cu2   1.980632 S    
C19   H1    1.113220 S    
C20   C24   1.539133 S    
O43   C107  1.301852 A    
C41   C49   1.567673 S    
C125  C127  1.208162 T    
C58   C62   1.402296 A    
C137  H62   1.115640 S    
C168  H134  1.111618 S    
C30   H36   1.113742 S    
C173  C174  1.526189 S    
O54   C152  1.411118 S    
O6    Cu3   1.939947 S    
C47   O69   1.423479 S    
C175  H151  1.110738 S    
O27   C97   1.283732 A    
C150  C151  1.525368 S    
O39   C107  1.301737 A    
C13   C99   1.446888 S    
C64   O54   1.381100 S    
C14   C100  1.446881 S    
C54   H44   1.083452 S    
C141  H71   1.110761 S    
N4    O64   1.301572 A    
O42   C106  1.301850 A    
C148  H88   1.110860 S    
C57   C77   1.442406 S    
O43   Cu12  1.937783 S    
C137  C138  1.531135 S    
C23   H13   1.113360 S    
O2    C2    1.284464 A    
O41   Cu10  1.937783 S    
C151  H93   1.110779 S    
C164  H124  1.108506 S    
C26   H12   1.113038 S    
C160  H116  1.110881 S    
C61   C65   1.404013 A    
C149  H89   1.116586 S    
C104  C130  1.439030 S    
C14   C18   1.419215 A    
O14   Cu3   1.980875 S    
C175  H150  1.110503 S    
O46   C109  1.300204 A    
C18   N3    1.441834 S    
C66   C70   1.408285 A    
C156  C157  1.525611 S    
Cu1   Cu3   2.643335 S    
C162  H119  1.110942 S    
C122  C126  1.443655 S    
Cu2   Cu4   2.643335 S    
C15   N2    1.441829 S    
O20   C94   1.285416 A    
C6    C36   1.486916 S    
C152  C153  1.528743 S    
C147  H85   1.110784 S    
C184  H170  1.110781 S    
C18   C131  1.405138 A    
O11   C7    1.284214 A    
C17   N4    1.442702 S    
O39   Cu11  1.938909 S    
H18   C28   1.113548 S    
C161  H117  1.104511 S    
C183  H169  1.108798 S    
O37   Cu9   1.938909 S    
C182  H166  1.110743 S    
C54   C58   1.400865 A    
C24   H10   1.112951 S    
C159  H112  1.110459 S    
C82   C86   1.206572 T    
C116  C124  1.443783 S    
O30   C101  1.283881 A    
C51   H41   1.083450 S    
N1    O57   1.300881 A    
C42   C50   1.566092 S    
C49   H31   1.117785 S    
C56   C60   1.401062 A    
C12   C92   1.207223 T    
