data_mof_unit_43816.cif
_audit_creation_date              2012-12-11T15:13:39-0500
_audit_creation_method            fapswitch 2.2
_symmetry_space_group_name_H-M    P1
_symmetry_Int_Tables_number       1
_space_group_crystal_system       triclinic
_cell_length_a                    6.944683
_cell_length_b                    13.477705
_cell_length_c                    20.11781
_cell_angle_alpha                 104.122173
_cell_angle_beta                  89.993691
_cell_angle_gamma                 90.592219
_cell_volume                      1825.98291685

loop_
_atom_site_label
_atom_site_type_symbol
_atom_type_description
_atom_site_fract_x
_atom_site_fract_y
_atom_site_fract_z
_atom_type_partial_charge
O1    O     O_R   0.506780 0.600060 0.449950 -0.544644
O2    O     O_R   0.179840 0.597110 0.589410 -0.541623
O3    O     O_R   0.004570 0.399940 0.550050 -0.539258
C1    C     C_R   0.348589 0.619057 0.616883 0.691463
O4    O     O_R   0.177380 0.612160 0.452890 -0.536278
O5    O     O_R   0.002100 0.415100 0.412560 -0.542566
C2    C     C_R   0.346760 0.639318 0.436591 0.738832
O6    O     O_R   0.509250 0.584900 0.587440 -0.541590
O7    O     O_3   0.337570 0.435330 0.486930 -0.372563
V1    V     V_3+5 0.064650 0.512000 0.502430 1.425096
O8    O     O_R   0.672090 0.402890 0.410590 -0.544267
C3    C     C_R   0.840529 0.380970 0.383088 0.673704
O9    O     O_R   0.674540 0.387840 0.547110 -0.541371
C4    C     C_R   0.842785 0.360716 0.563434 0.694626
V2    V     V_3+5 0.564040 0.488000 0.497570 1.410995
O10   O     O_3   0.840990 0.564670 0.513070 -0.368993
C5    C     C_R   0.849839 0.105789 0.607439 -0.160070
H1    H     H_    0.841972 0.155424 0.513928 0.101955
H2    H     H_    0.856817 0.979588 0.689884 0.119920
H3    H     H_    0.848109 0.025587 0.580583 0.117973
C6    C     C_R   0.849383 0.283009 0.602783 -0.030469
C7    C     C_R   0.863689 0.319445 0.932643 -0.169637
C8    C     C_R   0.860662 0.396290 0.897583 -0.122196
C9    C     C_R   0.857831 0.371898 0.826182 -0.163019
C10   C     C_R   0.857897 0.268651 0.787638 0.078984
C11   C     C_R   0.860183 0.190143 0.824029 0.070989
C12   C     C_R   0.855646 0.240712 0.714371 0.072328
C13   C     C_R   0.854341 0.135307 0.679378 0.145929
C14   C     C_R   0.857163 0.060018 0.716253 -0.215033
C15   C     C_R   0.860302 0.086782 0.787365 -0.205614
C16   C     C_R   0.854229 0.313624 0.674344 -0.217019
C17   C     C_R   0.846599 0.179309 0.569388 -0.179327
C18   C     C_R   0.863129 0.216766 0.896652 -0.075248
H4    H     H_    0.855678 0.394819 0.696861 0.089979
H5    H     H_    0.866686 0.340080 0.988191 0.098806
H6    H     H_    0.855573 0.435887 0.802983 0.101947
H7    H     H_    0.860869 0.475661 0.925989 0.117593
H8    H     H_    0.862473 0.025331 0.813401 0.116903
C19   C     C_3   0.676884 0.220916 0.228442 -0.116151
C20   C     C_3   0.773045 0.199730 0.293020 -0.140524
H9    H     H_    0.704264 0.159082 0.328768 0.098239
H10   H     H_    0.528511 0.197073 0.210387 0.107115
C21   C     C_3   0.849397 0.310681 0.312482 -0.005485
C22   C     C_3   0.753315 0.332667 0.248708 -0.138817
C23   C     C_3   0.939798 0.299310 0.207271 -0.144967
C24   C     C_3   0.035951 0.278085 0.271832 -0.119736
C25   C     C_3   0.959511 0.166333 0.251545 -0.138993
C26   C     C_3   0.863447 0.188403 0.187783 -0.005522
H11   H     H_    0.667997 0.401614 0.247989 0.100035
H12   H     H_    0.008648 0.339957 0.171531 0.098673
H13   H     H_    0.184369 0.301754 0.289907 0.108452
H14   H     H_    0.044830 0.097371 0.252234 0.110429
C27   C     C_3   0.538229 0.725150 0.730453 -0.123653
C28   C     C_3   0.458651 0.835447 0.749764 -0.138578
H15   H     H_    0.542603 0.906126 0.750192 0.110884
H16   H     H_    0.688233 0.704132 0.714225 0.107773
C29   C     C_3   0.356934 0.811654 0.812222 -0.005554
C30   C     C_3   0.436561 0.702201 0.793716 -0.141324
C31   C     C_3   0.254075 0.665590 0.749930 -0.140175
C32   C     C_3   0.174541 0.775898 0.769223 -0.124203
C33   C     C_3   0.276207 0.798799 0.705937 -0.131977
C34   C     C_3   0.355862 0.689306 0.687467 -0.006959
H17   H     H_    0.502239 0.662724 0.830401 0.099715
H18   H     H_    0.169853 0.594966 0.749530 0.099332
H19   H     H_    0.024590 0.797112 0.785432 0.107163
H20   H     H_    0.210576 0.838319 0.669258 0.119113
C35   C     C_R   0.387896 0.895077 0.392792 -0.197242
H21   H     H_    0.405315 0.020428 0.309861 0.116649
H22   H     H_    0.402961 0.975410 0.418588 0.109769
C36   C     C_R   0.357841 0.718242 0.398020 -0.047481
C37   C     C_R   0.336484 0.681265 0.068008 -0.169390
C38   C     C_R   0.324896 0.604829 0.103318 -0.124051
C39   C     C_R   0.332432 0.629323 0.174687 -0.163030
C40   C     C_R   0.351927 0.732278 0.212971 0.091261
C41   C     C_R   0.363841 0.810343 0.176306 0.067577
C42   C     C_R   0.359879 0.760367 0.286233 0.076338
C43   C     C_R   0.379442 0.865328 0.320909 0.110464
C44   C     C_R   0.390596 0.940217 0.283752 -0.202349
C45   C     C_R   0.383023 0.913390 0.212686 -0.202790
C46   C     C_R   0.349112 0.687962 0.326462 -0.279429
C47   C     C_R   0.377811 0.822040 0.431782 0.197295
C48   C     C_R   0.355977 0.783629 0.103709 -0.076466
H23   H     H_    0.334121 0.607071 0.304016 0.102573
H24   H     H_    0.330136 0.660559 0.012494 0.099396
H25   H     H_    0.322454 0.565622 0.198052 0.102764
H26   H     H_    0.309783 0.525693 0.075131 0.117593
H27   H     H_    0.392346 0.974541 0.186472 0.115998
O11   O     O_R   0.203580 0.914920 0.912610 -0.540856
O12   O     O_R   0.535710 0.887810 0.047120 -0.539935
O13   O     O_R   0.710730 0.084950 0.087430 -0.541681
C49   C     C_R   0.366527 0.861298 0.064006 0.689235
O14   O     O_R   0.533010 0.902850 0.910600 -0.544199
O15   O     O_R   0.708010 0.100090 0.949930 -0.538019
C50   C     C_R   0.364298 0.881345 0.882981 0.680476
O16   O     O_R   0.206300 0.899780 0.050100 -0.538156
O17   O     O_3   0.375170 0.064580 0.013100 -0.369860
V3    V     V_3+5 0.648200 0.988020 0.997570 1.413733
O18   O     O_R   0.038030 0.112330 0.952840 -0.540278
C51   C     C_R   0.869805 0.138794 0.936090 0.688638
O19   O     O_R   0.040730 0.097300 0.089360 -0.543774
C52   C     C_R   0.872332 0.118671 0.117023 0.679384
V4    V     V_3+5 0.148780 0.012220 0.002360 1.414366
O20   O     O_3   0.871930 0.935430 0.986900 -0.369469
N1    N     N_3   0.385916 0.852513 0.505398 -0.691735
H28   H     H_    0.515284 0.825699 0.520687 0.216442
H29   H     H_    0.391144 0.932270 0.522402 0.228694

loop_
_geom_bond_atom_site_label_1
_geom_bond_atom_site_label_2
_ccdc_geom_bond_type
C22   H11   S    
C20   C25   S    
O17   V4    S    
C39   C40   A    
C35   C43   A    
C1    O6    A    
C2    C36   S    
N1    H29   S    
C43   C44   A    
C7    H5    S    
C6    C16   A    
C31   H18   S    
C9    H6    S    
C40   C42   A    
C4    C6    S    
C13   C14   A    
C37   H24   S    
C3    C21   S    
O5    C3    A    
C27   H16   S    
V2    O10   S    
C1    C34   S    
C5    H3    S    
C15   H8    S    
C36   C47   A    
C24   C25   S    
O8    V2    S    
C33   H20   S    
C20   C21   S    
C8    C9    A    
O1    V2    S    
O12   C49   A    
O7    V1    S    
O15   C51   A    
O13   V3    S    
O16   V4    S    
C37   C48   A    
C31   C32   S    
O9    C4    A    
V4    O20   S    
C46   H23   S    
C45   H27   S    
N1    H28   S    
O14   V3    S    
C19   H10   S    
H21   C44   S    
C6    C17   A    
O11   C50   A    
C40   C41   A    
C36   C46   A    
C9    C10   A    
C19   C20   S    
O4    C2    A    
C44   C45   A    
C29   C32   S    
C10   C11   A    
O18   V4    S    
C12   C16   A    
C24   H13   S    
C48   C49   S    
O12   V3    S    
C32   C33   S    
C18   C51   S    
C25   H14   S    
O2    C1    A    
C21   C22   S    
O13   C52   A    
C14   C15   A    
C8    H7    S    
C27   C34   S    
C11   C18   A    
O11   V4    S    
C25   C26   S    
C27   C30   S    
O17   V3    S    
O14   C50   A    
C16   H4    S    
C42   C43   A    
C39   H25   S    
V3    O20   S    
O3    C4    A    
C20   H9    S    
C32   H19   S    
C35   C47   A    
O6    V2    S    
C29   C50   S    
O9    V2    S    
H1    C17   S    
O2    V1    S    
O15   V3    S    
C22   C23   S    
O19   V4    S    
C23   C26   S    
C30   H17   S    
C7    C18   A    
C28   H15   S    
C31   C34   S    
O1    C2    A    
C5    C13   A    
C42   C46   A    
C38   C39   A    
O5    V1    S    
C38   H26   S    
O8    C3    A    
C41   C48   A    
C27   C28   S    
C19   C22   S    
C28   C33   S    
C10   C12   A    
C30   C31   S    
O4    V1    S    
O3    V1    S    
V1    O10   S    
C28   C29   S    
C29   C30   S    
C23   H12   S    
C26   C52   S    
O19   C52   A    
O7    V2    S    
C33   C34   S    
C21   C24   S    
C49   O16   A    
C23   C24   S    
C37   C38   A    
O18   C51   A    
C12   C13   A    
C5    C17   A    
C7    C8    A    
C35   H22   S    
C41   C45   A    
C47   N1    S    
C19   C26   S    
C11   C15   A    
H2    C14   S    
