data_mof_unit_15428.cif
_audit_creation_date              2012-10-26T18:53:17-0400
_audit_creation_method            fapswitch 2.2
_symmetry_space_group_name_H-M    P1
_symmetry_Int_Tables_number       1
_space_group_crystal_system       triclinic
_cell_length_a                    14.733366
_cell_length_b                    14.738606
_cell_length_c                    15.884775
_cell_angle_alpha                 76.748784
_cell_angle_beta                  102.864726
_cell_angle_gamma                 114.825553
_cell_volume                      3015.90043867

loop_
_atom_site_label
_atom_site_type_symbol
_atom_type_description
_atom_site_fract_x
_atom_site_fract_y
_atom_site_fract_z
_atom_type_partial_charge
C1    C     C_R   0.880379 0.312401 0.513853 0.538493
C2    C     C_R   0.187330 0.795219 0.475304 0.000719
C3    C     C_R   0.782511 0.031114 0.515203 -0.121041
C4    C     C_R   0.999798 0.500026 0.659633 0.545515
C5    C     C_R   0.849566 0.130727 0.520393 -0.134895
C6    C     C_R   0.708506 0.178976 0.507910 -0.129537
C7    C     C_R   0.639002 0.080145 0.498243 0.033395
C8    C     C_R   0.677843 0.005381 0.503825 0.054577
C9    C     C_R   0.532467 0.053606 0.483687 0.033280
C10   C     C_R   0.466328 0.950259 0.482751 0.035724
C11   C     C_R   0.508445 0.878398 0.487463 -0.131572
C12   C     C_3   0.020941 0.411513 0.071538 -0.247355
C13   C     C_R   0.612061 0.905842 0.497275 -0.122813
C14   C     C_R   0.489861 0.127142 0.467788 -0.137517
C15   C     C_R   0.386137 0.099949 0.455693 -0.132676
C16   C     C_R   0.119647 0.687657 0.485257 0.551462
C17   C     C_R   0.320830 0.998696 0.460414 0.050140
C18   C     C_R   0.360090 0.922608 0.475286 0.035602
C19   C     C_R   0.216246 0.972706 0.450682 -0.125999
C20   C     C_R   0.149788 0.871575 0.457400 -0.124687
C21   C     C_R   0.291580 0.821151 0.484468 -0.128790
C22   C     C_R   0.725306 0.681099 0.364514 0.042133
C23   C     C_3   0.999582 0.502336 0.082353 0.057934
C24   C     C_R   0.803003 0.645766 0.385035 0.071363
C25   C     C_R   0.711045 0.505915 0.482164 0.024045
C26   C     C_R   0.626816 0.534755 0.461632 -0.013083
C27   C     C_R   0.636591 0.626132 0.403655 0.046806
C28   C     C_R   0.000172 0.499962 0.340362 0.561501
C29   C     C_R   0.535244 0.477600 0.498752 0.013709
C30   C     C_R   0.457413 0.516112 0.483187 0.021126
C31   C     C_R   0.471834 0.608623 0.426891 -0.145998
C32   C     C_R   0.558563 0.661333 0.387141 -0.114155
C33   C     C_R   0.518857 0.381937 0.549425 -0.118747
C34   C     C_3   0.082559 0.601494 0.043881 -0.010672
C35   C     C_R   0.434185 0.328284 0.591485 -0.000795
C36   C     C_R   0.360572 0.369143 0.581735 0.039470
C37   C     C_R   0.368523 0.461029 0.525076 -0.014101
C38   C     C_R   0.278127 0.318386 0.627368 -0.135249
C39   C     C_R   0.201989 0.354037 0.616065 0.150254
C40   C     C_3   0.020782 0.411996 0.973884 -0.239112
C41   C     C_R   0.286088 0.492588 0.512481 0.027698
C42   C     C_3   0.892171 0.491555 0.931645 -0.091091
C43   C     C_3   0.894514 0.492808 0.029944 -0.183822
C44   C     C_1   0.000631 0.500187 0.250760 -0.000605
C45   C     C_3   0.081253 0.601148 0.945954 -0.185391
C46   C     C_3   0.997817 0.502344 0.916185 0.062888
C47   C     C_3   0.118610 0.290480 0.670797 -0.331958
C48   C     C_3   0.423893 0.226372 0.645680 -0.407764
C49   C     C_3   0.854521 0.571225 0.872611 -0.414914
C50   C     C_1   0.000435 0.500894 0.175032 -0.036891
C51   C     C_1   0.998801 0.501141 0.824364 -0.072246
C52   C     C_1   0.999392 0.500454 0.749101 -0.036157
C53   C     C_R   0.812675 0.205290 0.516053 -0.002502
Cu1   Cu    Cu3+1 0.081750 0.475690 0.522550 0.934061
Cu2   Cu    Cu3+1 0.918250 0.524310 0.477450 0.947288
H1    H     H_    0.962592 0.339158 0.098077 0.131665
H2    H     H_    0.683658 0.237293 0.509989 0.112135
H3    H     H_    0.963189 0.339362 0.953941 0.123477
H4    H     H_    0.463398 0.800296 0.481077 0.099825
H5    H     H_    0.534320 0.207229 0.461581 0.105799
H6    H     H_    0.185909 0.030730 0.438412 0.113477
H7    H     H_    0.564170 0.731368 0.344219 0.159058
H8    H     H_    0.283711 0.557598 0.466015 0.121750
H9    H     H_    0.871440 0.688003 0.355758 0.158926
H10   H     H_    0.713540 0.442703 0.530997 0.120518
H11   H     H_    0.417027 0.642634 0.411847 0.094138
H12   H     H_    0.095606 0.416972 0.964788 0.126366
H13   H     H_    0.570718 0.345763 0.556417 0.085856
H14   H     H_    0.271367 0.249494 0.672762 0.102984
H15   H     H_    0.835703 0.416571 0.915503 0.134000
H16   H     H_    0.835293 0.421481 0.056922 0.105376
H17   H     H_    0.875667 0.555474 0.038424 0.168065
H18   H     H_    0.156349 0.607111 0.936582 0.109136
H19   H     H_    0.069955 0.668300 0.904470 0.153653
H20   H     H_    0.157741 0.605281 0.080056 0.135316
H21   H     H_    0.063108 0.321365 0.670266 0.193585
H22   H     H_    0.077605 0.215003 0.649555 0.100632
H23   H     H_    0.095466 0.415243 0.109281 0.123537
H24   H     H_    0.152223 0.279404 0.740378 0.092413
H25   H     H_    0.352580 0.166696 0.620691 0.133820
H26   H     H_    0.486888 0.204730 0.643301 0.132966
H27   H     H_    0.423984 0.228276 0.715166 0.134816
H28   H     H_    0.850653 0.568783 0.802544 0.145716
H29   H     H_    0.777112 0.555015 0.884023 0.134415
H30   H     H_    0.904052 0.648650 0.886720 0.171664
H31   H     H_    0.640897 0.848387 0.500033 0.122998
H32   H     H_    0.317737 0.760419 0.501243 0.119197
H33   H     H_    0.069399 0.853197 0.449948 0.139522
H34   H     H_    0.356902 0.158840 0.443504 0.118684
H35   H     H_    0.812438 0.974340 0.518743 0.120016
H36   H     H_    0.929880 0.149554 0.526428 0.129264
I1    I     I_    0.071438 0.737537 0.061245 -0.431967
I2    I     I_    0.750619 0.818762 0.276001 -0.427664
N1    N     N_R   0.795410 0.560790 0.443550 -0.251826
N2    N     N_R   0.204590 0.439170 0.556520 -0.219566
O1    O     O_R   0.977910 0.338120 0.529720 -0.516006
O2    O     O_R   0.839850 0.379180 0.491640 -0.509988
O3    O     O_R   0.069060 0.479460 0.639610 -0.508236
O4    O     O_R   0.931000 0.520530 0.601530 -0.495214
O5    O     O_R   0.160150 0.620820 0.508360 -0.511689
O6    O     O_R   0.022090 0.661880 0.470280 -0.507217
O7    O     O_R   0.069000 0.479470 0.398470 -0.497127
O8    O     O_R   0.930940 0.520540 0.360390 -0.485317

loop_
_geom_bond_atom_site_label_1
_geom_bond_atom_site_label_2
_ccdc_geom_bond_type
C31   H11   S    
C21   H32   S    
C43   H17   S    
C4    O3    A    
C18   C21   A    
C19   C20   A    
C47   H24   S    
C7    C8    A    
C45   C46   S    
C40   C46   S    
C12   C23   S    
C26   C27   A    
C8    C13   A    
C4    C52   S    
C3    H35   S    
C49   H29   S    
C5    C53   A    
C36   C37   A    
C10   C18   A    
C47   H21   S    
C38   C39   A    
Cu2   O8    S    
C42   H15   S    
C23   C43   S    
C48   H26   S    
C45   H18   S    
C42   C46   S    
C1    C53   S    
C17   C19   A    
C35   C36   A    
C29   C33   A    
C40   H12   S    
C12   H23   S    
C13   H31   S    
C2    C16   S    
C9    C10   A    
Cu1   O1    S    
C34   H20   S    
C38   H14   S    
C25   N1    A    
C24   H9    S    
C6    H2    S    
Cu1   O5    S    
Cu2   N1    S    
C11   H4    S    
C35   C48   S    
C40   H3    S    
C2    C20   A    
C51   C52   T    
C49   H30   S    
C25   H10   S    
C3    C8    A    
C1    O2    A    
C16   O5    A    
C23   C50   S    
C25   C26   A    
C46   C51   S    
C28   C44   S    
C30   C37   A    
C45   H19   S    
C12   C40   S    
C9    C14   A    
C29   C30   A    
C24   N1    A    
C15   H34   S    
C31   C32   A    
C30   C31   A    
C23   C34   S    
Cu2   O2    S    
C2    C21   A    
C17   C18   A    
C34   C45   S    
C12   H1    S    
C39   N2    A    
Cu1   N2    S    
C5    H36   S    
C22   C27   A    
C22   I2    S    
C22   C24   A    
C42   C43   S    
C47   H22   S    
C6    C53   A    
C39   C47   S    
C44   C50   T    
C7    C9    A    
Cu1   Cu2   S    
C43   H16   S    
C27   C32   A    
Cu1   O7    S    
C3    C5    A    
C15   C17   A    
C6    C7    A    
C14   H5    S    
Cu2   O6    S    
C48   H25   S    
C36   C38   A    
C32   H7    S    
C11   C13   A    
C28   O8    A    
C49   H28   S    
C41   N2    A    
C19   H6    S    
C1    O1    A    
C20   H33   S    
C33   C35   A    
C48   H27   S    
C37   C41   A    
C34   I1    S    
C10   C11   A    
C42   C49   S    
C28   O7    A    
C16   O6    A    
C26   C29   A    
C4    O4    A    
Cu2   O4    S    
C41   H8    S    
C14   C15   A    
Cu1   O3    S    
C33   H13   S    
