data_mof_unit_17320.cif
_audit_creation_date              2013-03-05T16:02:30-0500
_audit_creation_method            fapswitch 2.2
_symmetry_space_group_name_H-M    P1
_symmetry_Int_Tables_number       1
_space_group_crystal_system       triclinic
_cell_length_a                    17.018524
_cell_length_b                    7.264002
_cell_length_c                    14.881974
_cell_angle_alpha                 90.048651
_cell_angle_beta                  94.257231
_cell_angle_gamma                 91.411776
_cell_volume                      1834.1084793

loop_
_atom_site_label
_atom_site_type_symbol
_atom_site_description
_atom_site_fract_x
_atom_site_fract_y
_atom_site_fract_z
_atom_type_partial_charge
O1    O     O_R   0.663460 0.361760 0.165970 -0.590947
O2    O     O_R   0.336540 0.638240 0.834030 -0.590562
O3    O     O_R   0.836540 0.861760 0.334030 -0.591072
O4    O     O_R   0.163460 0.138240 0.665970 -0.594136
O5    O     O_R   0.827100 0.689870 0.163730 -0.577240
O6    O     O_R   0.172900 0.310130 0.836270 -0.583160
O7    O     O_R   0.672900 0.189870 0.336270 -0.585229
O8    O     O_R   0.327100 0.810130 0.663730 -0.588590
C1    C     C_R   0.854726 0.524338 0.145382 1.061812
C2    C     C_R   0.145429 0.475331 0.854869 1.016321
C3    C     C_R   0.645245 0.022343 0.354419 1.051849
C4    C     C_R   0.354708 0.977853 0.645506 1.059525
O9    O     O_R   0.663490 0.691370 0.155500 -0.580455
O10   O     O_R   0.336510 0.308630 0.844500 -0.584528
O11   O     O_R   0.836510 0.191370 0.344500 -0.585124
O12   O     O_R   0.163490 0.808630 0.655500 -0.589681
O13   O     O_R   0.671770 0.863320 0.325740 -0.577609
O14   O     O_R   0.328230 0.136680 0.674260 -0.564211
O15   O     O_R   0.828230 0.363320 0.174260 -0.570160
O16   O     O_R   0.171770 0.636680 0.825740 -0.554134
C5    C     C_R   0.638312 0.520267 0.130559 0.971216
C6    C     C_R   0.361456 0.480059 0.869532 0.972229
C7    C     C_R   0.862554 0.023661 0.368324 0.997959
C8    C     C_R   0.137422 0.974198 0.630206 0.988799
H1    H     H_    0.086212 0.340461 0.243840 0.165002
H2    H     H_    0.926790 0.535482 0.698527 0.149871
H3    H     H_    0.427621 0.806467 0.261845 0.168024
H4    H     H_    0.578026 0.228477 0.730570 0.169961
O17   O     O_3   0.752910 0.528800 0.305860 -0.282147
O18   O     O_3   0.247090 0.471200 0.694140 -0.293649
O19   O     O_3   0.747090 0.028800 0.194140 -0.268756
O20   O     O_3   0.252910 0.971200 0.805860 -0.252862
V1    V     V_3+5 0.749460 0.803010 0.239640 1.225353
V2    V     V_3+5 0.250540 0.196990 0.760360 1.220595
V3    V     V_3+5 0.750540 0.303010 0.260360 1.226175
V4    V     V_3+5 0.249460 0.696990 0.739640 1.208373
C9    C     C_1   0.468989 0.996821 0.530351 0.035463
C10   C     C_1   0.530161 0.004922 0.468602 0.041753
C11   C     C_1   0.030267 0.491785 0.968898 0.058847
C12   C     C_1   0.968850 0.504892 0.030125 0.043529
C13   C     C_R   0.019881 0.151362 0.318896 0.111736
C14   C     C_R   0.998468 0.700503 0.616024 0.124604
C15   C     C_R   0.482779 0.613933 0.180574 0.106652
C16   C     C_R   0.517520 0.401061 0.815926 0.089748
C17   C     C_R   0.084560 0.267328 0.306859 -0.244121
C18   C     C_R   0.928463 0.653227 0.653883 -0.292328
C19   C     C_R   0.426221 0.743098 0.196103 -0.193211
C20   C     C_R   0.578780 0.288017 0.796971 -0.186226
C21   C     C_R   0.150842 0.267423 0.367553 0.085800
C22   C     C_R   0.859220 0.743789 0.629621 0.153253
C23   C     C_R   0.362768 0.768558 0.132941 0.074272
C24   C     C_R   0.645084 0.275680 0.856900 0.096331
C25   C     C_R   0.149794 0.151504 0.444042 0.237360
C26   C     C_R   0.858156 0.868188 0.555946 0.254934
C27   C     C_R   0.359291 0.665072 0.052044 0.261006
C28   C     C_R   0.644530 0.361227 0.942308 0.257023
C29   C     C_R   0.077397 0.071180 0.470336 -0.059192
C30   C     C_R   0.930254 0.919456 0.517144 -0.086834
C31   C     C_R   0.427571 0.574429 0.024685 -0.050762
C32   C     C_R   0.573712 0.435672 0.972579 -0.052131
C33   C     C_R   0.009300 0.078452 0.406895 0.055209
C34   C     C_R   0.001831 0.863774 0.563021 0.062807
C35   C     C_R   0.493620 0.562472 0.089534 0.020187
C36   C     C_R   0.506890 0.444770 0.908184 0.015274
C37   C     C_R   0.072273 0.970983 0.553473 -0.263496
C38   C     C_R   0.934057 0.014271 0.433185 -0.209181
C39   C     C_R   0.432405 0.499541 0.935744 -0.231319
C40   C     C_R   0.567824 0.502803 0.063132 -0.230799
C41   C     C_1   0.417090 0.988880 0.582880 -0.205230
C42   C     C_1   0.582317 0.012233 0.416391 -0.211188
C43   C     C_1   0.082557 0.482206 0.917001 -0.201937
C44   C     C_1   0.916871 0.515527 0.082364 -0.228889
N1    N     N_R   0.223427 0.103655 0.488981 0.203359
O21   O     O_R   0.273805 0.232835 0.516419 -0.444153
O22   O     O_R   0.247167 0.935822 0.481623 -0.472932
N2    N     N_R   0.784718 0.943110 0.523052 0.198059
O23   O     O_R   0.725073 0.832838 0.501105 -0.448686
O24   O     O_R   0.775027 0.120208 0.523923 -0.449852
N3    N     N_R   0.283824 0.634641 0.005595 0.203089
O25   O     O_R   0.247451 0.478129 0.017741 -0.473216
O26   O     O_R   0.243742 0.774346 0.974970 -0.408767
N4    N     N_R   0.718422 0.388886 0.992253 0.197997
O27   O     O_R   0.754213 0.547884 0.985387 -0.475615
O28   O     O_R   0.758889 0.246509 0.018511 -0.415212
C45   C     C_3   0.786286 0.686925 0.676915 -0.336755
C46   C     C_3   0.799292 0.701506 0.779615 -0.855209
H5    H     H_    0.838362 0.591660 0.806993 0.263906
H6    H     H_    0.826117 0.837431 0.799928 0.264632
H7    H     H_    0.741796 0.684989 0.809845 0.275908
H8    H     H_    0.735104 0.771467 0.656550 0.233452
H9    H     H_    0.769884 0.542487 0.658266 0.213332
C47   C     C_3   0.224957 0.380538 0.349478 -0.279168
C48   C     C_3   0.224956 0.475484 0.257956 -0.927849
H10   H     H_    0.214964 0.373742 0.202292 0.290942
H11   H     H_    0.179590 0.583022 0.252023 0.266534
H12   H     H_    0.283511 0.542086 0.251893 0.273171
H13   H     H_    0.234756 0.488321 0.402415 0.232753
H14   H     H_    0.276690 0.290375 0.354249 0.230573
C49   C     C_3   0.720298 0.189905 0.827888 -0.307858
C50   C     C_3   0.720665 0.141875 0.727873 -0.875551
H15   H     H_    0.677541 0.028166 0.710260 0.260539
H16   H     H_    0.706129 0.263558 0.685459 0.276180
H17   H     H_    0.780311 0.097856 0.713062 0.271047
H18   H     H_    0.770702 0.287892 0.842928 0.228575
H19   H     H_    0.731573 0.062841 0.867772 0.226414
C51   C     C_3   0.293752 0.888013 0.153663 -0.271133
C52   C     C_3   0.296536 0.971352 0.248068 -0.936991
H20   H     H_    0.300750 0.862708 0.300486 0.290208
H21   H     H_    0.346803 0.071332 0.258487 0.262523
H22   H     H_    0.240820 0.043968 0.254976 0.274288
H23   H     H_    0.289855 0.002806 0.104333 0.231143
H24   H     H_    0.238137 0.804635 0.144920 0.229764
C53   C     C_3   0.979997 0.072838 0.231523 -0.332168
C54   C     C_3   0.004186 0.874364 0.218761 -0.860670
H25   H     H_    0.069434 0.864486 0.225823 0.258388
H26   H     H_    0.978238 0.782488 0.268892 0.248075
H27   H     H_    0.983387 0.828488 0.149976 0.251888
H28   H     H_    0.915600 0.083386 0.224276 0.208731
H29   H     H_    0.998970 0.151041 0.172281 0.186940
C55   C     C_3   0.054569 0.541782 0.610745 -0.283169
C56   C     C_3   0.098506 0.537009 0.525044 -0.752718
H30   H     H_    0.057565 0.490856 0.467459 0.226510
H31   H     H_    0.126236 0.668946 0.506726 0.270628
H32   H     H_    0.147363 0.441215 0.536959 0.256981
H33   H     H_    0.094721 0.535209 0.672301 0.198505
H34   H     H_    0.020833 0.408363 0.611076 0.163854
C57   C     C_3   0.521183 0.515206 0.262364 -0.352810
C58   C     C_3   0.463324 0.461139 0.332619 -0.876646
H35   H     H_    0.443067 0.583857 0.367954 0.261673
H36   H     H_    0.411750 0.383896 0.300058 0.260654
H37   H     H_    0.493115 0.371416 0.384281 0.258645
H38   H     H_    0.544659 0.382632 0.241295 0.196616
H39   H     H_    0.569442 0.602311 0.295117 0.217793
C59   C     C_3   0.474485 0.498698 0.736281 -0.343003
C60   C     C_3   0.524678 0.540407 0.656782 -0.867122
H40   H     H_    0.581829 0.607522 0.680748 0.262807
H41   H     H_    0.535233 0.413290 0.618504 0.256833
H42   H     H_    0.492641 0.634898 0.609296 0.257317
H43   H     H_    0.421779 0.416583 0.710814 0.222555
H44   H     H_    0.456780 0.635847 0.759048 0.195717

loop_
_geom_bond_atom_site_label_1
_geom_bond_atom_site_label_2
_geom_bond_distance
_ccdc_geom_bond_type
C30   C34   1.419455 A    
C60   H42   1.108992 S    
C16   C20   1.387884 A    
C4    C41   1.464584 S    
C10   C42   1.222526 T    
O1    C5    1.333569 A    
C48   H10   1.110497 S    
C27   C31   1.434266 A    
N1    O22   1.300821 A    
N1    O21   1.300028 A    
O3    C7    1.333924 A    
C1    C44   1.467203 S    
C13   C33   1.435070 A    
C58   H35   1.109623 S    
C54   H25   1.111688 S    
C45   H9    1.108751 S    
C3    C42   1.464839 S    
C47   H14   1.108306 S    
C60   H40   1.111635 S    
C51   H24   1.110368 S    
C45   C46   1.531180 S    
C16   C36   1.434425 A    
O7    C3    1.329114 A    
C22   C26   1.420772 A    
C7    C38   1.498989 S    
N2    O24   1.301166 A    
C9    C41   1.222544 T    
C59   H44   1.107920 S    
O4    C8    1.355521 A    
C46   H6    1.109716 S    
C51   C52   1.526373 S    
O3    V1    2.002579 S    
H3    C19   1.079303 S    
O8    V4    1.966518 S    
C57   H38   1.105616 S    
C47   C48   1.527221 S    
C56   H32   1.101730 S    
C22   C45   1.520384 S    
C31   C39   1.439386 A    
C53   H29   1.112792 S    
C33   C38   1.433686 A    
C30   C38   1.432130 A    
C3    O13   1.331823 A    
C2    O16   1.329049 A    
O5    V1    1.992754 S    
O2    C6    1.330790 A    
C52   H20   1.109971 S    
O19   V1    1.775184 S    
C14   C34   1.427243 A    
C2    C43   1.466910 S    
O11   C7    1.345467 A    
C49   H18   1.110721 S    
C48   H11   1.110755 S    
O9    V1    2.008481 S    
C52   H21   1.110319 S    
O13   V1    1.964944 S    
O11   V3    2.038229 S    
C1    O15   1.326539 A    
C47   H13   1.111057 S    
C51   H23   1.111390 S    
C16   C59   1.530499 S    
C49   H19   1.110766 S    
O4    V2    2.002578 S    
C15   C35   1.431449 A    
C36   C39   1.426577 A    
N2    O23   1.299594 A    
C15   C57   1.526268 S    
C11   C12   1.441520 S    
N3    O26   1.300623 A    
C25   C29   1.431143 A    
C46   H5    1.109615 S    
C19   C23   1.394028 A    
C50   H17   1.109191 S    
O6    V2    1.992754 S    
O20   V2    1.775184 S    
O5    C1    1.337079 A    
C9    C10   1.439049 S    
C27   N3    1.424825 S    
C49   C50   1.528977 S    
C17   C21   1.391747 A    
O8    C4    1.330390 A    
C29   C37   1.443101 A    
C50   H16   1.108802 S    
O9    C5    1.347410 A    
C28   N4    1.422228 S    
O14   V2    1.964944 S    
C56   H30   1.109790 S    
C55   H34   1.114421 S    
C8    C37   1.531200 S    
C26   N2    1.428641 S    
C48   H12   1.106754 S    
N4    O28   1.300936 A    
C5    C40   1.508510 S    
C14   C18   1.390894 A    
C52   H22   1.107668 S    
N3    O25   1.300263 A    
C21   C47   1.529097 S    
C57   C58   1.533447 S    
C58   H37   1.110046 S    
H1    C17   1.080087 S    
C59   H43   1.107599 S    
C55   C56   1.526353 S    
O1    V3    2.018585 S    
C53   C54   1.524620 S    
C26   C30   1.435521 A    
O2    V4    2.018585 S    
C60   H41   1.109903 S    
O17   V3    1.772284 S    
C35   C40   1.427375 A    
H4    C20   1.077428 S    
C11   C43   1.224022 T    
C12   C44   1.224024 T    
C34   C37   1.429449 A    
C55   H33   1.103250 S    
O7    V3    1.966521 S    
C25   N1    1.426818 S    
C57   H39   1.107657 S    
C13   C53   1.524953 S    
C46   H7    1.110824 S    
C58   H36   1.110014 S    
O10   V2    2.008482 S    
C54   H26   1.110059 S    
C45   H8    1.102355 S    
C29   C33   1.441488 A    
C59   C60   1.535933 S    
C18   C22   1.388242 A    
C24   C49   1.527745 S    
C31   C35   1.430498 A    
O18   V4    1.772282 S    
C32   C36   1.434582 A    
O10   C6    1.348841 A    
O15   V3    1.950853 S    
O12   V4    2.038228 S    
C14   C55   1.520606 S    
C23   C51   1.526811 S    
C21   C25   1.417388 A    
C50   H15   1.109395 S    
C23   C27   1.415511 A    
C6    C39   1.504524 S    
C56   H31   1.101270 S    
C54   H27   1.106365 S    
O6    C2    1.334737 A    
H2    C18   1.084586 S    
C53   H28   1.097811 S    
O16   V4    1.950852 S    
C28   C32   1.435361 A    
C20   C24   1.390118 A    
C32   C40   1.444024 A    
O12   C8    1.336870 A    
N4    O27   1.300062 A    
C4    O14   1.330652 A    
C13   C17   1.391815 A    
C15   C19   1.391895 A    
C24   C28   1.415101 A    
