data_mof_unit_34679.cif
_audit_creation_date              2012-12-11T15:57:56-0500
_audit_creation_method            fapswitch 2.2
_symmetry_space_group_name_H-M    P1
_symmetry_Int_Tables_number       1
_space_group_crystal_system       triclinic
_cell_length_a                    10.734978
_cell_length_b                    10.74969
_cell_length_c                    16.906909
_cell_angle_alpha                 99.95772
_cell_angle_beta                  99.794997
_cell_angle_gamma                 60.579832
_cell_volume                      1665.54501913

loop_
_atom_site_label
_atom_site_type_symbol
_atom_type_description
_atom_site_fract_x
_atom_site_fract_y
_atom_site_fract_z
_atom_type_partial_charge
C1    C     C_R   0.353832 0.775537 0.401596 0.555412
C2    C     C_2   0.266501 0.256437 0.793304 -0.079185
C3    C     C_2   0.364824 0.155789 0.744617 0.097647
C4    C     C_R   0.399240 0.368337 0.353432 0.547338
C5    C     C_2   0.366847 0.181966 0.662288 -0.145011
C6    C     C_1   0.848176 0.327819 0.704681 -0.039859
C7    C     C_1   0.895611 0.291995 0.771247 -0.048117
C8    C     C_1   0.360579 0.759443 0.713710 -0.051232
C9    C     C_1   0.327543 0.807543 0.780876 -0.034334
C10   C     C_R   0.955212 0.284349 0.098935 0.542032
C11   C     C_R   0.295272 0.266971 0.124127 0.535180
C12   C     C_2   0.911160 0.301509 0.177951 -0.097920
C13   C     C_R   0.295469 0.890585 0.083773 0.539297
C14   C     C_R   0.944860 0.272037 0.853872 0.537389
C15   C     C_R   0.273327 0.246029 0.878820 0.578643
C16   C     C_R   0.781563 0.373464 0.407222 0.545701
C17   C     C_R   0.281225 0.879705 0.857516 0.546845
C18   C     C_R   0.382927 0.711492 0.631030 0.560638
C19   C     C_R   0.364573 0.344764 0.579106 0.548078
C20   C     C_R   0.778228 0.378427 0.628706 0.544552
C21   C     C_1   0.354154 0.340899 0.273054 -0.041750
C22   C     C_1   0.322064 0.310277 0.204955 -0.049157
C23   C     C_2   0.928182 0.188840 0.211010 -0.160226
C24   C     C_2   0.886341 0.306548 0.348225 0.129823
C25   C     C_3   0.140948 0.228659 0.367836 -0.293832
C26   C     C_3   0.462011 0.566264 0.169325 -0.281022
C27   C     C_3   0.616535 0.022746 0.790903 -0.249385
C28   C     C_2   0.872393 0.212850 0.288123 -0.129567
C29   C     C_2   0.326629 0.850958 0.332372 -0.103567
C30   C     C_2   0.352825 0.819827 0.157398 0.135861
C31   C     C_2   0.414919 0.877418 0.217923 -0.131734
C32   C     C_2   0.435504 0.845368 0.300764 -0.155550
C33   C     C_2   0.305741 0.314649 0.639813 -0.132534
Cr1   Cr    Cr6+3 0.608020 0.610770 0.522990 1.008447
Cr2   Cr    Cr6+3 0.289390 0.599570 0.488050 1.022090
Cr3   Cr    Cr6+3 0.602610 0.289690 0.489020 1.010658
Cr4   Cr    Cr6+3 0.053780 0.052210 0.965970 1.012034
Cr5   Cr    Cr6+3 0.060060 0.372530 0.992430 1.023564
Cr6   Cr    Cr6+3 0.372600 0.061970 0.991430 1.021576
H1    H     H_    0.969132 0.082422 0.178126 0.153778
H2    H     H_    0.148757 0.174805 0.420415 0.142098
H3    H     H_    0.438912 0.960576 0.208433 0.126399
H4    H     H_    0.541852 0.809119 0.333190 0.154970
H5    H     H_    0.250438 0.694560 0.127258 0.270006
H6    H     H_    0.436740 0.481186 0.177185 0.155712
H7    H     H_    0.539695 0.570946 0.220747 0.157981
H8    H     H_    0.512243 0.536970 0.111965 0.159546
H9    H     H_    0.220441 0.891084 0.299114 0.131524
H10   H     H_    0.485973 0.936611 0.736014 0.255752
H11   H     H_    0.694755 0.924557 0.820145 0.145988
H12   H     H_    0.863084 0.408980 0.209712 0.142264
H13   H     H_    0.608598 0.117869 0.832521 0.188969
H14   H     H_    0.657264 0.020981 0.734309 0.132371
H15   H     H_    0.444560 0.092770 0.625697 0.154804
H16   H     H_    0.174012 0.349651 0.769917 0.064717
H17   H     H_    0.227358 0.407692 0.673418 0.104798
H18   H     H_    0.798723 0.171417 0.289550 0.130504
H19   H     H_    0.980835 0.437684 0.390975 0.269380
H20   H     H_    0.170590 0.149947 0.313439 0.156356
H21   H     H_    0.218973 0.270148 0.381468 0.180198
N1    N     N_2   0.997229 0.345723 0.353295 -0.527942
N2    N     N_2   0.331286 0.702428 0.166873 -0.521553
N3    N     N_2   0.478170 0.025940 0.773566 -0.476930
O1    O     O_R   0.749250 0.499990 0.439200 -0.519666
O2    O     O_R   0.411120 0.181190 0.091480 -0.502934
O3    O     O_R   0.364220 0.944920 0.062310 -0.523228
O4    O     O_R   0.477870 0.725740 0.440280 -0.494597
O5    O     O_R   0.158740 0.906940 0.874970 -0.509106
O6    O     O_R   0.930920 0.176940 0.885610 -0.478934
O7    O     O_R   0.910730 0.394510 0.895320 -0.498113
O8    O     O_R   0.185840 0.361180 0.920280 -0.507053
O9    O     O_R   0.399210 0.173040 0.915160 -0.463890
O10   O     O_R   0.353170 0.937370 0.898860 -0.495341
O11   O     O_3   0.162150 0.162240 0.983280 -0.330167
O12   O     O_R   0.299400 0.468710 0.556310 -0.507563
O13   O     O_R   0.260770 0.742210 0.412610 -0.506640
O14   O     O_R   0.297990 0.466320 0.394220 -0.496426
O15   O     O_R   0.487720 0.253870 0.385870 -0.523182
O16   O     O_R   0.721940 0.304340 0.422320 -0.521669
O17   O     O_R   0.750770 0.502570 0.614050 -0.511867
O18   O     O_R   0.479280 0.728140 0.602370 -0.501650
O19   O     O_R   0.262290 0.744790 0.587460 -0.502360
O20   O     O_R   0.489240 0.256450 0.560730 -0.508043
O21   O     O_R   0.723350 0.306730 0.584410 -0.492916
O22   O     O_3   0.500010 0.500010 0.500020 -0.275580
O23   O     O_R   0.170650 0.915100 0.051290 -0.524240
O24   O     O_R   0.941960 0.184500 0.049060 -0.479681
O25   O     O_R   0.922640 0.402670 0.071640 -0.503864
O26   O     O_R   0.196880 0.368740 0.083740 -0.491806

loop_
_geom_bond_atom_site_label_1
_geom_bond_atom_site_label_2
_ccdc_geom_bond_type
Cr4   O11   S    
Cr5   O7    S    
C24   N1    S    
H10   N3    S    
C31   H3    S    
Cr4   O6    S    
C14   O7    A    
C28   H18   S    
C15   O9    A    
C12   C23   D    
C10   O25   A    
Cr3   O21   S    
C29   C32   D    
C2    H16   S    
C30   C31   D    
Cr3   O20   S    
C23   H1    S    
Cr4   O5    S    
C18   O18   A    
Cr6   O11   S    
C26   H6    S    
Cr1   O17   S    
C7    C14   S    
C8    C9    T    
C5    C33   D    
C13   O23   A    
Cr6   O9    S    
Cr1   O18   S    
C27   H11   S    
H19   N1    S    
C16   C24   S    
C21   C22   T    
C17   O10   A    
Cr6   O2    S    
C19   O20   A    
C18   O19   A    
Cr1   O1    S    
Cr2   O19   S    
C13   O3    A    
Cr2   O13   S    
C10   O24   A    
C20   O17   A    
C29   H9    S    
C5    H15   S    
C19   C33   S    
C25   H2    S    
Cr4   O23   S    
H5    N2    S    
Cr2   O14   S    
C8    C18   S    
Cr5   O25   S    
Cr1   O22   S    
C4    O15   A    
C16   O1    A    
C11   O26   A    
C31   C32   S    
Cr5   O26   S    
Cr2   O12   S    
C1    C29   S    
C25   N1    S    
C23   C28   S    
C2    C15   S    
C10   C12   S    
C26   H8    S    
C9    C17   S    
C25   H21   S    
C30   N2    S    
Cr6   O3    S    
C12   H12   S    
C15   O8    A    
C27   H13   S    
Cr5   O11   S    
Cr5   O8    S    
C17   O5    A    
C1    O13   A    
Cr4   O24   S    
C24   C28   D    
C3    C5    S    
Cr3   O16   S    
Cr1   O4    S    
C27   H14   S    
C6    C7    T    
C1    O4    A    
C3    N3    S    
Cr3   O22   S    
C6    C20   S    
C11   C22   S    
C16   O16   A    
C20   O21   A    
C2    C3    D    
C26   N2    S    
C4    O14   A    
Cr3   O15   S    
C4    C21   S    
Cr2   O22   S    
C33   H17   S    
C19   O12   A    
C14   O6    A    
C32   H4    S    
Cr6   O10   S    
C26   H7    S    
C13   C30   S    
C27   N3    S    
C25   H20   S    
C11   O2    A    
