data_mof_unit_57193.cif
_audit_creation_date              2012-12-10T16:50:16-0500
_audit_creation_method            fapswitch 2.2
_symmetry_space_group_name_H-M    P1
_symmetry_Int_Tables_number       1
_space_group_crystal_system       triclinic
_cell_length_a                    23.499367
_cell_length_b                    8.68029
_cell_length_c                    7.435688
_cell_angle_alpha                 102.952414
_cell_angle_beta                  94.371853
_cell_angle_gamma                 92.369286
_cell_volume                      1471.1828474

loop_
_atom_site_label
_atom_site_type_symbol
_atom_type_description
_atom_site_fract_x
_atom_site_fract_y
_atom_site_fract_z
_atom_type_partial_charge
C1    C     C_R   0.498279 0.199649 0.453217 0.879069
C2    C     C_R   0.501721 0.800351 0.546783 0.879061
C3    C     C_R   0.232869 0.477966 0.347455 0.607768
C4    C     C_R   0.767130 0.521988 0.652538 0.607770
C5    C     C_R   0.291965 0.478683 0.341147 0.520211
C6    C     C_R   0.708034 0.521272 0.658847 0.520218
C7    C     C_R   0.328175 0.498528 0.506195 -0.273145
C8    C     C_R   0.671825 0.501467 0.493804 -0.273146
C9    C     C_R   0.303768 0.517403 0.676261 -0.248175
C10   C     C_R   0.696232 0.482629 0.323742 -0.248181
C11   C     C_R   0.244569 0.516818 0.681627 -0.117804
C12   C     C_R   0.755431 0.483212 0.318376 -0.117816
C13   C     C_R   0.209097 0.496943 0.517310 0.103286
C14   C     C_R   0.790903 0.503048 0.482688 0.103289
C15   C     C_2   0.497453 0.031783 0.426810 -0.340208
C16   C     C_2   0.502547 0.968217 0.573189 -0.340205
C17   C     C_R   0.390865 0.499439 0.501977 0.875779
C18   C     C_R   0.609134 0.500560 0.498023 0.875780
C19   C     C_R   0.883546 0.643029 0.528216 0.694844
C20   C     C_R   0.116453 0.356963 0.471782 0.694869
C21   C     C_R   0.876440 0.360492 0.433002 0.643228
C22   C     C_R   0.123559 0.639500 0.566995 0.643198
C23   C     C_R   0.936312 0.355884 0.440220 -0.135458
C24   C     C_R   0.063687 0.644108 0.559778 -0.135455
C25   C     C_R   0.969879 0.500158 0.494409 -0.090841
C26   C     C_R   0.030120 0.499834 0.505589 -0.090842
C27   C     C_R   0.943340 0.644892 0.537837 -0.094847
C28   C     C_R   0.056660 0.355100 0.462161 -0.094853
C29   C     C_R   0.963547 0.212070 0.397173 0.641105
C30   C     C_R   0.036452 0.787922 0.602824 0.641106
C31   C     C_R   0.023027 0.212310 0.408343 -0.162946
C32   C     C_R   0.976973 0.787682 0.591655 -0.162949
Cu1   Cu    Cu3+1 0.506340 0.517380 0.684380 1.006431
Cu2   Cu    Cu3+1 0.493660 0.482620 0.315620 1.006432
H1    H     H_    0.042618 0.099850 0.373934 0.233357
H2    H     H_    0.957381 0.900143 0.626065 0.233358
H3    H     H_    0.330365 0.532878 0.805275 0.243074
H4    H     H_    0.669636 0.467185 0.194732 0.243094
H5    H     H_    0.226219 0.531714 0.813253 0.241256
H6    H     H_    0.773782 0.468346 0.186753 0.241279
H7    H     H_    0.492653 0.960166 0.285739 0.183058
H8    H     H_    0.507347 0.039833 0.714261 0.183060
H9    H     H_    0.454901 0.379161 0.948562 0.240176
H10   H     H_    0.545099 0.620839 0.051437 0.240170
N1    N     N_R   0.851650 0.502353 0.477950 -0.453286
N2    N     N_R   0.148350 0.497639 0.522047 -0.453288
N3    N     N_2   0.484110 0.456420 0.038520 -0.207248
N4    N     N_2   0.515890 0.543580 0.961480 -0.207249
O1    O     O_R   0.504120 0.286130 0.619770 -0.589358
O2    O     O_R   0.495880 0.713870 0.380230 -0.589362
O3    O     O_R   0.493410 0.256770 0.308360 -0.583992
O4    O     O_R   0.506590 0.743230 0.691640 -0.583996
O5    O     O_R   0.423230 0.514630 0.655730 -0.602074
O6    O     O_R   0.576770 0.485370 0.344270 -0.602075
O7    O     O_R   0.412530 0.485280 0.344320 -0.514230
O8    O     O_R   0.587470 0.514720 0.655680 -0.514228
O9    O     O_2   0.857350 0.780458 0.569704 -0.450810
O10   O     O_2   0.142649 0.219533 0.430296 -0.450799
O11   O     O_2   0.843097 0.224882 0.384017 -0.412336
O12   O     O_2   0.156902 0.775111 0.615978 -0.412340
F1    F     F_    0.933145 0.070487 0.343961 -0.597522
F2    F     F_    0.066854 0.929505 0.656037 -0.597519
F3    F     F_    0.198460 0.459804 0.188066 -0.611697
F4    F     F_    0.801539 0.540113 0.811923 -0.611714
F5    F     F_    0.313303 0.459965 0.173448 -0.626656
F6    F     F_    0.686696 0.539950 0.826541 -0.626673

loop_
_geom_bond_atom_site_label_1
_geom_bond_atom_site_label_2
_ccdc_geom_bond_type
C12   H6    S    
C11   H5    S    
C19   N1    A    
C21   O11   S    
C1    C15   S    
C3    F3    S    
C11   C13   A    
C25   C27   A    
Cu1   O5    S    
C2    C16   S    
C4    F4    S    
C26   C28   A    
N3    N4    D    
C3    C13   A    
C18   O8    A    
C10   H4    S    
C7    C9    A    
Cu2   N3    S    
Cu1   O8    S    
C23   C25   A    
Cu1   Cu2   S    
C27   C32   A    
C17   O5    A    
Cu2   O7    S    
C29   C31   A    
C4    C14   A    
C19   O9    S    
Cu1   O4    S    
C30   C32   A    
C9    C11   A    
Cu2   O3    S    
C2    O4    A    
C21   N1    A    
C32   H2    S    
C31   H1    S    
C4    C6    A    
C22   N2    A    
C24   C26   A    
Cu2   O6    S    
C14   N1    S    
C10   C12   A    
C30   F2    S    
C21   C23   A    
C22   O12   S    
C13   N2    S    
C22   C24   A    
Cu2   O2    S    
C24   C30   A    
C28   C31   A    
C29   F1    S    
C18   O6    A    
Cu1   O1    S    
C15   C16   D    
C20   C28   A    
C23   C29   A    
C6    F6    S    
C19   C27   A    
C15   H7    S    
C5    F5    S    
C9    H3    S    
C5    C7    A    
Cu1   N4    S    
C17   O7    A    
C6    C8    A    
C1    O3    A    
C2    O2    A    
C3    C5    A    
C25   C26   A    
C16   H8    S    
C20   O10   S    
C8    C10   A    
C8    C18   S    
H10   N4    S    
C12   C14   A    
H9    N3    S    
C7    C17   S    
C20   N2    A    
C1    O1    A    
