data_mof_unit_29417.cif
_audit_creation_date              2012-12-11T20:46:22-0500
_audit_creation_method            fapswitch 2.2
_symmetry_space_group_name_H-M    P1
_symmetry_Int_Tables_number       1
_space_group_crystal_system       triclinic
_cell_length_a                    8.336644
_cell_length_b                    18.789413
_cell_length_c                    18.890744
_cell_angle_alpha                 100.674514
_cell_angle_beta                  94.347665
_cell_angle_gamma                 90.564782
_cell_volume                      2898.62256116

loop_
_atom_site_label
_atom_site_type_symbol
_atom_type_description
_atom_site_fract_x
_atom_site_fract_y
_atom_site_fract_z
_atom_type_partial_charge
Ba1   Ba    Ba6+2 0.153490 0.533960 0.468530 1.764667
Ba2   Ba    Ba6+2 0.656680 0.466030 0.531410 1.703606
C1    C     C_3   0.468678 0.767158 0.242935 -0.278616
C2    C     C_R   0.076454 0.907865 0.582446 -0.128616
C3    C     C_R   0.213755 0.050943 0.572182 -0.099513
C4    C     C_3   0.925988 0.723493 0.301023 0.277500
C5    C     C_R   0.059263 0.026184 0.540518 0.055337
C6    C     C_R   0.271903 0.120560 0.571083 -0.082023
C7    C     C_R   0.178284 0.169608 0.539402 0.006325
C8    C     C_R   0.026097 0.145508 0.503986 0.000185
C9    C     C_R   0.968005 0.073278 0.503187 -0.006773
C10   C     C_R   0.232110 0.241900 0.541495 -0.010375
C11   C     C_R   0.129497 0.290136 0.513154 -0.281982
C12   C     C_3   0.426085 0.713940 0.291752 0.251871
C13   C     C_R   0.981718 0.267157 0.475630 0.073065
C14   C     C_R   0.932962 0.193155 0.468162 -0.106405
C15   C     C_R   0.843568 0.932045 0.506580 0.032924
C16   C     C_3   0.973364 0.790780 0.271735 -0.223065
C17   C     C_R   0.780117 0.860741 0.507116 0.021811
C18   C     C_R   0.877128 0.810952 0.538698 -0.032380
C19   C     C_R   0.021013 0.836983 0.578569 -0.049647
C20   C     C_R   0.798323 0.164287 0.422990 -0.038505
C21   C     C_R   0.746869 0.092455 0.417718 0.397469
C22   C     C_R   0.819493 0.048574 0.464511 -0.058207
C23   C     C_3   0.509747 0.695537 0.728401 0.248001
C24   C     C_R   0.752332 0.980237 0.471435 -0.010329
C25   C     C_R   0.589597 0.962320 0.451424 -0.029363
C26   C     C_R   0.619245 0.840166 0.477873 -0.116428
C27   C     C_R   0.521662 0.895175 0.455836 -0.091481
C28   C     C_3   0.863753 0.357484 0.296165 0.293409
C29   C     C_R   0.565712 0.766423 0.473725 -0.022288
C30   C     C_R   0.670403 0.718064 0.500269 -0.196095
C31   C     C_R   0.824518 0.737642 0.532003 -0.012087
C32   C     C_2   0.612581 0.513170 0.295844 -0.257662
C33   C     C_3   0.683018 0.567050 0.255981 -0.055633
C34   C     C_3   0.435046 0.765640 0.767077 0.310845
C35   C     C_2   0.646467 0.544736 0.175239 -0.154709
C36   C     C_2   0.517574 0.500509 0.148471 -0.054237
C37   C     C_2   0.424700 0.468157 0.200463 -0.079539
C38   C     C_1   0.475948 0.476978 0.269959 0.020107
C39   C     C_R   0.361816 0.470224 0.926620 0.454228
C40   C     C_3   0.928266 0.321780 0.224746 -0.230949
C41   C     C_R   0.464318 0.487602 0.069717 0.471763
C42   C     C_R   0.401219 0.491868 0.801627 -0.141549
C43   C     C_R   0.347842 0.489132 0.728963 0.039113
C44   C     C_R   0.097900 0.432104 0.748708 0.009571
C45   C     C_3   0.903383 0.267257 0.674308 0.372874
C46   C     C_R   0.151119 0.434110 0.821483 -0.141475
C47   C     C_R   0.305008 0.463577 0.848715 -0.068701
C48   C     C_R   0.199355 0.456721 0.702313 -0.271075
C49   C     C_3   0.015220 0.615496 0.685500 0.349455
C50   C     C_3   0.056068 0.629806 0.767280 -0.271079
C51   C     C_3   0.440416 0.300535 0.318041 0.159419
C52   C     C_3   0.451938 0.250358 0.244055 -0.212447
C53   C     C_2   0.341731 0.649010 0.245361 0.561970
C54   C     C_2   0.915976 0.370590 0.170255 0.536543
C55   C     C_2   0.410654 0.257138 0.375178 0.566807
C56   C     C_3   0.882216 0.192725 0.693367 -0.360258
C57   C     C_2   0.443735 0.290832 0.182702 0.442876
C58   C     C_2   0.656471 0.681223 0.774945 0.311550
C59   C     C_2   0.550992 0.707380 0.655656 0.531138
C60   C     C_3   0.218727 0.841153 0.766957 0.184460
C61   C     C_2   0.541206 0.836563 0.285496 0.688687
C62   C     C_2   0.344973 0.890949 0.447466 0.528966
C63   C     C_3   0.707756 0.037553 0.300368 0.287477
C64   C     C_2   0.681207 0.513008 0.369332 0.566606
C65   C     C_2   0.898753 0.788571 0.196535 0.473464
C66   C     C_3   0.433337 0.304731 0.716035 0.344435
C67   C     C_3   0.457045 0.276603 0.786470 -0.343075
C68   C     C_R   0.995937 0.955395 0.542720 0.032005
H1    H     H_    0.054654 0.305812 0.234326 0.112432
H2    H     H_    0.350442 0.209997 0.233253 0.099313
H3    H     H_    0.566184 0.220297 0.245154 0.117316
H4    H     H_    0.539720 0.696218 0.317057 -0.108314
H5    H     H_    0.556872 0.742005 0.205132 0.022879
H6    H     H_    0.413658 0.758977 0.823134 0.014369
H7    H     H_    0.521036 0.812265 0.770374 -0.000288
H8    H     H_    0.936149 0.840076 0.308497 0.097912
H9    H     H_    0.845281 0.266326 0.619217 0.072135
H10   H     H_    0.034515 0.278516 0.674637 -0.082905
H11   H     H_    0.752517 0.177935 0.691244 0.150161
H12   H     H_    0.856182 0.271637 0.201921 0.119517
H13   H     H_    0.941091 0.151593 0.654471 0.065449
H14   H     H_    0.938240 0.192581 0.748581 0.117221
H15   H     H_    0.302200 0.309920 0.703552 -0.062685
H16   H     H_    0.495349 0.358361 0.723288 0.084544
H17   H     H_    0.403939 0.314355 0.830371 0.083369
H18   H     H_    0.587350 0.271905 0.801519 0.154608
H19   H     H_    0.979300 0.729134 0.357612 0.087651
H20   H     H_    0.397001 0.222533 0.780325 0.109173
H21   H     H_    0.169637 0.345696 0.516651 0.070526
H22   H     H_    0.391246 0.135327 0.596102 0.103824
H23   H     H_    0.120656 0.593150 0.657794 0.034980
H24   H     H_    0.092383 0.803180 0.608337 0.142930
H25   H     H_    0.734793 0.195670 0.388028 0.132890
H26   H     H_    0.625428 0.664725 0.501586 0.148487
H27   H     H_    0.295054 0.017192 0.597392 0.052121
H28   H     H_    0.186034 0.923174 0.616081 0.060435
H29   H     H_    0.793302 0.721016 0.300851 -0.103562
H30   H     H_    0.508206 0.003513 0.439031 0.176475
H31   H     H_    0.714231 0.571026 0.140034 0.105473
H32   H     H_    0.309888 0.441183 0.181871 0.140800
H33   H     H_    0.513843 0.520014 0.822172 0.105134
H34   H     H_    0.915520 0.574593 0.672319 0.036162
H35   H     H_    0.071055 0.414980 0.856814 0.110086
H36   H     H_    0.156104 0.457637 0.647021 0.046637
H37   H     H_    0.105459 0.794381 0.270271 0.139797
H38   H     H_    0.745543 0.379870 0.283102 -0.135803
H39   H     H_    0.945057 0.401556 0.324463 0.078414
H40   H     H_    0.334885 0.641491 0.186783 -0.066023
H41   H     H_    0.802582 0.395448 0.158407 0.040627
H42   H     H_    0.385949 0.286349 0.427776 -0.008138
H43   H     H_    0.332731 0.316183 0.168568 0.061483
H44   H     H_    0.662855 0.632309 0.797691 0.034040
H45   H     H_    0.103717 0.685920 0.786895 0.187226
H46   H     H_    0.667647 0.729996 0.649445 -0.110360
H47   H     H_    0.295134 0.890104 0.767296 0.012748
H48   H     H_    0.196609 0.835653 0.823078 0.045884
H49   H     H_    0.100266 0.848775 0.738856 0.078409
H50   H     H_    0.647866 0.835984 0.321849 -0.080127
H51   H     H_    0.281731 0.873522 0.488700 0.007476
H52   H     H_    0.782356 0.990359 0.308140 0.056841
H53   H     H_    0.782475 0.080026 0.283516 -0.005087
H54   H     H_    0.614607 0.018676 0.255550 0.133211
H55   H     H_    0.734815 0.465507 0.383726 -0.020024
H56   H     H_    0.147418 0.592184 0.782557 0.038462
H57   H     H_    0.918742 0.742842 0.154048 0.039644
H58   H     H_    0.948895 0.620721 0.795832 0.105929
H59   H     H_    0.553930 0.331520 0.333810 0.018746
H60   H     H_    0.359182 0.779001 0.209988 0.102398
N1    N     N_R   0.504385 0.504501 0.952558 -0.241472
N2    N     N_R   0.554308 0.513084 0.022364 -0.241126
N3    N     N_R   0.322337 0.452552 0.043816 -0.196663
N4    N     N_R   0.272101 0.444085 0.973823 -0.221293
O1    O     O_2   0.117290 0.676350 0.548250 -0.400920
O2    O     O_2   0.768872 0.457614 0.751350 -0.494784
O3    O     O_3   0.830829 0.318966 0.724851 -0.586073
O4    O     O_3   0.869060 0.586940 0.542720 -0.475138
O5    O     O_3   0.438990 0.460930 0.412890 -0.472770
O6    O     O_2   0.623700 0.539890 0.674570 -0.501171
O7    O     O_3   0.391366 0.640220 0.721915 -0.658481
O8    O     O_2   0.564075 0.242662 0.527567 -0.476173
O9    O     O_3   0.501406 0.256380 0.661477 -0.604645
O10   O     O_3   0.356990 0.628630 0.417250 -0.382929
O11   O     O_2   0.226293 0.751207 0.469859 -0.482654
O12   O     O_3   0.309026 0.345728 0.315211 -0.679276
O13   O     O_3   0.971072 0.680386 0.663258 -0.600414
O14   O     O_3   0.321972 0.747025 0.342978 -0.603605
O15   O     O_2   0.186600 0.460070 0.325400 -0.422389
O16   O     O_3   0.942970 0.591450 0.378940 -0.460923
O17   O     O_2   0.999932 0.520961 0.247192 -0.439175
O18   O     O_2   0.282058 0.602878 0.273258 -0.521598
O19   O     O_2   0.032220 0.381903 0.138060 -0.564735
O20   O     O_2   0.409204 0.190962 0.363611 -0.576984
O21   O     O_2   0.558394 0.293208 0.146704 -0.603104
O22   O     O_2   0.766297 0.726294 0.790305 -0.607974
O23   O     O_3   0.983700 0.661167 0.258168 -0.580442
O24   O     O_2   0.448619 0.697287 0.604929 -0.560754
O25   O     O_3   0.288087 0.778486 0.729471 -0.609738
O26   O     O_2   0.481400 0.894229 0.279020 -0.532526
O27   O     O_2   0.269445 0.911625 0.397431 -0.537620
O28   O     O_3   0.630371 0.065162 0.363204 -0.615371
O29   O     O_2   0.665294 0.565455 0.416204 -0.582000
O30   O     O_2   0.817195 0.838420 0.182343 -0.573241
O31   O     O_2   0.693010 0.323600 0.451730 -0.491617
O32   O     O_3   0.941240 0.413050 0.457220 -0.505877
O33   O     O_3   0.453310 0.371360 0.582690 -0.490037
O34   O     O_3   0.842037 0.303685 0.337058 -0.657035
O35   O     O_3   0.371310 0.539060 0.587050 -0.421826
O36   O     O_3   0.867330 0.408540 0.621000 -0.487023
P1    P     P_3+3 0.945300 0.665790 0.568510 1.039694
P2    P     P_3+3 0.360080 0.438780 0.334620 1.007149
P3    P     P_3+3 0.902955 0.584767 0.284660 1.011742
P4    P     P_3+3 0.865000 0.334200 0.431430 0.954904
P5    P     P_3+3 0.890526 0.405153 0.712959 0.953237
P6    P     P_3+3 0.371133 0.723561 0.427567 1.051338
P7    P     P_3+3 0.438157 0.551869 0.678763 0.967987
P8    P     P_3+3 0.436817 0.277523 0.577756 0.948533

loop_
_geom_bond_atom_site_label_1
_geom_bond_atom_site_label_2
_ccdc_geom_bond_type
C42   C47   A    
C10   P8    S    
O17   P3    D    
C2    H28   S    
C25   C27   A    
C1    H60   S    
C66   H16   S    
C20   H25   S    
C58   H44   S    
C17   C18   A    
C40   H12   S    
C45   H9    S    
C32   C64   S    
C5    C68   A    
C2    C68   A    
C50   H58   S    
C53   O18   D    
C51   C52   S    
O34   P4    S    
C24   C25   A    
O14   P6    S    
C32   C38   D    
Ba2   O5    S    
C12   H4    S    
C26   C27   A    
C33   C35   S    
C22   C24   A    
O3    P5    S    
O12   P2    S    
C34   H7    S    
C27   C62   S    
C36   C37   S    
C32   C33   S    
O9    P8    S    
C55   H42   S    
C19   H24   S    
C62   H51   S    
O15   P2    D    
C12   O14   S    
C9    C22   A    
Ba1   O32   S    
C66   O9    S    
Ba1   Ba2   S    
C63   H54   S    
O35   P7    S    
C41   N3    A    
C16   H37   S    
C40   H1    S    
C60   H47   S    
C61   H50   S    
C34   H6    S    
C34   O25   S    
C40   C54   S    
C65   O30   D    
C46   H35   S    
C6    C7    A    
O31   P4    D    
C63   O28   S    
C21   C22   A    
Ba1   O15   S    
C6    H22   S    
C23   C58   S    
O1    P1    D    
C1    H5    S    
C7    C8    A    
Ba2   O32   S    
C54   H41   S    
C67   H17   S    
C16   H8    S    
C52   C57   S    
C21   O28   S    
C12   C53   S    
O2    P5    D    
C15   C68   A    
C11   H21   S    
C66   H15   S    
O10   P6    S    
C45   H10   S    
C39   C47   S    
C39   N4    A    
C42   H33   S    
O13   P1    S    
O36   P5    S    
C4    C16   S    
C44   C46   A    
C25   H30   S    
O32   P4    S    
C13   C14   A    
C28   H39   S    
C49   C50   S    
C33   P3    S    
Ba1   O16   S    
C56   H11   S    
C37   C38   D    
C3    C5    A    
C57   O21   D    
C66   C67   S    
C23   C34   S    
C16   C65   S    
Ba1   P1    S    
Ba2   O4    S    
C5    C9    A    
C58   O22   D    
C35   C36   D    
C56   H14   S    
C52   H3    S    
C29   C30   A    
O11   P6    D    
C49   O13   S    
C57   H43   S    
C45   O3    S    
C59   H46   S    
O6    P7    D    
O5    P2    S    
C23   C59   S    
C63   H52   S    
C10   C11   A    
C17   C26   A    
C67   H18   S    
Ba2   O31   S    
C60   H49   S    
C1    C12   S    
Ba2   O36   S    
C18   C31   A    
C46   C47   A    
C30   H26   S    
C3    H27   S    
C11   C13   A    
C53   H40   S    
N3    N4    A    
O7    P7    S    
C51   H59   S    
C15   C24   A    
C29   P6    S    
C31   P1    S    
C65   H57   S    
C38   P2    S    
C4    O23   S    
C42   C43   A    
C37   H32   S    
C39   N1    A    
C50   H45   S    
C41   N2    A    
C14   C20   A    
C13   P4    S    
C28   H38   S    
O4    P1    S    
C60   O25   S    
C26   C29   A    
C23   O7    S    
C54   O19   D    
Ba1   O5    S    
C3    C6    A    
C1    C61   S    
C4    H19   S    
C55   O20   D    
C44   C48   A    
Ba1   P2    S    
C61   O26   D    
C49   H23   S    
C64   H55   S    
Ba2   O6    S    
C30   C31   A    
C49   H34   S    
C28   O34   S    
C36   C41   S    
Ba1   O10   S    
C8    C14   A    
C56   H13   S    
C4    H29   S    
C45   C56   S    
C35   H31   S    
C2    C19   A    
C50   H56   S    
C62   O27   D    
O8    P8    D    
C43   C48   A    
Ba1   O35   S    
C51   O12   S    
C15   C17   A    
C51   C55   S    
C64   O29   D    
C63   H53   S    
N1    N2    A    
C7    C10   A    
C60   H48   S    
C8    C9    A    
Ba2   O35   S    
C44   P5    S    
O33   P8    S    
C52   H2    S    
C18   C19   A    
C43   P7    S    
O16   P3    S    
Ba1   O1    S    
C48   H36   S    
C20   C21   A    
C28   C40   S    
C59   O24   D    
Ba2   O33   S    
Ba2   P4    S    
Ba1   O4    S    
C67   H20   S    
O23   P3    S    
