data_mof_unit_35276.cif
_audit_creation_date              2013-03-05T15:45:15-0500
_audit_creation_method            fapswitch 2.2
_symmetry_space_group_name_H-M    P1
_symmetry_Int_Tables_number       1
_space_group_crystal_system       triclinic
_cell_length_a                    16.839849
_cell_length_b                    7.006802
_cell_length_c                    17.146743
_cell_angle_alpha                 90.000073
_cell_angle_beta                  100.889048
_cell_angle_gamma                 89.999919
_cell_volume                      1986.77589669

loop_
_atom_site_label
_atom_site_type_symbol
_atom_site_description
_atom_site_fract_x
_atom_site_fract_y
_atom_site_fract_z
_atom_type_partial_charge
O1    O     O_R   0.579510 0.506290 0.439030 -0.578451
O2    O     O_R   0.420490 0.006290 0.560970 -0.578454
O3    O     O_R   0.412540 0.170090 0.405290 -0.560865
O4    O     O_R   0.587460 0.670090 0.594710 -0.560860
C1    C     C_R   0.383833 0.345977 0.383155 0.925321
C2    C     C_R   0.616165 0.845978 0.616847 0.925310
O5    O     O_R   0.578390 0.176230 0.429330 -0.561306
O6    O     O_R   0.421610 0.676230 0.570670 -0.561314
O7    O     O_R   0.587530 0.011250 0.585190 -0.613606
O8    O     O_R   0.412470 0.511250 0.414810 -0.613602
C3    C     C_R   0.602256 0.346045 0.410947 1.070112
C4    C     C_R   0.397744 0.846046 0.589053 1.070138
O9    O     O_3   0.502800 0.340940 0.551110 -0.261234
O10   O     O_3   0.497200 0.840940 0.448890 -0.261223
V1    V     V_3+5 0.499480 0.064020 0.490520 1.266026
V2    V     V_3+5 0.500520 0.564020 0.509480 1.266024
C5    C     C_R   0.169673 0.900724 0.864232 -0.201821
C6    C     C_R   0.830325 0.400728 0.135765 -0.201791
C7    C     C_R   0.333740 0.861654 0.638823 -0.457875
C8    C     C_R   0.666259 0.361655 0.361176 -0.457869
C9    C     C_R   0.215098 0.029928 0.664698 -0.244048
C10   C     C_R   0.784890 0.529957 0.335293 -0.244041
C11   C     C_R   0.267483 0.984517 0.613499 0.370820
C12   C     C_R   0.732511 0.484537 0.386494 0.370841
C13   C     C_R   0.342780 0.776340 0.715188 0.290647
C14   C     C_R   0.657223 0.276325 0.284814 0.290667
C15   C     C_R   0.283148 0.807821 0.764048 -0.056681
C16   C     C_R   0.716850 0.307817 0.235950 -0.056711
C17   C     C_R   0.220912 0.944205 0.739684 0.028161
C18   C     C_R   0.779080 0.444220 0.260310 0.028171
C19   C     C_R   0.162961 0.987341 0.788319 0.207415
C20   C     C_R   0.837030 0.487361 0.211675 0.207395
C21   C     C_R   0.233754 0.769859 0.889429 0.175617
C22   C     C_R   0.766245 0.269856 0.110570 0.175660
C23   C     C_R   0.283516 0.707359 0.836309 0.230206
C24   C     C_R   0.716484 0.207351 0.163690 0.230234
H1    H     H_    0.167694 0.131027 0.643212 0.198119
H2    H     H_    0.832289 0.631074 0.356775 0.198117
C25   C     C_3   0.826630 0.727075 0.755865 0.248789
C26   C     C_3   0.173372 0.227067 0.244131 0.248816
H3    H     H_    0.832679 0.599280 0.794706 0.129235
H4    H     H_    0.167325 0.099278 0.205288 0.129288
C27   C     C_3   0.748364 0.696623 0.690893 -0.485270
C28   C     C_3   0.251636 0.196617 0.309105 -0.485278
H5    H     H_    0.717424 0.563490 0.704189 0.183825
H6    H     H_    0.282579 0.063490 0.295807 0.183795
H7    H     H_    0.763127 0.674732 0.632048 0.278068
H8    H     H_    0.236872 0.174718 0.367949 0.278079
C29   C     C_3   0.804863 0.092739 0.752940 0.024417
C30   C     C_3   0.195126 0.592729 0.247067 0.024435
C31   C     C_3   0.734324 0.884998 0.838679 0.105512
C32   C     C_3   0.265680 0.385048 0.161326 0.105480
C33   C     C_3   0.816366 0.908771 0.807787 -0.287384
C34   C     C_3   0.183634 0.408773 0.192213 -0.287381
H9    H     H_    0.728352 0.014184 0.874941 0.106536
H10   H     H_    0.271652 0.514275 0.125085 0.106556
C35   C     C_3   0.688952 0.868279 0.686259 -0.090209
C36   C     C_3   0.311045 0.368279 0.313744 -0.090245
C37   C     C_3   0.738960 0.055021 0.676091 0.043312
C38   C     C_3   0.261035 0.555016 0.323913 0.043315
C39   C     C_3   0.659741 0.876283 0.767818 -0.080770
C40   C     C_3   0.340259 0.376291 0.232187 -0.080710
H11   H     H_    0.624693 0.743427 0.772422 0.234834
H12   H     H_    0.375295 0.243418 0.227576 0.234804
H13   H     H_    0.779574 0.205597 0.787029 0.149167
H14   H     H_    0.220406 0.705610 0.212982 0.149142
H15   H     H_    0.697615 0.180127 0.669661 0.161152
H16   H     H_    0.302378 0.680124 0.330341 0.161141
O11   O     O_R   0.087500 0.266000 0.085220 -0.564535
O12   O     O_R   0.912500 0.766000 0.914780 -0.564479
O13   O     O_R   0.921600 0.589950 0.070670 -0.593288
O14   O     O_R   0.078400 0.089950 0.929330 -0.593381
C41   C     C_R   0.894825 0.420550 0.086183 1.048652
C42   C     C_R   0.105174 0.920550 0.913816 1.048542
O15   O     O_R   0.087460 0.596020 0.094710 -0.620110
O16   O     O_R   0.912540 0.096020 0.905290 -0.620120
O17   O     O_R   0.079520 0.760970 0.939020 -0.581929
O18   O     O_R   0.920480 0.260970 0.060980 -0.581927
C43   C     C_R   0.114342 0.426091 0.119586 1.008521
C44   C     C_R   0.885659 0.926091 0.880413 1.008702
O19   O     O_3   0.997180 0.425140 0.948910 -0.277944
O20   O     O_3   0.002820 0.925140 0.051090 -0.277907
V3    V     V_3+5 0.000520 0.702080 0.009480 1.222856
V4    V     V_3+5 0.999480 0.202080 0.990520 1.222806
C45   C     C_3   0.093383 0.120690 0.756600 -0.853116
H17   H     H_    0.048076 0.132907 0.794431 0.249219
H18   H     H_    0.116861 0.266329 0.749079 0.247257
H19   H     H_    0.059991 0.066585 0.698777 0.261031
C46   C     C_3   0.906598 0.620741 0.243388 -0.853170
H20   H     H_    0.951906 0.632946 0.205561 0.249207
H21   H     H_    0.883112 0.766376 0.250894 0.247281
H22   H     H_    0.939990 0.566674 0.301216 0.261008
C47   C     C_3   0.882305 0.187438 0.734862 -0.838560
H23   H     H_    0.917774 0.088436 0.704847 0.279374
H24   H     H_    0.865816 0.313654 0.696301 0.267404
H25   H     H_    0.920935 0.247653 0.788239 0.259207
C48   C     C_3   0.117678 0.687390 0.265148 -0.838562
H26   H     H_    0.082216 0.588372 0.295162 0.279373
H27   H     H_    0.134155 0.813612 0.303707 0.267403
H28   H     H_    0.079043 0.747588 0.211770 0.259203
C49   C     C_3   0.772605 0.051427 0.597767 -0.717125
H29   H     H_    0.724954 0.016364 0.545828 0.247456
H30   H     H_    0.797019 0.191748 0.585375 0.270085
H31   H     H_    0.822570 0.948679 0.600558 0.294200
C50   C     C_3   0.227395 0.551421 0.402240 -0.717120
H32   H     H_    0.275048 0.516358 0.454177 0.247440
H33   H     H_    0.202980 0.691741 0.414632 0.270081
H34   H     H_    0.177432 0.448671 0.399451 0.294221
N1    N     N_R   0.734782 0.718793 0.891511 0.244443
O21   O     O_R   0.722759 0.546768 0.863046 -0.464062
O22   O     O_R   0.737528 0.744890 0.967071 -0.428206
N2    N     N_R   0.265246 0.218899 0.108466 0.244456
O23   O     O_R   0.277162 0.046832 0.136908 -0.464083
O24   O     O_R   0.262751 0.245082 0.032958 -0.428080
C51   C     C_3   0.600141 0.040814 0.773758 -0.823371
H35   H     H_    0.628706 0.182567 0.770899 0.244780
H36   H     H_    0.545736 0.030654 0.726025 0.249379
H37   H     H_    0.579522 0.032094 0.831476 0.288380
C52   C     C_3   0.399871 0.540799 0.226256 -0.823290
H38   H     H_    0.371317 0.682562 0.229128 0.244738
H39   H     H_    0.454278 0.530600 0.273985 0.249357
H40   H     H_    0.420486 0.532093 0.168536 0.288392
C53   C     C_3   0.249002 0.694476 0.973774 -0.830494
H41   H     H_    0.236772 0.806209 0.015774 0.261705
H42   H     H_    0.209386 0.569899 0.977650 0.256962
H43   H     H_    0.313120 0.652025 0.993873 0.263047
C54   C     C_3   0.750997 0.194478 0.026224 -0.830623
H44   H     H_    0.763216 0.306224 0.984224 0.261760
H45   H     H_    0.790621 0.069920 0.022344 0.257011
H46   H     H_    0.686882 0.152000 0.006128 0.263000
C55   C     C_3   0.325559 0.515648 0.852029 -0.769295
H47   H     H_    0.327536 0.439261 0.795790 0.247390
H48   H     H_    0.387231 0.533730 0.887773 0.285288
H49   H     H_    0.291087 0.418598 0.884553 0.248515
C56   C     C_3   0.674445 0.015636 0.147971 -0.769398
H50   H     H_    0.672483 0.939237 0.204210 0.247411
H51   H     H_    0.612767 0.033715 0.112239 0.285290
H52   H     H_    0.708910 0.918598 0.115434 0.248498
N3    N     N_R   0.251976 0.064865 0.535012 0.240698
O25   O     O_R   0.269692 0.968654 0.475898 -0.472825
O26   O     O_R   0.210205 0.221242 0.520414 -0.413806
N4    N     N_R   0.748016 0.564893 0.464981 0.240707
O27   O     O_R   0.730317 0.468667 0.524097 -0.472815
O28   O     O_R   0.789776 0.721288 0.479574 -0.413817
N5    N     N_R   0.418082 0.684712 0.747525 0.217687
O29   O     O_R   0.439380 0.527879 0.716434 -0.395993
O30   O     O_R   0.464519 0.755626 0.810062 -0.413574
N6    N     N_R   0.581927 0.184662 0.252484 0.217690
O31   O     O_R   0.560647 0.027813 0.283577 -0.395983
O32   O     O_R   0.535474 0.255568 0.189954 -0.413563
N7    N     N_R   0.901655 0.731717 0.722970 0.223867
O33   O     O_R   0.903234 0.665364 0.652375 -0.372224
O34   O     O_R   0.970690 0.754929 0.770812 -0.444795
N8    N     N_R   0.098343 0.231687 0.277018 0.223860
O35   O     O_R   0.096769 0.165433 0.347630 -0.372227
O36   O     O_R   0.029307 0.254810 0.229169 -0.444740

loop_
_geom_bond_atom_site_label_1
_geom_bond_atom_site_label_2
_geom_bond_distance
_ccdc_geom_bond_type
C36   C40   1.568661 S    
C56   H52   1.110283 S    
C47   H23   1.104076 S    
C19   C45   1.516873 S    
O19   V4    1.715483 S    
C15   C17   1.421519 A    
O1    C3    1.307272 A    
C55   H49   1.110281 S    
O2    C4    1.307273 A    
O16   V4    2.005764 S    
C2    O7    1.330155 A    
N2    O24   1.300462 A    
N5    O29   1.301023 A    
C53   H41   1.109064 S    
C25   H3    1.109101 S    
C25   C33   1.581595 S    
C45   H17   1.094174 S    
O5    C3    1.313212 A    
C50   H33   1.101754 S    
C49   H29   1.107873 S    
O15   C43   1.315898 A    
C29   H13   1.114626 S    
C1    C36   1.546675 S    
C11   N3    1.436509 S    
N6    O32   1.300558 A    
N1    O22   1.300591 A    
C21   C23   1.418450 A    
C35   C37   1.583388 S    
O17   V3    2.001751 S    
C36   C38   1.583391 S    
C51   H35   1.108709 S    
C10   H2    1.078738 S    
C25   N7    1.478056 S    
C39   H11   1.112992 S    
C40   H12   1.112996 S    
C48   H27   1.107703 S    
C32   H10   1.113435 S    
C8    C12   1.411217 A    
C28   C36   1.556874 S    
C22   C54   1.515328 S    
C51   H36   1.109509 S    
C42   O17   1.301610 A    
C31   C39   1.575102 S    
C39   C51   1.544459 S    
C41   O18   1.301614 A    
C46   H21   1.110637 S    
N8    O36   1.300213 A    
O3    C1    1.351759 A    
C37   H15   1.111900 S    
C45   H18   1.110652 S    
N7    O33   1.301641 A    
C31   N1    1.474550 S    
C2    C35   1.546674 S    
C26   N8    1.478057 S    
C5    C21   1.419793 A    
N2    O23   1.301805 A    
N5    O30   1.300559 A    
C32   C34   1.579095 S    
C48   H26   1.104062 S    
O13   V3    2.002796 S    
C52   H39   1.109506 S    
C50   H34   1.101505 S    
C3    C8    1.499810 S    
O12   C44   1.307362 A    
C37   C49   1.553318 S    
C56   H50   1.108877 S    
C33   C44   1.542108 S    
N6    O31   1.301026 A    
O14   C42   1.314620 A    
C12   N4    1.436512 S    
O13   C41   1.314620 A    
C53   H43   1.110168 S    
C25   C27   1.571303 S    
C28   H6    1.112884 S    
C15   C23   1.424020 A    
C9    C17   1.405711 A    
C26   C34   1.581599 S    
C31   C33   1.579103 S    
O4    V2    2.005789 S    
C7    C11   1.411221 A    
C54   H45   1.108215 S    
O2    V1    1.999831 S    
C27   H5    1.112885 S    
C20   C46   1.516872 S    
O6    C4    1.313211 A    
C51   H37   1.110669 S    
C40   C52   1.544453 S    
O1    V2    1.999832 S    
C30   C34   1.585788 S    
C46   H22   1.110066 S    
C14   N6    1.435970 S    
O12   V3    2.031010 S    
C30   H14   1.114627 S    
C16   C24   1.424027 A    
N8    O35   1.301638 A    
O14   V4    2.002794 S    
O4    C2    1.351760 A    
O20   V3    1.715482 S    
C47   H25   1.101783 S    
O20   V4    2.196621 S    
C9    C11   1.393801 A    
C5    C42   1.506890 S    
C5    C19   1.421227 A    
C10   C12   1.393791 A    
O11   C43   1.307361 A    
C6    C20   1.421225 A    
C54   H44   1.109067 S    
C24   C56   1.518626 S    
C23   C55   1.518623 S    
C48   H28   1.101775 S    
O3    V1    2.005789 S    
C34   C43   1.542103 S    
C49   H30   1.101755 S    
C45   H19   1.110083 S    
C56   H51   1.108957 S    
C30   C48   1.545900 S    
C10   C18   1.405708 A    
O10   V1    1.715770 S    
O16   C44   1.315898 A    
C26   H4    1.109076 S    
C55   H48   1.108956 S    
O19   V3    2.196619 S    
C13   N5    1.435972 S    
N3    O25   1.298113 A    
C35   C39   1.568678 S    
C13   C15   1.441113 A    
C50   H32   1.107874 S    
C14   C16   1.441116 A    
C29   C37   1.576494 S    
C30   C38   1.576504 S    
C6    C41   1.506895 S    
C16   C18   1.421526 A    
O7    V1    2.015176 S    
C54   H46   1.110168 S    
C1    O8    1.330156 A    
C17   C19   1.430589 A    
O11   V4    2.031011 S    
C32   C40   1.575067 S    
N1    O21   1.301826 A    
C18   C20   1.430583 A    
N3    O26   1.300571 A    
O15   V3    2.005762 S    
C47   H24   1.107707 S    
C8    C14   1.421184 A    
C6    C22   1.419791 A    
C29   C33   1.585789 S    
C4    C7    1.499809 S    
O5    V1    2.002888 S    
C52   H40   1.110669 S    
C22   C24   1.418453 A    
C31   H9    1.113414 S    
N7    O34   1.300226 A    
C55   H47   1.108875 S    
C7    C13   1.421181 A    
C53   H42   1.108225 S    
C27   C35   1.556878 S    
O18   V4    2.001747 S    
C26   C28   1.571298 S    
C9    H1    1.078738 S    
C38   H16   1.111899 S    
O6    V2    2.002886 S    
C52   H38   1.108710 S    
O9    V2    1.715772 S    
C21   C53   1.515328 S    
C32   N2    1.474570 S    
N4    O27   1.298101 A    
O8    V2    2.015176 S    
C49   H31   1.101517 S    
C29   C47   1.545896 S    
C46   H20   1.094128 S    
C27   H7    1.094613 S    
N4    O28   1.300577 A    
C38   C50   1.553309 S    
C28   H8    1.094610 S    
