data_mof_unit_17133.cif
_audit_creation_date              2012-12-10T17:31:24-0500
_audit_creation_method            fapswitch 2.2
_symmetry_space_group_name_H-M    P1
_symmetry_Int_Tables_number       1
_space_group_crystal_system       triclinic
_cell_length_a                    19.027537
_cell_length_b                    18.61426
_cell_length_c                    12.427128
_cell_angle_alpha                 90.183097
_cell_angle_beta                  130.16488
_cell_angle_gamma                 89.851557
_cell_volume                      3363.55874738

loop_
_atom_site_label
_atom_site_type_symbol
_atom_type_description
_atom_site_fract_x
_atom_site_fract_y
_atom_site_fract_z
_atom_type_partial_charge
C1    C     C_R   0.612053 0.898131 0.652584 0.768616
C2    C     C_R   0.612645 0.101313 0.653513 0.772454
C3    C     C_R   0.112074 0.398146 0.652612 0.768574
C4    C     C_R   0.112647 0.601311 0.653516 0.772431
C5    C     C_R   0.242634 0.777787 0.034770 0.083197
C6    C     C_R   0.240421 0.220074 0.030828 0.077198
C7    C     C_R   0.742627 0.277790 0.034763 0.083203
C8    C     C_R   0.740386 0.720055 0.030789 0.077165
C9    C     C_R   0.658392 0.278970 0.009499 0.165936
C10   C     C_R   0.657827 0.722027 0.010242 0.166011
C11   C     C_R   0.158394 0.778975 0.009490 0.165945
C12   C     C_R   0.157787 0.221922 0.010077 0.166002
C13   C     C_R   0.580519 0.246651 0.889141 -0.237617
C14   C     C_R   0.580203 0.755749 0.892026 -0.238409
C15   C     C_R   0.080521 0.746661 0.889126 -0.237608
C16   C     C_R   0.080165 0.255615 0.891804 -0.238375
C17   C     C_R   0.585950 0.210270 0.797312 -0.193197
C18   C     C_R   0.584684 0.790955 0.798478 -0.198110
C19   C     C_R   0.085955 0.710276 0.797303 -0.193214
C20   C     C_R   0.084705 0.290895 0.798378 -0.198105
C21   C     C_R   0.318958 0.811779 0.156104 -0.220635
C22   C     C_R   0.316665 0.185083 0.150518 -0.229151
C23   C     C_R   0.818952 0.311783 0.156094 -0.220637
C24   C     C_R   0.816628 0.685028 0.150415 -0.229127
C25   C     C_R   0.228099 0.851071 0.218758 -0.188761
C26   C     C_R   0.228811 0.151268 0.221086 -0.192007
C27   C     C_R   0.728102 0.351064 0.218771 -0.188742
C28   C     C_R   0.728915 0.651434 0.221335 -0.192089
C29   C     C_R   0.679510 0.158264 0.742949 -0.102443
C30   C     C_R   0.677029 0.839448 0.739243 -0.103762
C31   C     C_R   0.179519 0.658257 0.742961 -0.102434
C32   C     C_R   0.177113 0.339513 0.739362 -0.103730
C33   C     C_R   0.687103 0.998355 0.291977 -0.298321
C34   C     C_R   0.187103 0.498352 0.291977 -0.298309
C35   C     C_R   0.344699 0.017242 0.624978 0.071159
C36   C     C_R   0.844700 0.517246 0.624979 0.071136
C37   C     C_R   0.316346 0.045504 0.695077 -0.244747
C38   C     C_R   0.816349 0.545508 0.695080 -0.244761
C39   C     C_R   0.384120 0.098697 0.342377 0.806052
C40   C     C_R   0.384511 0.901078 0.342907 0.809641
C41   C     C_R   0.884126 0.598704 0.342384 0.806076
C42   C     C_R   0.884510 0.401078 0.342907 0.809667
C43   C     C_R   0.378533 0.049589 0.841444 -0.150259
C44   C     C_R   0.878535 0.549588 0.841446 -0.150289
C45   C     C_R   0.466253 0.017906 0.920562 0.007642
C46   C     C_R   0.966254 0.517903 0.920562 0.007655
C47   C     C_R   0.496744 0.002017 0.844199 0.282514
C48   C     C_R   0.996744 0.502014 0.844200 0.282542
C49   C     C_R   0.528225 0.009824 0.072386 -0.071939
C50   C     C_R   0.028225 0.509821 0.072386 -0.071930
C51   C     C_R   0.623213 0.002008 0.144480 0.148446
C52   C     C_R   0.123213 0.502004 0.144480 0.148447
C53   C     C_R   0.653983 0.997062 0.068676 -0.258429
C54   C     C_R   0.153983 0.497057 0.068676 -0.258440
C55   C     C_R   0.592117 0.995482 0.922058 -0.171488
C56   C     C_R   0.092117 0.495478 0.922058 -0.171485
C57   C     C_R   0.500605 0.004111 0.155671 0.283937
C58   C     C_R   0.000604 0.504109 0.155671 0.283907
C59   C     C_R   0.657305 0.998875 0.369005 0.031238
C60   C     C_R   0.157305 0.498875 0.369005 0.031276
C61   C     C_R   0.652366 0.314282 0.103203 -0.190657
C62   C     C_R   0.653228 0.688735 0.106741 -0.189018
C63   C     C_R   0.152363 0.814292 0.103185 -0.190652
C64   C     C_R   0.153115 0.188535 0.106430 -0.188998
C65   C     C_R   0.310733 0.851375 0.242688 -0.042844
C66   C     C_R   0.310055 0.148180 0.241165 -0.043614
C67   C     C_R   0.810732 0.351374 0.242688 -0.042869
C68   C     C_R   0.810079 0.648210 0.241202 -0.043672
C69   C     C_R   0.759016 0.162155 0.757830 -0.185137
C70   C     C_R   0.754557 0.832218 0.749435 -0.185616
C71   C     C_R   0.259033 0.662136 0.757859 -0.185109
C72   C     C_R   0.254719 0.332388 0.749731 -0.185588
C73   C     C_R   0.330917 0.706966 0.858059 -0.151628
C74   C     C_R   0.324750 0.285208 0.845878 -0.153617
C75   C     C_R   0.830894 0.206993 0.858016 -0.151619
C76   C     C_R   0.824526 0.784964 0.845448 -0.153643
C77   C     C_R   0.326582 0.745914 0.949201 -0.168422
C78   C     C_R   0.320964 0.247265 0.938133 -0.187850
C79   C     C_R   0.826561 0.245937 0.949165 -0.168391
C80   C     C_R   0.820773 0.747059 0.937773 -0.187831
C81   C     C_R   0.747721 0.242653 0.938340 0.084964
C82   C     C_R   0.744220 0.753764 0.932178 0.084961
C83   C     C_R   0.247733 0.742643 0.938356 0.084982
C84   C     C_R   0.244320 0.253853 0.932336 0.084946
C85   C     C_R   0.670402 0.203231 0.825489 0.078520
C86   C     C_R   0.667983 0.795325 0.822618 0.078767
C87   C     C_R   0.170411 0.703227 0.825495 0.078528
C88   C     C_R   0.168053 0.295357 0.822681 0.078768
Cu1   Cu    Cu3+1 0.526340 1.000000 0.421010 0.958228
Cu2   Cu    Cu3+1 0.026340 0.500000 0.421010 0.958232
Cu3   Cu    Cu3+1 0.473640 0.000000 0.578990 0.918060
Cu4   Cu    Cu3+1 0.973640 0.500000 0.578990 0.918082
H1    H     H_    0.220841 0.881837 0.285239 0.148143
H2    H     H_    0.222607 0.122559 0.290286 0.142866
H3    H     H_    0.720847 0.381826 0.285259 0.148153
H4    H     H_    0.722760 0.622809 0.290659 0.142926
H5    H     H_    0.726856 0.992488 0.123408 0.151974
H6    H     H_    0.226856 0.492482 0.123408 0.151979
H7    H     H_    0.760141 0.994417 0.347709 0.143874
H8    H     H_    0.260141 0.494414 0.347709 0.143873
H9    H     H_    0.297485 0.017093 0.511117 0.121669
H10   H     H_    0.797487 0.517101 0.511117 0.121685
H11   H     H_    0.358718 0.081158 0.890966 0.169291
H12   H     H_    0.858720 0.581154 0.890970 0.169238
H13   H     H_    0.247724 0.067357 0.635973 0.150401
H14   H     H_    0.747729 0.567366 0.635978 0.150409
H15   H     H_    0.622427 0.992811 0.873917 0.203686
H16   H     H_    0.122428 0.492807 0.873918 0.203676
H17   H     H_    0.514971 0.249533 0.865594 0.135787
H18   H     H_    0.515649 0.755133 0.871774 0.138704
H19   H     H_    0.014970 0.749551 0.865567 0.135757
H20   H     H_    0.015566 0.254914 0.871412 0.138682
H21   H     H_    0.588208 0.315553 0.084242 0.131012
H22   H     H_    0.590270 0.689860 0.091259 0.129033
H23   H     H_    0.088201 0.815568 0.084213 0.131056
H24   H     H_    0.090096 0.189553 0.090783 0.129017
H25   H     H_    0.385724 0.810051 0.184621 0.147778
H26   H     H_    0.382350 0.184807 0.175378 0.147608
H27   H     H_    0.885715 0.310058 0.184602 0.147790
H28   H     H_    0.882265 0.684667 0.175123 0.147710
H29   H     H_    0.766895 0.128870 0.694527 0.150338
H30   H     H_    0.762324 0.864481 0.685282 0.150273
H31   H     H_    0.266912 0.628846 0.694562 0.150335
H32   H     H_    0.262500 0.364684 0.685628 0.150227
H33   H     H_    0.385330 0.779170 0.024691 0.139291
H34   H     H_    0.378195 0.212036 0.010323 0.128532
H35   H     H_    0.885303 0.279201 0.024642 0.139327
H36   H     H_    0.877951 0.711767 0.009852 0.128510
H37   H     H_    0.391797 0.709759 0.868306 0.129619
H38   H     H_    0.383904 0.279717 0.852116 0.130338
H39   H     H_    0.891767 0.209798 0.868247 0.129594
H40   H     H_    0.883612 0.779384 0.851530 0.130371
H41   H     H_    0.522358 0.189289 0.702306 0.173301
H42   H     H_    0.521121 0.813020 0.705282 0.176768
H43   H     H_    0.022363 0.689298 0.702292 0.173283
H44   H     H_    0.021150 0.312941 0.705136 0.176698
H45   H     H_    0.707013 0.996506 0.482767 0.125841
H46   H     H_    0.207013 0.496507 0.482768 0.125825
N1    N     N_R   0.566260 0.000000 0.302220 -0.188467
N2    N     N_R   0.066260 0.500000 0.302220 -0.188461
N3    N     N_R   0.434410 1.000000 0.697680 -0.208902
N4    N     N_R   0.934410 0.500000 0.697680 -0.208888
O1    O     O_R   0.608610 0.924520 0.551740 -0.580061
O2    O     O_R   0.608610 0.075480 0.551740 -0.580112
O3    O     O_R   0.108610 0.424520 0.551740 -0.580045
O4    O     O_R   0.108610 0.575480 0.551740 -0.580118
O5    O     O_R   0.564110 0.924510 0.685150 -0.602352
O6    O     O_R   0.564110 0.075490 0.685150 -0.595383
O7    O     O_R   0.064110 0.424510 0.685150 -0.602321
O8    O     O_R   0.064110 0.575490 0.685150 -0.595389
O9    O     O_R   0.435880 0.075470 0.314850 -0.555733
O10   O     O_R   0.435880 0.924530 0.314850 -0.546679
O11   O     O_R   0.935880 0.575470 0.314850 -0.555769
O12   O     O_R   0.935880 0.424530 0.314850 -0.546664
O13   O     O_R   0.391380 0.075460 0.448260 -0.601319
O14   O     O_R   0.391380 0.924540 0.448260 -0.596486
O15   O     O_R   0.891380 0.575460 0.448260 -0.601325
O16   O     O_R   0.891380 0.424540 0.448260 -0.596464
I1    I     I_    0.357115 0.984879 0.049308 -0.390519
I2    I     I_    0.857115 0.484874 0.049306 -0.390572

loop_
_geom_bond_atom_site_label_1
_geom_bond_atom_site_label_2
_ccdc_geom_bond_type
C26   H2    S    
C14   H18   S    
C83   C87   A    
C25   H1    S    
C64   H24   S    
C2    O2    A    
C14   C18   A    
C27   H3    S    
C48   C56   A    
Cu3   O5    S    
C44   H12   S    
C32   C72   A    
C10   C62   A    
C15   C19   A    
C40   O10   A    
C18   C86   A    
C2    C29   S    
C9    C61   A    
C71   H31   S    
C28   C68   A    
C5    C11   A    
Cu2   O3    S    
C19   C87   A    
C6    C12   A    
C5    C83   A    
C9    C13   A    
C59   H45   S    
C19   H43   S    
C6    C22   A    
C39   O9    A    
C49   C57   A    
C57   N1    A    
C36   H10   S    
C25   C63   A    
C23   C67   A    
C29   C69   A    
C26   C64   A    
C56   H16   S    
Cu4   O16   S    
C13   H17   S    
C27   C61   A    
C11   C15   A    
Cu1   O10   S    
C22   C66   A    
C12   C16   A    
C44   C46   A    
C49   C51   A    
C50   C52   A    
C76   C80   A    
C69   C75   A    
C69   H29   S    
C30   C86   A    
Cu4   N4    S    
C47   N3    A    
C29   C85   A    
C63   H23   S    
C52   C54   A    
C45   C47   A    
C57   I1    S    
C33   C59   A    
C55   H15   S    
C72   H32   S    
C34   C60   A    
C42   O16   A    
C17   C85   A    
C21   C65   A    
Cu3   O6    S    
C30   C70   A    
C75   H39   S    
C38   C44   A    
C41   C68   S    
C41   O11   A    
C53   C55   A    
Cu2   Cu4   S    
C54   C56   A    
C3    O7    A    
C31   C87   A    
C24   H28   S    
C26   C66   A    
C15   H19   S    
C6    C84   A    
C72   C74   A    
C10   C14   A    
C79   C81   A    
C80   H36   S    
Cu1   N1    S    
C82   C86   A    
C39   O13   A    
Cu4   O15   S    
C33   H7    S    
C50   C58   A    
C38   H14   S    
C37   H13   S    
C1    O1    A    
C70   H30   S    
C34   H8    S    
C16   H20   S    
C59   N1    A    
C16   C20   A    
C4    O4    A    
C45   C49   A    
C48   N4    A    
C21   H25   S    
C20   H44   S    
Cu2   O11   S    
C43   C45   A    
C35   N3    A    
C41   O15   A    
C80   C82   A    
C7    C81   A    
C60   N2    A    
C3    O3    A    
C40   C65   S    
C74   H38   S    
Cu4   O8    S    
C42   C67   S    
C39   C66   S    
C8    C82   A    
C37   C43   A    
C1    O5    A    
Cu1   Cu3   S    
Cu3   O13   S    
C70   C76   A    
C78   H34   S    
C77   H33   S    
C35   C37   A    
C47   C55   A    
C58   N2    A    
C7    C9    A    
C12   C64   A    
C22   H26   S    
C73   C77   A    
C42   O12   A    
C40   O14   A    
C84   C88   A    
C35   H9    S    
Cu2   N2    S    
C28   C62   A    
C62   H22   S    
C33   C51   A    
Cu1   O2    S    
C4    O8    A    
C46   C50   A    
C34   C52   A    
C13   C17   A    
C28   H4    S    
C53   H5    S    
C36   N4    A    
C36   C38   A    
C79   H35   S    
Cu3   O14   S    
Cu2   O4    S    
Cu1   O1    S    
C17   H41   S    
C76   H40   S    
Cu2   O12   S    
C75   C79   A    
C73   H37   S    
C7    C23   A    
C20   C88   A    
C31   C71   A    
C1    C30   S    
C8    C24   A    
C18   H42   S    
C3    C32   S    
C43   H11   S    
C4    C31   S    
C27   C67   A    
C24   C68   A    
C61   H21   S    
C46   C48   A    
C78   C84   A    
Cu1   O9    S    
C5    C21   A    
C8    C10   A    
C74   C78   A    
C71   C73   A    
Cu4   O7    S    
C25   C65   A    
C77   C83   A    
C54   H6    S    
C23   H27   S    
C58   I2    S    
C51   C53   A    
C11   C63   A    
C2    O6    A    
C81   C85   A    
C60   H46   S    
Cu3   N3    S    
C32   C88   A    
