data_mof_unit_5119.cif
_audit_creation_date              2012-10-26T18:27:32-0400
_audit_creation_method            fapswitch 2.2
_symmetry_space_group_name_H-M    P1
_symmetry_Int_Tables_number       1
_space_group_crystal_system       triclinic
_cell_length_a                    10.789116
_cell_length_b                    11.052314
_cell_length_c                    9.877905
_cell_angle_alpha                 111.377379
_cell_angle_beta                  98.198769
_cell_angle_gamma                 91.860367
_cell_volume                      1081.07204566

loop_
_atom_site_label
_atom_site_type_symbol
_atom_type_description
_atom_site_fract_x
_atom_site_fract_y
_atom_site_fract_z
_atom_type_partial_charge
C1    C     C_R   0.490268 0.253563 0.439754 0.544390
C2    C     C_2   0.492879 0.929245 0.484331 -0.124320
C3    C     C_2   0.516458 0.499406 0.074578 0.112856
C4    C     C_R   0.262983 0.504218 0.502232 0.537313
C5    C     C_2   0.493864 0.479926 0.911905 0.371532
C6    C     C_R   0.506378 0.745845 0.559854 0.553231
C7    C     C_R   0.737649 0.506092 0.500321 0.548888
C8    C     C_R   0.166836 0.725081 0.718485 -0.145520
C9    C     C_R   0.120823 0.830150 0.819828 -0.158735
C10   C     C_R   0.991395 0.841074 0.810086 0.315399
C11   C     C_R   0.908117 0.744883 0.697882 0.303938
C12   C     C_R   0.084551 0.622000 0.610890 -0.014650
C13   C     C_R   0.952880 0.628732 0.603646 -0.031056
C14   C     C_R   0.130041 0.514223 0.506554 0.029306
C15   C     C_R   0.047403 0.415333 0.398551 -0.128823
C16   C     C_R   0.919643 0.417310 0.396752 -0.141652
C17   C     C_R   0.871782 0.520146 0.500245 -0.005347
C18   C     C_2   0.483175 0.112094 0.403816 0.224980
C19   C     C_2   0.499109 0.068413 0.514311 -0.074480
C20   C     C_2   0.510461 0.885571 0.594015 -0.129844
Cu1   Cu    Cu3+1 0.521920 0.521810 0.644910 1.050142
Cu2   Cu    Cu3+1 0.478080 0.478190 0.355090 0.979226
H1    H     H_    0.082377 0.333718 0.317784 0.129113
H2    H     H_    0.450153 0.071126 0.191165 0.343613
H3    H     H_    0.419205 0.303254 0.839487 0.330614
H4    H     H_    0.297399 0.344702 0.120183 0.362750
H5    H     H_    0.013989 0.007893 0.975240 0.312640
H6    H     H_    0.762041 0.752257 0.568240 0.301148
H7    H     H_    0.598821 0.562373 0.143165 0.062665
H8    H     H_    0.618715 0.627808 0.938002 0.180529
H9    H     H_    0.267657 0.727285 0.726024 0.159944
H10   H     H_    0.186787 0.905999 0.902604 0.120256
H11   H     H_    0.857659 0.335961 0.316259 0.141022
H12   H     H_    0.474444 0.861109 0.370436 0.217757
H13   H     H_    0.517569 0.135620 0.628693 0.118611
H14   H     H_    0.528851 0.952646 0.708442 0.130603
N1    N     N_2   0.445130 0.445430 0.137370 -0.082104
N2    N     N_2   0.554930 0.554500 0.862630 -0.321967
O1    O     O_R   0.511700 0.332330 0.577400 -0.473912
O2    O     O_3   0.409993 0.380388 0.811652 -0.596111
O3    O     O_3   0.334900 0.382612 0.057227 -0.606746
O4    O     O_3   0.943585 0.948735 0.903374 -0.642102
O5    O     O_3   0.785920 0.773700 0.675626 -0.630923
O6    O     O_R   0.474680 0.295500 0.332650 -0.521219
O7    O     O_R   0.338160 0.518420 0.622400 -0.455204
O8    O     O_R   0.301140 0.481590 0.377650 -0.511514
O9    O     O_R   0.525320 0.704500 0.667350 -0.463726
O10   O     O_R   0.488300 0.667670 0.422600 -0.515385
O11   O     O_R   0.698860 0.518410 0.622350 -0.458204
O12   O     O_R   0.661840 0.481580 0.377600 -0.526647
O13   O     O_3   0.460113 0.023585 0.259159 -0.722272

loop_
_geom_bond_atom_site_label_1
_geom_bond_atom_site_label_2
_ccdc_geom_bond_type
C8    C9    A    
Cu2   O10   S    
C11   O5    S    
C16   H11   S    
C10   O4    S    
C6    C20   S    
C9    C10   A    
H6    O5    S    
Cu1   O1    S    
C13   C17   A    
C8    C12   A    
C2    H12   S    
H2    O13   S    
C15   H1    S    
C3    N1    D    
C4    O8    A    
C5    N2    D    
C4    C14   S    
C11   C13   A    
H5    O4    S    
H8    N2    S    
C1    C18   S    
C6    O10   A    
Cu1   O11   S    
Cu2   O8    S    
C12   C14   A    
C18   O13   S    
Cu1   O7    S    
C4    O7    A    
H3    O2    S    
N1    O3    S    
C6    O9    A    
C1    O1    A    
C2    C20   D    
C15   C16   A    
C20   H14   S    
Cu2   O12   S    
C12   C13   A    
C7    O11   A    
C18   C19   D    
C10   C11   A    
C5    O2    S    
C7    O12   A    
C3    H7    S    
C14   C15   A    
Cu1   N2    S    
C19   H13   S    
C1    O6    A    
C9    H10   S    
Cu1   O9    S    
C2    C19   S    
Cu1   Cu2   S    
Cu2   N1    S    
Cu2   O6    S    
C8    H9    S    
H4    O3    S    
C16   C17   A    
C3    C5    S    
C7    C17   S    
