data_mof_unit_66004.cif
_audit_creation_date              2012-12-10T19:27:44-0500
_audit_creation_method            fapswitch 2.2
_symmetry_space_group_name_H-M    P1
_symmetry_Int_Tables_number       1
_space_group_crystal_system       triclinic
_cell_length_a                    17.722763
_cell_length_b                    16.468372
_cell_length_c                    10.73946
_cell_angle_alpha                 90.000089
_cell_angle_beta                  90.115939
_cell_angle_gamma                 89.999497
_cell_volume                      3134.46665495

loop_
_atom_site_label
_atom_site_type_symbol
_atom_type_description
_atom_site_fract_x
_atom_site_fract_y
_atom_site_fract_z
_atom_type_partial_charge
C1    C     C_R   0.355240 0.500014 0.499834 0.793567
C2    C     C_3   0.571219 0.543380 0.928397 -0.376129
C3    C     C_R   0.846284 0.573854 0.501445 -0.142445
C4    C     C_R   0.846430 0.426631 0.499532 -0.146038
C5    C     C_R   0.767630 0.573860 0.501458 -0.186135
C6    C     C_R   0.767777 0.426434 0.499551 -0.185695
C7    C     C_R   0.727691 0.500094 0.500403 -0.052977
C8    C     C_R   0.885570 0.500289 0.500412 0.138102
C9    C     C_1   0.966161 0.500366 0.500140 -0.050672
C10   C     C_1   0.033819 0.500367 0.499880 -0.050663
C11   C     C_R   0.153695 0.573855 0.498567 -0.142473
C12   C     C_R   0.153551 0.426633 0.500487 -0.146066
C13   C     C_R   0.232349 0.573861 0.498548 -0.186105
C14   C     C_R   0.232204 0.426435 0.500462 -0.185660
C15   C     C_R   0.272291 0.500095 0.499602 -0.052937
C16   C     C_R   0.499944 0.499867 0.259395 0.765254
C17   C     C_R   0.114410 0.500290 0.499607 0.138108
C18   C     C_R   0.556551 0.828517 0.562680 0.058656
C19   C     C_R   0.530452 0.171355 0.600509 0.058829
C20   C     C_R   0.554954 0.742863 0.562070 0.028048
C21   C     C_R   0.530530 0.257004 0.597625 0.024977
C22   C     C_R   0.444986 0.742860 0.437860 0.028093
C23   C     C_R   0.469407 0.257011 0.402310 0.025014
C24   C     C_R   0.443388 0.828514 0.437240 0.058639
C25   C     C_R   0.469482 0.171362 0.399417 0.058821
C26   C     C_R   0.499968 0.873010 0.499959 0.022793
C27   C     C_R   0.499966 0.126858 0.499961 0.018676
C28   C     C_1   0.499967 0.962685 0.499957 0.108875
C29   C     C_1   0.499966 0.037185 0.499957 0.107457
C30   C     C_R   0.644743 0.500013 0.500163 0.793849
C31   C     C_R   0.500031 0.499866 0.740595 0.765266
C32   C     C_3   0.428769 0.543411 0.071594 -0.376103
C33   C     C_3   0.499871 0.410889 0.071287 -0.356982
C34   C     C_3   0.428758 0.543315 0.927883 -0.366604
C35   C     C_3   0.500073 0.410891 0.928702 -0.356994
C36   C     C_3   0.571234 0.543287 0.072107 -0.366596
C37   C     C_3   0.499957 0.499383 0.121652 0.132432
C38   C     C_3   0.500018 0.499383 0.878338 0.132393
Cu1   Cu    Cu3+1 0.499980 0.580420 0.499990 0.942512
Cu2   Cu    Cu3+1 0.499980 0.419580 0.499990 0.941155
H1    H     H_    0.427335 0.607201 0.105806 0.182329
H2    H     H_    0.550457 0.377583 0.105767 0.181634
H3    H     H_    0.261772 0.631503 0.497732 0.160868
H4    H     H_    0.261516 0.368731 0.501204 0.163204
H5    H     H_    0.598220 0.709521 0.611488 0.145431
H6    H     H_    0.555142 0.290073 0.674554 0.146001
H7    H     H_    0.401722 0.709515 0.388443 0.145446
H8    H     H_    0.444798 0.290085 0.325384 0.145995
H9    H     H_    0.377025 0.512398 0.892966 0.157471
H10   H     H_    0.449478 0.377611 0.894222 0.181637
H11   H     H_    0.572676 0.607164 0.894184 0.182328
H12   H     H_    0.622993 0.512603 0.893698 0.156360
H13   H     H_    0.123554 0.631105 0.497828 0.143779
H14   H     H_    0.123296 0.369454 0.501256 0.142108
N1    N     N_R   0.499970 0.701220 0.499970 -0.195919
N2    N     N_R   0.499970 0.298780 0.499970 -0.195298
O1    O     O_R   0.391240 0.567930 0.499990 -0.587301
O2    O     O_R   0.391240 0.432070 0.499990 -0.576120
O3    O     O_R   0.499970 0.567910 0.317690 -0.580711
O4    O     O_R   0.499970 0.432090 0.317690 -0.594969
O5    O     O_R   0.608730 0.567880 0.500000 -0.587306
O6    O     O_R   0.608730 0.432120 0.500000 -0.576130
O7    O     O_R   0.500000 0.567910 0.682300 -0.580709
O8    O     O_R   0.500000 0.432090 0.682300 -0.594973
I1    I     I_    0.646118 0.886236 0.658944 -0.314938
I2    I     I_    0.576377 0.113702 0.759862 -0.295631
I3    I     I_    0.353822 0.886228 0.340965 -0.314934
I4    I     I_    0.423553 0.113716 0.240060 -0.295634
H15   H     H_    0.376980 0.512657 0.106294 0.156349
H16   H     H_    0.449047 0.377828 0.105030 0.174476
H17   H     H_    0.427189 0.607056 0.893506 0.184549
H18   H     H_    0.550882 0.377812 0.894960 0.174498
H19   H     H_    0.572825 0.607032 0.106486 0.184526
H20   H     H_    0.622961 0.512348 0.107025 0.157464
H21   H     H_    0.876423 0.631105 0.502183 0.143776
H22   H     H_    0.876687 0.369453 0.498768 0.142105
H23   H     H_    0.738203 0.631501 0.502269 0.160833
H24   H     H_    0.738464 0.368731 0.498808 0.163165

loop_
_geom_bond_atom_site_label_1
_geom_bond_atom_site_label_2
_ccdc_geom_bond_type
Cu2   O4    S    
C27   C29   S    
C18   C26   A    
C4    C8    A    
C23   N2    A    
C36   H20   S    
C18   I1    S    
C33   H2    S    
C36   C37   S    
C19   C21   A    
C24   C26   A    
C6    H24   S    
C10   C17   S    
Cu1   O1    S    
Cu2   O6    S    
C19   I2    S    
C16   O4    A    
C24   I3    S    
C11   C17   A    
C8    C9    S    
Cu2   N2    S    
C12   C17   A    
C32   H1    S    
C1    C15   S    
C3    H21   S    
C9    C10   T    
C20   H5    S    
C11   H13   S    
C16   C37   S    
C22   H7    S    
C7    C30   S    
C25   I4    S    
C20   N1    A    
C6    C7    A    
Cu1   O5    S    
Cu1   N1    S    
Cu2   O2    S    
C31   O7    A    
C35   C38   S    
C4    C6    A    
C3    C8    A    
C36   H19   S    
Cu1   Cu2   S    
C5    C7    A    
C33   C37   S    
C16   O3    A    
C32   C34   S    
C1    O1    A    
C2    C38   S    
Cu1   O3    S    
C35   H10   S    
C32   C37   S    
C32   H15   S    
C2    H12   S    
C33   H16   S    
C12   C14   A    
C35   H18   S    
C30   O6    A    
C22   C24   A    
C5    H23   S    
C13   H3    S    
C19   C27   A    
C14   H4    S    
C21   H6    S    
C2    C36   S    
C28   C29   T    
C34   H9    S    
C23   H8    S    
C34   C38   S    
C31   O8    A    
C3    C5    A    
C21   N2    A    
C22   N1    A    
C25   C27   A    
Cu1   O7    S    
C26   C28   S    
Cu2   O8    S    
C31   C38   S    
C13   C15   A    
C1    O2    A    
C11   C13   A    
C33   C35   S    
C18   C20   A    
C23   C25   A    
C4    H22   S    
C2    H11   S    
C30   O5    A    
C14   C15   A    
C34   H17   S    
C12   H14   S    
