data_mof_unit_35347.cif
_audit_creation_date              2012-12-10T16:58:29-0500
_audit_creation_method            fapswitch 2.2
_symmetry_space_group_name_H-M    P1
_symmetry_Int_Tables_number       1
_space_group_crystal_system       triclinic
_cell_length_a                    7.805695
_cell_length_b                    8.57773
_cell_length_c                    23.484011
_cell_angle_alpha                 93.073791
_cell_angle_beta                  85.085632
_cell_angle_gamma                 93.272603
_cell_volume                      1562.1621946

loop_
_atom_site_label
_atom_site_type_symbol
_atom_type_description
_atom_site_fract_x
_atom_site_fract_y
_atom_site_fract_z
_atom_type_partial_charge
C1    C     C_R   0.544142 0.794275 0.498420 0.899130
C2    C     C_R   0.355222 0.456222 0.299158 0.141358
C3    C     C_R   0.409691 0.605851 0.765763 -0.218329
C4    C     C_R   0.349357 0.478407 0.241378 -0.207755
C5    C     C_R   0.500894 0.496348 0.790687 0.207538
C6    C     C_R   0.496167 0.529843 0.208265 0.190586
C7    C     C_2   0.561077 0.953328 0.487678 0.121654
C8    C     C_2   0.434504 0.046083 0.509077 0.104416
C9    C     C_R   0.500940 0.498915 0.610284 0.938815
C10   C     C_R   0.500230 0.502115 0.389312 0.923794
C11   C     C_R   0.435450 0.394729 0.118903 0.519614
C12   C     C_R   0.455246 0.205796 0.500522 0.909810
C13   C     C_R   0.578121 0.627610 0.878259 0.529876
C14   C     C_R   0.539391 0.661042 0.119181 0.606960
C15   C     C_R   0.412755 0.384536 0.880640 0.594978
C16   C     C_R   0.558025 0.655314 0.059110 -0.161143
C17   C     C_R   0.402070 0.389597 0.940711 -0.155283
C18   C     C_R   0.485048 0.522803 0.029604 -0.082890
C19   C     C_R   0.487997 0.517207 0.969495 -0.083141
C20   C     C_R   0.410837 0.394854 0.060419 -0.113051
C21   C     C_R   0.575933 0.639482 0.938328 -0.109744
C22   C     C_R   0.647980 0.775458 0.028108 0.371121
C23   C     C_R   0.594721 0.385238 0.756829 0.183488
C24   C     C_R   0.307146 0.273267 0.972793 0.381040
C25   C     C_R   0.657349 0.768342 0.968243 0.123818
C26   C     C_R   0.316800 0.272009 0.032059 0.126465
C27   C     C_3   0.662776 0.025977 0.929446 -0.535240
C28   C     C_3   0.284660 0.004662 0.063161 -0.525406
C29   C     C_3   0.859908 0.332373 0.796196 -0.655901
C30   C     C_3   0.891982 0.477274 0.173954 -0.723608
C31   C     C_3   0.464626 0.870283 0.674039 -0.573577
C32   C     C_3   0.256075 0.197889 0.323835 -0.591407
C33   C     C_R   0.649550 0.572176 0.234056 0.199474
C34   C     C_R   0.593001 0.383545 0.697036 0.253211
C35   C     C_R   0.649633 0.571951 0.293980 0.263406
C36   C     C_R   0.503375 0.497587 0.672108 -0.151659
C37   C     C_R   0.502124 0.510414 0.326843 -0.179115
C38   C     C_R   0.414804 0.611054 0.706735 0.107557
Cl1   Cl    Cl    0.771418 0.928582 0.061936 -0.531575
Cl2   Cl    Cl    0.161131 0.133313 0.941876 -0.561300
Cl3   Cl    Cl    0.703053 0.238814 0.654041 -0.582120
Cl4   Cl    Cl    0.836030 0.648177 0.326244 -0.559604
Cl5   Cl    Cl    0.726765 0.005363 0.434234 -0.465420
Cl6   Cl    Cl    0.256061 0.992919 0.557865 -0.478413
Cl7   Cl    Cl    0.034282 0.302857 0.444732 -0.392711
Cl8   Cl    Cl    0.959195 0.680912 0.562709 -0.376028
H1    H     H_    0.340928 0.692294 0.792703 0.180462
H2    H     H_    0.315459 0.956702 0.018872 0.231264
H3    H     H_    0.685410 0.164664 0.764595 0.279154
H4    H     H_    0.920273 0.243024 0.819286 0.264516
H5    H     H_    0.854850 0.441334 0.823895 0.241863
H6    H     H_    0.940852 0.355257 0.755925 0.267292
H7    H     H_    0.884687 0.696408 0.216169 0.290820
H8    H     H_    0.008599 0.517677 0.147154 0.229012
H9    H     H_    0.807734 0.404203 0.146200 0.269041
H10   H     H_    0.931328 0.405222 0.208050 0.240469
H11   H     H_    0.229310 0.771652 0.704682 0.259800
H12   H     H_    0.233897 0.441493 0.220865 0.168054
H13   H     H_    0.521846 0.907862 0.714665 0.238802
H14   H     H_    0.398482 0.970659 0.660020 0.277359
H15   H     H_    0.568598 0.839045 0.640769 0.247719
H16   H     H_    0.100906 0.380713 0.314461 0.274451
H17   H     H_    0.275555 0.154185 0.278419 0.243827
H18   H     H_    0.145480 0.129052 0.344547 0.286183
H19   H     H_    0.372535 0.178822 0.346146 0.232956
H20   H     H_    0.848378 0.857398 0.907981 0.292374
H21   H     H_    0.752415 0.115454 0.908899 0.245300
H22   H     H_    0.605999 0.078052 0.970573 0.230762
H23   H     H_    0.558402 0.993779 0.901035 0.259160
H24   H     H_    0.151554 0.194722 0.101310 0.268739
H25   H     H_    0.189466 0.922255 0.085184 0.244273
H26   H     H_    0.403626 0.012513 0.085964 0.282477
N1    N     N_R   0.490685 0.528779 0.147361 -0.334273
N2    N     N_2   0.221204 0.362451 0.327165 -0.253085
N3    N     N_R   0.499492 0.501564 0.851540 -0.329624
N4    N     N_2   0.950330 0.457950 0.484560 0.159783
N5    N     N_2   0.049670 0.542050 0.515440 0.150862
N6    N     N_2   0.755915 0.890307 0.939602 -0.232075
N7    N     N_2   0.213188 0.156801 0.062910 -0.235834
N8    N     N_2   0.688463 0.275846 0.783573 -0.292713
N9    N     N_2   0.803158 0.610948 0.199144 -0.259399
N10   N     N_2   0.342578 0.738459 0.682654 -0.273391
O1    O     O_R   0.389250 0.738570 0.503790 -0.585105
O2    O     O_2   0.657353 0.739884 0.845927 -0.581428
O3    O     O_2   0.566978 0.796630 0.149604 -0.484783
O4    O     O_2   0.339294 0.263875 0.850707 -0.506001
O5    O     O_R   0.610750 0.261430 0.496210 -0.568572
O6    O     O_R   0.678390 0.711620 0.493890 -0.549120
O7    O     O_R   0.321610 0.288380 0.506110 -0.555028
O8    O     O_R   0.355400 0.513520 0.588790 -0.583971
O9    O     O_R   0.644600 0.486480 0.411210 -0.560908
O10   O     O_R   0.644550 0.486570 0.578900 -0.565908
O11   O     O_R   0.355450 0.513430 0.421100 -0.588044
O12   O     O_2   0.409486 0.261629 0.147193 -0.556843
Zn1   Zn    Zn3+2 0.306930 0.518000 0.506610 1.166187
Zn2   Zn    Zn3+2 0.693070 0.482000 0.493390 1.189455

loop_
_geom_bond_atom_site_label_1
_geom_bond_atom_site_label_2
_ccdc_geom_bond_type
C15   N3    A    
O6    Zn2   S    
C5    N3    S    
C31   H15   S    
C27   N6    S    
C7    C8    D    
C30   H8    S    
C13   O2    S    
C31   N10   S    
C10   C37   S    
C35   C37   A    
C24   C26   A    
C32   N2    S    
O10   Zn2   S    
H7    N9    S    
C18   C19   A    
C31   H13   S    
C35   Cl4   S    
C28   N7    S    
C27   H22   S    
C24   Cl2   S    
O9    Zn2   S    
C13   N3    A    
C3    C38   A    
C22   C25   A    
C9    C36   S    
C7    Cl5   S    
C23   N8    S    
C18   C20   A    
C27   H23   S    
C1    O6    A    
O11   Zn1   S    
C38   N10   S    
C28   H26   S    
C34   Cl3   S    
C9    O10   A    
C29   H4    S    
H20   N6    S    
C11   C20   A    
C17   C24   A    
C25   N6    S    
C14   N1    A    
C12   O7    A    
O8    Zn1   S    
N4    N5    D    
C32   H18   S    
C4    C6    A    
C11   N1    A    
C17   C19   A    
C10   O11   A    
C30   H10   S    
N5    Zn1   S    
C31   H14   S    
O7    Zn1   S    
C2    C4    A    
C5    C23   A    
C8    C12   S    
C23   C34   A    
O1    Zn1   S    
O5    Zn2   S    
C13   C21   A    
C15   O4    S    
C11   O12   S    
C10   O9    A    
Cl7   N4    S    
C14   C16   A    
C28   H25   S    
C32   H17   S    
C6    N1    S    
C29   H5    S    
C15   C17   A    
C21   C25   A    
C28   H2    S    
C16   C22   A    
C12   O5    A    
C19   C21   A    
H24   N7    S    
C1    C7    S    
C8    Cl6   S    
C14   O3    S    
C3    C5    A    
C2    N2    S    
C9    O8    A    
Cl8   N5    S    
C6    C33   A    
C1    O1    A    
C30   H9    S    
C26   N7    S    
H3    N8    S    
C30   N9    S    
C36   C38   A    
N4    Zn2   S    
C2    C37   A    
C29   N8    S    
C20   C26   A    
C22   Cl1   S    
C3    H1    S    
C33   C35   A    
C34   C36   A    
C27   H21   S    
C16   C18   A    
C4    H12   S    
H11   N10   S    
H16   N2    S    
C33   N9    S    
C32   H19   S    
C29   H6    S    
