data_mof_unit_27403.cif
_audit_creation_date              2012-12-10T19:27:31-0500
_audit_creation_method            fapswitch 2.2
_symmetry_space_group_name_H-M    P1
_symmetry_Int_Tables_number       1
_space_group_crystal_system       triclinic
_cell_length_a                    23.347393
_cell_length_b                    10.498974
_cell_length_c                    9.753434
_cell_angle_alpha                 90.855137
_cell_angle_beta                  89.877241
_cell_angle_gamma                 89.978615
_cell_volume                      2390.52559893

loop_
_atom_site_label
_atom_site_type_symbol
_atom_type_description
_atom_site_fract_x
_atom_site_fract_y
_atom_site_fract_z
_atom_type_partial_charge
C1    C     C_R   0.500215 0.257587 0.498760 0.890122
C2    C     C_R   0.499462 0.742396 0.501235 0.883733
C3    C     C_R   0.241899 0.622676 0.542225 0.171055
C4    C     C_R   0.762636 0.412388 0.444610 0.167320
C5    C     C_R   0.301239 0.612666 0.543083 -0.267507
C6    C     C_R   0.703096 0.409553 0.446500 -0.270969
C7    C     C_R   0.328034 0.500089 0.500649 -0.119890
C8    C     C_R   0.671970 0.512634 0.499072 -0.121145
C9    C     C_R   0.296105 0.392472 0.458127 0.062202
C10   C     C_R   0.699696 0.623958 0.548141 0.057184
C11   C     C_R   0.236009 0.401429 0.458795 0.283176
C12   C     C_R   0.759866 0.627877 0.544939 0.284507
C13   C     C_R   0.209400 0.516037 0.500446 0.182718
C14   C     C_R   0.790837 0.522033 0.495017 0.182528
C15   C     C_3   0.545634 0.044126 0.569465 -0.252224
C16   C     C_3   0.453818 0.955795 0.430532 -0.253331
C17   C     C_3   0.548144 0.954836 0.441820 -0.257946
C18   C     C_3   0.451309 0.045134 0.558162 -0.256805
C19   C     C_3   0.499335 0.877263 0.503786 -0.086919
C20   C     C_3   0.500130 0.122699 0.496204 -0.087019
C21   C     C_3   0.496825 0.964359 0.630410 0.376290
C22   C     C_3   0.502626 0.035586 0.369571 0.378348
C23   C     C_R   0.389808 0.499170 0.500141 0.885023
C24   C     C_R   0.610252 0.501818 0.499837 0.882905
C25   C     C_3   0.470274 0.406011 0.047248 -0.047467
C26   C     C_3   0.529684 0.593992 0.952802 -0.049557
C27   C     C_3   0.521738 0.395699 0.949512 -0.028768
C28   C     C_3   0.478234 0.604265 0.050508 -0.027348
C29   C     C_3   0.448490 0.510311 0.951904 -0.092724
C30   C     C_3   0.551499 0.489693 0.048095 -0.094919
C31   C     C_R   0.880483 0.563250 0.383566 0.584884
C32   C     C_R   0.119747 0.491770 0.616959 0.570380
C33   C     C_R   0.879309 0.491719 0.615158 0.584316
C34   C     C_R   0.121072 0.559291 0.383915 0.596418
C35   C     C_R   0.939527 0.493756 0.621322 -0.092958
C36   C     C_R   0.060809 0.563636 0.379918 -0.094784
C37   C     C_R   0.969968 0.529392 0.501545 -0.053356
C38   C     C_R   0.030338 0.529428 0.500179 -0.051082
C39   C     C_R   0.940149 0.564578 0.382556 -0.062890
C40   C     C_R   0.060122 0.494275 0.619219 -0.059835
C41   C     C_R   0.970587 0.461188 0.740752 0.321892
C42   C     C_R   0.029716 0.599452 0.261647 0.319998
C43   C     C_R   0.030113 0.461665 0.737891 -0.140272
C44   C     C_R   0.970170 0.599764 0.264797 -0.143588
H1    H     H_    0.540004 0.307813 0.902145 0.166398
H2    H     H_    0.459978 0.692157 0.097888 0.166892
H3    H     H_    0.445196 0.326979 0.091724 0.165584
H4    H     H_    0.554326 0.673683 0.908560 0.165388
H5    H     H_    0.405092 0.519015 0.906717 0.154297
H6    H     H_    0.594905 0.481029 0.093257 0.151709
H7    H     H_    0.052980 0.435688 0.829905 0.234951
H8    H     H_    0.947293 0.627168 0.173300 0.233752
H9    H     H_    0.326906 0.693776 0.575573 0.161590
H10   H     H_    0.680754 0.325327 0.409281 0.162848
H11   H     H_    0.587443 0.914337 0.393921 0.168328
H12   H     H_    0.412007 0.085511 0.606143 0.166702
H13   H     H_    0.582942 0.083772 0.626142 0.172867
H14   H     H_    0.416498 0.916071 0.373948 0.168722
N1    N     N_R   0.851825 0.525919 0.497867 -0.351404
N2    N     N_R   0.148467 0.523165 0.500588 -0.352023
N3    N     N_3   0.499960 0.500030 0.863290 -0.089466
N4    N     N_3   0.500040 0.499970 0.136710 -0.089853
O1    O     O_R   0.500000 0.313960 0.616610 -0.618722
O2    O     O_R   0.500000 0.686040 0.383390 -0.617948
O3    O     O_R   0.500030 0.313950 0.383350 -0.590953
O4    O     O_R   0.499970 0.686050 0.616650 -0.591589
O5    O     O_R   0.416140 0.499970 0.616650 -0.615919
O6    O     O_R   0.583860 0.500030 0.383350 -0.615406
O7    O     O_R   0.416170 0.499960 0.383400 -0.613987
O8    O     O_R   0.583830 0.500040 0.616600 -0.613397
O9    O     O_2   0.851021 0.598604 0.271393 -0.525506
O10   O     O_2   0.149156 0.457780 0.729753 -0.514026
O11   O     O_2   0.847815 0.455450 0.723669 -0.479861
O12   O     O_2   0.152660 0.589573 0.273388 -0.482577
Zn1   Zn    Zn3+2 0.499980 0.500010 0.655740 0.966346
Zn2   Zn    Zn3+2 0.500020 0.499990 0.344260 0.966664
Br1   Br    Br    0.937081 0.415717 0.914076 -0.377717
Br2   Br    Br    0.063193 0.649188 0.089781 -0.365536
C45   C     C_3   0.214576 0.747471 0.586809 -0.386773
C46   C     C_3   0.224010 0.850287 0.479979 -0.760078
H15   H     H_    0.270428 0.869525 0.466175 0.242622
H16   H     H_    0.205284 0.819962 0.380123 0.295302
H17   H     H_    0.202803 0.939937 0.514369 0.277509
H18   H     H_    0.167825 0.737530 0.604039 0.219540
H19   H     H_    0.233379 0.779287 0.686163 0.227252
C47   C     C_3   0.794832 0.296509 0.391405 -0.401172
C48   C     C_3   0.789382 0.282691 0.235938 -0.722778
H20   H     H_    0.743860 0.269942 0.205937 0.247331
H21   H     H_    0.806894 0.368211 0.185009 0.302793
H22   H     H_    0.813925 0.197950 0.199900 0.265743
H23   H     H_    0.841011 0.300706 0.417668 0.216517
H24   H     H_    0.777455 0.209802 0.440582 0.226296
C49   C     C_3   0.325685 0.268936 0.415702 -0.388894
C50   C     C_3   0.331126 0.257402 0.260061 -0.734896
H25   H     H_    0.288230 0.251586 0.211620 0.290175
H26   H     H_    0.354202 0.341004 0.218945 0.255396
H27   H     H_    0.355536 0.169826 0.232594 0.251439
H28   H     H_    0.369129 0.262524 0.460928 0.182264
H29   H     H_    0.302118 0.185534 0.455864 0.234294
C51   C     C_3   0.665711 0.738210 0.600773 -0.380564
C52   C     C_3   0.662678 0.740481 0.757108 -0.731631
H30   H     H_    0.645244 0.649094 0.794807 0.252997
H31   H     H_    0.705786 0.755540 0.802097 0.289740
H32   H     H_    0.634270 0.819385 0.792178 0.253958
H33   H     H_    0.684840 0.828275 0.563935 0.233148
H34   H     H_    0.621463 0.737739 0.559936 0.187189
Br3   Br    Br    0.188738 0.258315 0.405116 -0.479702
Br4   Br    Br    0.801438 0.777220 0.606102 -0.465019
Br5   Br    Br    0.491776 0.917413 0.821322 -0.510174
Br6   Br    Br    0.507596 0.082491 0.178633 -0.508663

loop_
_geom_bond_atom_site_label_1
_geom_bond_atom_site_label_2
_ccdc_geom_bond_type
C48   H20   S    
C49   C50   S    
C18   C21   S    
C41   C43   A    
C23   O7    A    
C36   C42   A    
C3    C45   S    
C24   O8    A    
C32   O10   S    
C13   N2    S    
C29   H5    S    
N3    Zn1   S    
C14   N1    S    
C28   H2    S    
C51   H33   S    
C52   H30   S    
O3    Zn2   S    
C5    H9    S    
C28   C29   S    
C35   C37   A    
C26   N3    S    
C47   H23   S    
C41   Br1   S    
C45   H18   S    
C33   C35   A    
C4    C47   S    
C31   N1    A    
O7    Zn2   S    
C15   C17   S    
C23   O5    A    
C27   N3    S    
C8    C24   S    
C40   C43   A    
C22   Br6   S    
C1    O3    A    
C49   H29   S    
C18   C20   S    
C3    C13   A    
C26   H4    S    
C44   H8    S    
C31   O9    S    
C30   H6    S    
C33   N1    A    
C27   C30   S    
C34   N2    A    
C15   H13   S    
N4    Zn2   S    
C42   C44   A    
C6    H10   S    
C46   H17   S    
C1    O1    A    
C2    O2    A    
C25   C29   S    
C15   C20   S    
C29   N3    S    
C4    C6    A    
C5    C7    A    
C47   C48   S    
C6    C8    A    
C50   H27   S    
C3    C5    A    
C50   H26   S    
C37   C38   A    
O2    Zn2   S    
C16   C18   S    
C16   H14   S    
O6    Zn2   S    
C10   C51   S    
C9    C11   A    
C10   C12   A    
C34   O12   S    
C33   O11   S    
C12   C14   A    
C42   Br2   S    
C52   H32   S    
C30   N4    S    
C11   Br3   S    
O5    Zn1   S    
C32   N2    A    
C9    C49   S    
C45   H19   S    
C12   Br4   S    
C52   H31   S    
C7    C9    A    
C17   H11   S    
C25   H3    S    
C1    C20   S    
C16   C22   S    
C19   C21   S    
C2    C19   S    
C51   H34   S    
C20   C22   S    
C46   H15   S    
C2    O4    A    
C21   Br5   S    
C26   C30   S    
C39   C44   A    
C18   H12   S    
C25   C27   S    
C26   C28   S    
C17   C22   S    
C36   C38   A    
C37   C39   A    
C47   H24   S    
C38   C40   A    
C11   C13   A    
C27   H1    S    
O1    Zn1   S    
C43   H7    S    
C16   C19   S    
C7    C23   S    
O4    Zn1   S    
C51   C52   S    
C17   C19   S    
C46   H16   S    
C31   C39   A    
C34   C36   A    
C25   N4    S    
C32   C40   A    
C4    C14   A    
C50   H25   S    
C35   C41   A    
C24   O6    A    
C45   C46   S    
C15   C21   S    
C8    C10   A    
C48   H22   S    
O8    Zn1   S    
C48   H21   S    
C49   H28   S    
C28   N4    S    
