data_mof_unit_16085.cif
_audit_creation_date              2012-12-10T17:49:40-0500
_audit_creation_method            fapswitch 2.2
_symmetry_space_group_name_H-M    P1
_symmetry_Int_Tables_number       1
_space_group_crystal_system       triclinic
_cell_length_a                    10.500315
_cell_length_b                    10.724849
_cell_length_c                    9.926824
_cell_angle_alpha                 89.731474
_cell_angle_beta                  90.820111
_cell_angle_gamma                 92.138651
_cell_volume                      1116.9995044

loop_
_atom_site_label
_atom_site_type_symbol
_atom_type_description
_atom_site_fract_x
_atom_site_fract_y
_atom_site_fract_z
_atom_type_partial_charge
C1    C     C_R   0.508232 0.260144 0.501647 0.855212
C2    C     C_R   0.502738 0.059417 0.630762 0.097168
C3    C     C_R   0.514135 0.126255 0.506913 -0.120223
C4    C     C_R   0.257568 0.499388 0.499107 0.862168
C5    C     C_R   0.509890 0.063616 0.383760 -0.220797
C6    C     C_R   0.493692 0.936539 0.381485 -0.199676
C7    C     C_R   0.471945 0.871328 0.501459 -0.131842
C8    C     C_R   0.331697 0.336662 0.138266 -0.143710
C9    C     C_R   0.248819 0.255909 0.067367 -0.210333
C10   C     C_R   0.248937 0.255590 0.927886 -0.185724
C11   C     C_R   0.331994 0.335953 0.858412 -0.117088
C12   C     C_3   0.961752 0.598547 0.436644 0.475749
C13   C     C_R   0.417248 0.419169 0.926798 0.079365
C14   C     C_R   0.417203 0.419367 0.071328 0.132751
C15   C     C_R   0.578530 0.577319 0.073711 -0.109536
C16   C     C_R   0.487538 0.738799 0.499984 0.898526
C17   C     C_R   0.579457 0.578174 0.931468 0.441393
C18   C     C_R   0.742465 0.500189 0.500941 0.924162
C19   C     C_3   0.040212 0.397203 0.565428 -0.160229
C20   C     C_3   0.952659 0.395493 0.438655 -0.240607
C21   C     C_3   0.877464 0.498964 0.502716 -0.009034
C22   C     C_3   0.962583 0.500839 0.629494 -0.176740
C23   C     C_3   0.038143 0.497371 0.370308 -0.212763
C24   C     C_3   0.048099 0.603265 0.562155 -0.242972
C25   C     C_3   0.122677 0.499418 0.497678 -0.034993
C26   C     C_R   0.532160 0.110362 0.759884 -0.160207
C27   C     C_R   0.492715 0.048607 0.876896 -0.130953
C28   C     C_R   0.424837 0.935281 0.867591 -0.121520
C29   C     C_R   0.408019 0.878189 0.742510 -0.143764
C30   C     C_R   0.458878 0.935013 0.624681 0.095738
H1    H     H_    0.909254 0.310993 0.389631 0.153117
H2    H     H_    0.072415 0.497714 0.264992 0.160253
H3    H     H_    0.520510 0.112470 0.288516 0.172140
H4    H     H_    0.512559 0.090096 0.974559 0.141381
H5    H     H_    0.325926 0.331780 0.245158 0.205638
H6    H     H_    0.327231 0.329359 0.751510 0.202950
H7    H     H_    0.658029 0.651993 0.774564 0.393861
H8    H     H_    0.091182 0.688454 0.610117 0.140328
H9    H     H_    0.990757 0.750427 0.337642 0.324629
H10   H     H_    0.588893 0.195512 0.773336 0.170341
H11   H     H_    0.388894 0.889647 0.957598 0.133591
H12   H     H_    0.354370 0.790145 0.739020 0.154391
H13   H     H_    0.500243 0.889502 0.285577 0.173918
H14   H     H_    0.642565 0.640331 0.129255 0.192249
H15   H     H_    0.184152 0.193140 0.121162 0.151600
H16   H     H_    0.184670 0.192282 0.872958 0.147342
H17   H     H_    0.077816 0.314469 0.618168 0.134383
H18   H     H_    0.927948 0.501555 0.734638 0.174556
N1    N     N_R   0.498800 0.498800 0.142780 -0.163628
N2    N     N_R   0.498760 0.498720 0.857170 -0.187804
O1    O     O_R   0.500000 0.316780 0.614690 -0.655189
O2    O     O_3   0.914522 0.702826 0.370393 -0.767702
O3    O     O_R   0.499990 0.316750 0.385360 -0.640434
O4    O     O_R   0.313960 0.499980 0.614650 -0.640778
O5    O     O_R   0.313940 0.499960 0.385310 -0.645599
O6    O     O_R   0.500010 0.683250 0.614640 -0.641289
O7    O     O_R   0.500000 0.683220 0.385310 -0.612374
O8    O     O_R   0.686060 0.500040 0.614690 -0.654198
O9    O     O_R   0.686040 0.500020 0.385350 -0.591924
O10   O     O_3   0.664229 0.661687 0.872383 -0.774095
Zn1   Zn    Zn3+2 0.500010 0.500020 0.653130 0.918176
Zn2   Zn    Zn3+2 0.499990 0.499980 0.346870 0.940648

loop_
_geom_bond_atom_site_label_1
_geom_bond_atom_site_label_2
_ccdc_geom_bond_type
C17   N2    A    
C10   H16   S    
C22   H18   S    
C16   O6    A    
C9    H15   S    
C6    C7    A    
O4    Zn1   S    
C13   C14   A    
C29   H12   S    
C18   C21   S    
C11   C13   A    
C9    C10   A    
C12   C24   S    
C24   H8    S    
C19   C20   S    
O1    Zn1   S    
C20   C23   S    
C8    H5    S    
C2    C30   A    
C23   H2    S    
C3    C5    A    
O8    Zn1   S    
C15   N1    A    
H9    O2    S    
O7    Zn2   S    
C2    C26   A    
C7    C30   A    
C21   C22   S    
C24   C25   S    
C1    O1    A    
C12   C23   S    
C26   H10   S    
C26   C27   A    
C29   C30   A    
C11   H6    S    
C12   O2    S    
C15   H14   S    
C2    C3    A    
C22   C24   S    
C16   O7    A    
C23   C25   S    
C27   H4    S    
C5    C6    A    
C19   C25   S    
C19   H17   S    
C14   N1    A    
C10   C11   A    
C17   O10   S    
C13   N2    A    
H7    O10   S    
O5    Zn2   S    
C4    C25   S    
C18   O9    A    
C19   C22   S    
C20   C21   S    
O3    Zn2   S    
C27   C28   A    
C15   C17   A    
N2    Zn1   S    
C1    O3    A    
C6    H13   S    
C28   C29   A    
O9    Zn2   S    
C8    C14   A    
N1    Zn2   S    
C4    O4    A    
O6    Zn1   S    
C12   C21   S    
C18   O8    A    
C7    C16   S    
C28   H11   S    
C4    O5    A    
C8    C9    A    
C1    C3    S    
C20   H1    S    
C5    H3    S    
