data_mof_unit_13823.cif
_audit_creation_date              2013-03-05T15:50:44-0500
_audit_creation_method            fapswitch 2.2
_symmetry_space_group_name_H-M    P1
_symmetry_Int_Tables_number       1
_space_group_crystal_system       triclinic
_cell_length_a                    22.830683
_cell_length_b                    7.229621
_cell_length_c                    20.791761
_cell_angle_alpha                 90.003952
_cell_angle_beta                  93.304896
_cell_angle_gamma                 89.996393
_cell_volume                      3426.122037

loop_
_atom_site_label
_atom_site_type_symbol
_atom_site_description
_atom_site_fract_x
_atom_site_fract_y
_atom_site_fract_z
_atom_type_partial_charge
O1    O     O_R   0.438030 0.494310 0.439340 -0.591949
O2    O     O_R   0.561970 0.994310 0.560660 -0.591935
O3    O     O_R   0.556900 0.822900 0.435960 -0.583992
O4    O     O_R   0.443100 0.322900 0.564040 -0.584001
C1    C     C_R   0.575813 0.655500 0.421075 0.962079
C2    C     C_R   0.424186 0.155513 0.578925 0.962065
O5    O     O_R   0.438170 0.823950 0.431660 -0.594844
O6    O     O_R   0.561830 0.323950 0.568340 -0.594821
O7    O     O_R   0.442390 0.995390 0.556340 -0.584269
O8    O     O_R   0.557610 0.495390 0.443660 -0.584276
C3    C     C_R   0.418445 0.655306 0.415587 0.930632
C4    C     C_R   0.581555 0.155306 0.584413 0.930607
O9    O     O_3   0.501520 0.661170 0.540910 -0.286096
O10   O     O_3   0.498480 0.161170 0.459090 -0.286104
V1    V     V_3+5 0.499720 0.935580 0.492410 1.158975
V2    V     V_3+5 0.500280 0.435580 0.507590 1.158987
C5    C     C_R   0.829665 0.935184 0.856534 -0.214786
C6    C     C_R   0.170289 0.435096 0.143527 -0.214833
C7    C     C_R   0.869136 0.083884 0.865746 -0.135713
C8    C     C_R   0.130865 0.583890 0.134252 -0.135684
C9    C     C_R   0.860597 0.244462 0.827918 -0.228010
C10   C     C_R   0.139453 0.744565 0.172018 -0.228021
C11   C     C_R   0.813635 0.256900 0.781394 0.146208
C12   C     C_R   0.186409 0.756989 0.218548 0.146215
C13   C     C_R   0.773887 0.108200 0.773125 0.034640
C14   C     C_R   0.226114 0.608203 0.226874 0.034755
C15   C     C_R   0.781833 0.947092 0.811005 0.140965
C16   C     C_R   0.218126 0.447014 0.189049 0.140969
C17   C     C_R   0.805665 0.415602 0.742969 -0.203190
C18   C     C_R   0.194416 0.915762 0.256924 -0.203337
C19   C     C_R   0.758400 0.427836 0.697181 -0.204313
C20   C     C_R   0.241678 0.927987 0.302715 -0.204437
C21   C     C_R   0.718107 0.281871 0.689080 0.146925
C22   C     C_R   0.281934 0.781949 0.310865 0.146921
C23   C     C_R   0.726056 0.120756 0.726956 0.037154
C24   C     C_R   0.273944 0.620753 0.273044 0.037276
C25   C     C_R   0.686314 0.972042 0.718676 0.146414
C26   C     C_R   0.313642 0.471954 0.281381 0.146414
C27   C     C_R   0.694278 0.813354 0.757111 -0.211297
C28   C     C_R   0.305641 0.313195 0.242996 -0.211447
C29   C     C_R   0.741537 0.801136 0.802909 -0.189084
C30   C     C_R   0.258385 0.300986 0.197193 -0.189207
C31   C     C_R   0.670283 0.293768 0.643542 -0.241596
C32   C     C_R   0.329763 0.793856 0.356397 -0.241651
C33   C     C_R   0.630831 0.145030 0.634298 -0.135353
C34   C     C_R   0.369167 0.645024 0.365703 -0.135343
C35   C     C_R   0.639367 0.984450 0.672128 -0.240767
C36   C     C_R   0.360582 0.484348 0.327936 -0.240789
H1    H     H_    0.835476 0.811460 0.885681 0.142181
H2    H     H_    0.164439 0.311283 0.114435 0.142180
H3    H     H_    0.890857 0.359488 0.834253 0.147006
H4    H     H_    0.109236 0.859680 0.165632 0.147027
H5    H     H_    0.835879 0.530879 0.748516 0.148337
H6    H     H_    0.164239 0.031113 0.251330 0.148349
H7    H     H_    0.753247 0.552028 0.668227 0.146646
H8    H     H_    0.246863 0.052240 0.331628 0.146714
H9    H     H_    0.664468 0.417508 0.614405 0.139088
H10   H     H_    0.335616 0.917685 0.385479 0.139116
H11   H     H_    0.609119 0.869403 0.665774 0.144936
H12   H     H_    0.390789 0.369212 0.334341 0.144974
H13   H     H_    0.664068 0.698071 0.751561 0.145819
H14   H     H_    0.335815 0.197838 0.248593 0.145852
H15   H     H_    0.746687 0.676952 0.831869 0.149944
H16   H     H_    0.253204 0.176741 0.168275 0.149996
C37   C     C_3   0.235308 0.302679 0.792169 0.202292
C38   C     C_3   0.764693 0.802704 0.207856 0.202308
C39   C     C_3   0.256292 0.959764 0.807493 -0.270912
C40   C     C_3   0.743709 0.459815 0.192484 -0.270899
C41   C     C_3   0.305679 0.972699 0.759211 -0.378271
C42   C     C_3   0.694315 0.472750 0.240759 -0.378252
H17   H     H_    0.328586 0.347830 0.771114 0.211263
H18   H     H_    0.671421 0.847924 0.228933 0.211264
H19   H     H_    0.237912 0.817738 0.807008 0.221953
H20   H     H_    0.762087 0.317782 0.192957 0.222011
H21   H     H_    0.275158 0.979395 0.857379 0.212322
H22   H     H_    0.724850 0.479478 0.142598 0.212307
H23   H     H_    0.348269 0.001272 0.786116 0.184873
H24   H     H_    0.651732 0.501398 0.213852 0.184911
H25   H     H_    0.310021 0.837109 0.734564 0.174665
H26   H     H_    0.689959 0.337139 0.265380 0.174642
C43   C     C_1   0.378557 0.146602 0.624687 -0.272409
C44   C     C_1   0.621441 0.646565 0.375313 -0.272415
C45   C     C_3   0.207257 0.104581 0.791101 -0.017313
C46   C     C_3   0.792744 0.604600 0.208899 -0.017349
C47   C     C_3   0.286153 0.313006 0.744949 -0.502868
C48   C     C_3   0.713854 0.813023 0.255085 -0.502878
C49   C     C_3   0.292339 0.126970 0.708556 0.290788
C50   C     C_3   0.707659 0.626951 0.291442 0.290768
C51   C     C_3   0.232655 0.081720 0.672323 -0.495853
C52   C     C_3   0.767338 0.581617 0.327670 -0.495860
C53   C     C_3   0.182318 0.071486 0.720208 0.219087
C54   C     C_3   0.817680 0.571450 0.279789 0.219099
C55   C     C_1   0.339973 0.138223 0.662542 -0.012152
C56   C     C_1   0.660025 0.638187 0.337457 -0.012155
C57   C     C_1   0.159747 0.092281 0.837382 0.068506
C58   C     C_1   0.840254 0.592317 0.162619 0.068493
C59   C     C_1   0.121263 0.083447 0.875321 -0.181557
C60   C     C_1   0.878738 0.583484 0.124679 -0.181575
H27   H     H_    0.151170 0.186415 0.707563 0.089296
H28   H     H_    0.848817 0.686384 0.292454 0.089299
H29   H     H_    0.222002 0.190726 0.635688 0.165318
H30   H     H_    0.777990 0.690550 0.364336 0.165298
H31   H     H_    0.200643 0.401425 0.774126 0.120239
H32   H     H_    0.799360 0.901428 0.225905 0.120301
H33   H     H_    0.276876 0.426469 0.709618 0.172473
H34   H     H_    0.723143 0.926431 0.290438 0.172454
H35   H     H_    0.236450 0.949727 0.645387 0.210685
H36   H     H_    0.763539 0.449575 0.354569 0.210673
O11   O     O_R   0.942420 0.735670 0.056390 -0.577347
O12   O     O_R   0.057580 0.235670 0.943610 -0.577346
O13   O     O_R   0.061840 0.404850 0.068350 -0.595043
O14   O     O_R   0.938160 0.904850 0.931650 -0.595021
C61   C     C_R   0.081568 0.573599 0.084396 0.945538
C62   C     C_R   0.918432 0.073599 0.915603 0.945510
O15   O     O_R   0.943100 0.406010 0.064050 -0.573517
O16   O     O_R   0.056900 0.906010 0.935950 -0.573524
O17   O     O_R   0.938020 0.234710 0.939330 -0.593796
O18   O     O_R   0.061980 0.734710 0.060670 -0.593808
C63   C     C_R   0.924296 0.574471 0.078872 0.943538
C64   C     C_R   0.075704 0.074458 0.921127 0.943535
O19   O     O_3   0.998500 0.567790 0.959120 -0.282997
O20   O     O_3   0.001500 0.067790 0.040880 -0.283002
V3    V     V_3+5 0.000280 0.293330 0.007580 1.200350
V4    V     V_3+5 0.999720 0.793330 0.992420 1.200368
N1    N     N_R   0.255061 0.362359 0.857431 0.249608
O21   O     O_R   0.302430 0.294927 0.886347 -0.396161
O22   O     O_R   0.226951 0.493486 0.885455 -0.401204
N2    N     N_R   0.744933 0.862421 0.142602 0.249607
O23   O     O_R   0.697556 0.795040 0.113689 -0.396185
O24   O     O_R   0.773048 0.993524 0.114583 -0.401220
N3    N     N_R   0.149351 0.897371 0.712975 0.255924
O25   O     O_R   0.176114 0.738537 0.711893 -0.433264
O26   O     O_R   0.092592 0.901983 0.702894 -0.376665
N4    N     N_R   0.850661 0.397349 0.287001 0.255925
O27   O     O_R   0.823912 0.238496 0.288027 -0.433265
O28   O     O_R   0.907410 0.401989 0.297151 -0.376630

loop_
_geom_bond_atom_site_label_1
_geom_bond_atom_site_label_2
_geom_bond_distance
_ccdc_geom_bond_type
C18   C20   1.400049 A    
C39   C45   1.556122 S    
C44   C56   1.216170 T    
C42   H24   1.112807 S    
C41   H23   1.112822 S    
O1    C3    1.331591 A    
O2    C4    1.331584 A    
N2    O23   1.301429 A    
C2    O7    1.325034 A    
O14   C62   1.336116 A    
C60   C63   1.451675 S    
C27   C29   1.400075 A    
O5    C3    1.335544 A    
C18   H6    1.083683 S    
O11   C63   1.330540 A    
C11   C17   1.403982 A    
C23   C25   1.411000 A    
C12   C14   1.410869 A    
O14   V4    2.004262 S    
C8    C61   1.487369 S    
C48   C50   1.553565 S    
C37   C45   1.568511 S    
C53   N3    1.469926 S    
C40   H20   1.109066 S    
C28   H14   1.083680 S    
C37   N1    1.469739 S    
C46   C58   1.493541 S    
C52   H30   1.113146 S    
O19   V4    1.771024 S    
C5    C7    1.408778 A    
H17   C47   1.112266 S    
C49   C51   1.553358 S    
C32   H10   1.084235 S    
C58   C60   1.215814 T    
C19   C21   1.403722 A    
C39   H19   1.109082 S    
C25   C35   1.404956 A    
C26   C36   1.404937 A    
C41   C49   1.552121 S    
C47   C49   1.553576 S    
C42   C50   1.552097 S    
O6    V2    2.004184 S    
C2    C43   1.452219 S    
C48   H34   1.113312 S    
C47   H33   1.113321 S    
C32   C34   1.408683 A    
C36   H12   1.084228 S    
C50   C56   1.491502 S    
C33   C35   1.409549 A    
C27   H13   1.083776 S    
C34   C36   1.409460 A    
C35   H11   1.084304 S    
O15   V3    1.980619 S    
C42   H26   1.113150 S    
C5    C15   1.406016 A    
C38   H32   1.114645 S    
C22   C32   1.405996 A    
O4    C2    1.327495 A    
C5    H1    1.084314 S    
C54   H28   1.115165 S    
C4    C33   1.487422 S    
N4    O28   1.301084 A    
O5    V1    2.004187 S    
C7    C62   1.487361 S    
O3    C1    1.327485 A    
O13   V3    2.004263 S    
O16   C64   1.333320 A    
C39   C41   1.555119 S    
C40   C46   1.556105 S    
O4    V2    1.980487 S    
O12   V3    1.963324 S    
C43   C55   1.216179 T    
C15   C29   1.403722 A    
C52   C54   1.565047 S    
O6    C4    1.335530 A    
C45   C57   1.493556 S    
C51   H35   1.112335 S    
C6    C16   1.406007 A    
O13   C61   1.336130 A    
O1    V2    1.995311 S    
O18   V4    1.995293 S    
O2    V1    1.995308 S    
C31   C33   1.408779 A    
C13   C23   1.414682 A    
C14   C24   1.414677 A    
C8    C10   1.409440 A    
O15   C63   1.333310 A    
C9    C11   1.404903 A    
N1    O21   1.301435 A    
C10   C12   1.404885 A    
C41   H25   1.113164 S    
C39   H21   1.109033 S    
C29   H15   1.083657 S    
O12   C64   1.330526 A    
N3    O25   1.301521 A    
C30   H16   1.083549 S    
C9    H3    1.084308 S    
O3    V1    1.980355 S    
C6    H2    1.084238 S    
C10   H4    1.084232 S    
O16   V4    1.980750 S    
C51   H29   1.113153 S    
C54   N4    1.469908 S    
C50   C52   1.553334 S    
C28   C30   1.400072 A    
N3    O26   1.301128 A    
N2    O24   1.301168 A    
C38   C48   1.564750 S    
H18   C48   1.112251 S    
C57   C59   1.215821 T    
O11   V4    1.963400 S    
C37   C47   1.564744 S    
N4    O27   1.301503 A    
C40   H22   1.109030 S    
C45   C53   1.567578 S    
C14   C16   1.411782 A    
C19   H7    1.083654 S    
C59   C64   1.451691 S    
C24   C26   1.410872 A    
O17   V3    1.995293 S    
C52   H36   1.112330 S    
C1    O8    1.325049 A    
C17   C19   1.400052 A    
O8    V2    1.966649 S    
C26   C28   1.403855 A    
C1    C44   1.452207 S    
C17   H5    1.083779 S    
C49   C55   1.491518 S    
C16   C30   1.403580 A    
C21   C23   1.411905 A    
C22   C24   1.411779 A    
C38   N2    1.469736 S    
C6    C8    1.408682 A    
C11   C13   1.410998 A    
O7    V1    1.966574 S    
C12   C18   1.403838 A    
C62   O17   1.332140 A    
C31   H9    1.084311 S    
C38   C46   1.568486 S    
C61   O18   1.332148 A    
C25   C27   1.403999 A    
C51   C53   1.565060 S    
O9    V2    1.771518 S    
N1    O22   1.301168 A    
C40   C42   1.555112 S    
C37   H31   1.114662 S    
O10   V1    1.771602 S    
C3    C34   1.487430 S    
C46   C54   1.567571 S    
C53   H27   1.115180 S    
O20   V3    1.771109 S    
C21   C31   1.406006 A    
C20   H8    1.083546 S    
C20   C22   1.403579 A    
C7    C9    1.409529 A    
C13   C15   1.411911 A    
