data_mof_unit_61343.cif
_audit_creation_date              2013-03-05T15:55:52-0500
_audit_creation_method            fapswitch 2.2
_symmetry_space_group_name_H-M    P1
_symmetry_Int_Tables_number       1
_space_group_crystal_system       triclinic
_cell_length_a                    18.752614
_cell_length_b                    18.714048
_cell_length_c                    18.806587
_cell_angle_alpha                 109.367384
_cell_angle_beta                  109.507868
_cell_angle_gamma                 109.17293
_cell_volume                      5103.3855396

loop_
_atom_site_label
_atom_site_type_symbol
_atom_site_description
_atom_site_fract_x
_atom_site_fract_y
_atom_site_fract_z
_atom_type_partial_charge
O1    O     O_R   0.410130 0.357660 0.448070 -0.533880
O2    O     O_R   0.409500 0.461990 0.551910 -0.562421
C1    C     C_R   0.381088 0.381082 0.499988 0.889628
O3    O     O_R   0.590970 0.447820 0.538740 -0.493317
O4    O     O_R   0.590340 0.552140 0.642570 -0.555832
C2    C     C_R   0.622948 0.503249 0.619268 0.860402
Cu1   Cu    Cu3+1 0.500370 0.438230 0.438520 1.145788
Cu2   Cu    Cu3+1 0.499630 0.561770 0.561480 1.114245
O5    O     O_R   0.590500 0.538010 0.448090 -0.562833
O6    O     O_R   0.589870 0.642340 0.551930 -0.581370
O7    O     O_R   0.409660 0.447860 0.357430 -0.601995
O8    O     O_R   0.409030 0.552180 0.461260 -0.562480
C3    C     C_R   0.618770 0.619067 0.499722 0.814852
C4    C     C_R   0.380522 0.500266 0.380445 0.811625
C5    C     C_3   0.658330 0.411709 0.679206 0.151687
H1    H     H_    0.596851 0.394881 0.681848 0.134530
C6    C     C_3   0.723747 0.412725 0.756174 -0.407298
H2    H     H_    0.696624 0.406723 0.799640 0.180418
H3    H     H_    0.734283 0.356070 0.733379 0.231467
H4    H     H_    0.839797 0.448053 0.706678 0.212254
C7    C     C_3   0.780708 0.529289 0.678519 0.536674
C8    C     C_3   0.719476 0.570118 0.781704 0.193883
C9    C     C_3   0.694659 0.504557 0.686898 -0.229385
H5    H     H_    0.662968 0.543990 0.791315 0.128474
C10   C     C_3   0.811320 0.498913 0.807312 -0.076656
C11   C     C_3   0.840997 0.509608 0.741631 -0.411716
C12   C     C_3   0.797322 0.575103 0.850049 -0.404905
H6    H     H_    0.784582 0.572730 0.903212 0.157867
H7    H     H_    0.857782 0.637718 0.880082 0.252638
H8    H     H_    0.910413 0.559312 0.774616 0.225135
C13   C     C_R   0.240271 0.322862 0.497632 0.240510
C14   C     C_R   0.176360 0.259999 0.499933 0.309381
C15   C     C_R   0.184843 0.188693 0.502368 -0.214420
C16   C     C_R   0.256944 0.181165 0.504267 -0.204207
H9    H     H_    0.263247 0.126221 0.506312 0.213853
C17   C     C_R   0.320568 0.242986 0.502183 0.354526
C18   C     C_R   0.312683 0.314203 0.498847 -0.286537
C19   C     C_R   0.311959 0.578852 0.328629 -0.196361
H10   H     H_    0.360836 0.638177 0.389686 0.190682
C20   C     C_R   0.247527 0.580753 0.265872 0.331925
C21   C     C_R   0.183549 0.502543 0.186960 -0.125721
C22   C     C_R   0.184974 0.424744 0.172541 -0.156954
H11   H     H_    0.136353 0.364692 0.112056 0.174637
C23   C     C_R   0.250142 0.424122 0.235049 -0.108799
H12   H     H_    0.250342 0.363401 0.222706 0.171862
C24   C     C_R   0.313481 0.501032 0.313515 -0.065387
C25   C     C_R   0.747308 0.765868 0.576480 -0.068421
H13   H     H_    0.745745 0.778449 0.636318 0.194467
C26   C     C_R   0.812621 0.829079 0.576913 -0.101900
H14   H     H_    0.860494 0.890033 0.636718 0.162263
C27   C     C_R   0.814693 0.814227 0.499878 -0.001245
C28   C     C_R   0.752365 0.735714 0.422677 -0.160034
H15   H     H_    0.753800 0.724017 0.362878 0.143043
C29   C     C_R   0.688877 0.671218 0.422853 -0.139659
H16   H     H_    0.641439 0.610297 0.362912 0.159817
C30   C     C_R   0.685814 0.686260 0.499668 -0.016738
O9    O     O_R   0.945590 0.357610 0.907590 -0.591645
O10   O     O_R   0.049990 0.461930 0.907530 -0.544555
C31   C     C_R   0.999036 0.381099 0.880131 0.853641
O11   O     O_R   0.854450 0.447820 0.906640 -0.592850
O12   O     O_R   0.958850 0.552130 0.906580 -0.588859
C32   C     C_R   0.878299 0.498129 0.876023 0.801246
Cu3   Cu    Cu3+1 0.935490 0.438190 0.997300 1.019867
Cu4   Cu    Cu3+1 0.059110 0.561720 0.997220 1.109482
O13   O     O_R   0.944620 0.537990 0.086990 -0.596266
O14   O     O_R   0.049020 0.642300 0.086930 -0.559447
O15   O     O_R   0.035760 0.447780 0.087940 -0.586941
O16   O     O_R   0.140150 0.552090 0.087880 -0.525414
C33   C     C_R   0.996592 0.619041 0.115592 0.840008
C34   C     C_R   0.116657 0.500850 0.117758 0.888311
O17   O     O_R   0.948110 0.909780 0.357760 -0.560329
O18   O     O_R   0.053050 0.909790 0.462730 -0.575755
C35   C     C_R   0.001317 0.881811 0.381927 0.814195
O19   O     O_R   0.037720 0.090080 0.447430 -0.519124
O20   O     O_R   0.142660 0.090100 0.552410 -0.596355
C36   C     C_R   0.118541 0.120327 0.501395 0.889138
Cu5   Cu    Cu3+1 0.937870 0.999900 0.437760 1.140785
Cu6   Cu    Cu3+1 0.062130 0.999920 0.562070 1.042042
O21   O     O_R   0.946950 0.090030 0.537090 -0.524381
O22   O     O_R   0.051890 0.090040 0.642060 -0.596658
O23   O     O_R   0.857350 0.909730 0.447410 -0.555480
O24   O     O_R   0.962280 0.909740 0.552390 -0.586019
C37   C     C_R   0.998038 0.117509 0.617960 0.864856
C38   C     C_R   0.881323 0.880976 0.499812 0.788742
C39   C     C_R   0.079386 0.318849 0.821738 0.353184
C40   C     C_R   0.076259 0.253380 0.755680 -0.246174
H17   H     H_    0.136487 0.256682 0.760008 0.199968
C41   C     C_R   0.996469 0.183101 0.684733 -0.183537
C42   C     C_R   0.917518 0.177226 0.678819 0.353320
C43   C     C_R   0.920662 0.243569 0.744042 -0.258890
H18   H     H_    0.860450 0.240000 0.740060 0.198909
C44   C     C_R   0.000461 0.313859 0.814926 -0.190563
C45   C     C_R   0.024366 0.769522 0.192008 -0.164829
H19   H     H_    0.042808 0.783682 0.147413 0.191174
C46   C     C_R   0.026136 0.834410 0.257129 0.383212
C47   C     C_R   0.002692 0.816385 0.315320 -0.086770
C48   C     C_R   0.977745 0.734099 0.308131 -0.218588
H20   H     H_    0.959423 0.719992 0.352820 0.161694
C49   C     C_R   0.974404 0.668970 0.241917 -0.107830
H21   H     H_    0.954650 0.605410 0.236876 0.175677
C50   C     C_R   0.997857 0.686503 0.183715 -0.074801
Cl1   Cl    Cl    0.629976 0.323911 0.579096 -0.401925
N1    N     N_R   0.824657 0.623035 0.704776 0.154520
O25   O     O_R   0.785151 0.652282 0.660679 -0.329032
O26   O     O_R   0.902931 0.678155 0.770614 -0.319804
N2    N     N_R   0.230097 0.393591 0.491019 0.172291
O27   O     O_R   0.223029 0.446804 0.550025 -0.251051
O28   O     O_R   0.228943 0.405580 0.426425 -0.350225
Cl2   Cl    Cl    0.086542 0.271699 0.500308 -0.463870
Cl3   Cl    Cl    0.410582 0.229890 0.507157 -0.487192
N3    N     N_R   0.246628 0.661385 0.284447 0.132828
O29   O     O_R   0.319175 0.735220 0.334741 -0.298156
O30   O     O_R   0.173481 0.662231 0.261371 -0.366470
N4    N     N_R   0.162437 0.387344 0.896126 0.139240
O31   O     O_R   0.230607 0.414838 0.887270 -0.311207
O32   O     O_R   0.173003 0.413126 0.974027 -0.374053
N5    N     N_R   0.834375 0.103468 0.609635 0.142157
O33   O     O_R   0.822830 0.024872 0.583785 -0.369725
O34   O     O_R   0.766890 0.113590 0.581563 -0.282427
Cl4   Cl    Cl    0.060320 0.938054 0.265668 -0.550524
N6    N     N_R   0.761924 0.478859 0.588166 0.155592
O35   O     O_R   0.787732 0.422225 0.567682 -0.280508
O36   O     O_R   0.733766 0.501891 0.531081 -0.282585
Cl5   Cl    Cl    0.741729 0.679106 0.805417 -0.473325

loop_
_geom_bond_atom_site_label_1
_geom_bond_atom_site_label_2
_geom_bond_distance
_ccdc_geom_bond_type
O21   C37   1.296111 A    
C7    C11   1.577928 S    
Cu3   O13   1.967308 S    
C45   H19   1.083577 S    
C12   H7    1.112765 S    
C21   C22   1.400892 A    
C46   C47   1.404806 A    
N4    O31   1.301411 A    
Cu1   Cu2   2.681289 S    
C4    C24   1.460157 S    
Cu5   Cu6   2.693671 S    
C28   H15   1.083606 S    
Cu1   O7    1.975560 S    
O19   C36   1.294472 A    
O11   Cu3   1.975399 S    
Cu4   O16   1.975395 S    
C17   C18   1.407392 A    
N5    O34   1.301424 A    
O4    C2    1.297544 A    
O7    C4    1.294671 A    
Cu6   O22   1.966509 S    
O9    C31   1.292767 A    
O14   C33   1.294254 A    
N2    O27   1.301008 A    
C5    H1    1.114001 S    
C48   H20   1.083771 S    
O11   C32   1.293416 A    
C16   H9    1.084314 S    
O5    C3    1.294603 A    
O18   Cu6   1.968037 S    
N3    O30   1.300533 A    
C13   C14   1.401626 A    
C23   C24   1.399202 A    
C26   C27   1.398314 A    
O19   Cu5   1.969932 S    
C16   C17   1.384974 A    
C10   C32   1.479302 S    
C3    C30   1.457787 S    
C5    C9    1.579259 S    
C37   C41   1.452782 S    
C45   C46   1.391240 A    
C22   C23   1.390867 A    
O3    Cu1   1.976841 S    
C48   C49   1.389684 A    
C39   C44   1.410799 A    
C28   C29   1.391292 A    
O9    Cu3   1.967209 S    
C20   N3    1.438846 S    
C29   C30   1.402072 A    
Cu5   O21   1.967920 S    
O10   Cu4   1.967284 S    
Cu3   O15   1.976949 S    
C19   C24   1.400241 A    
C14   Cl2   1.770323 S    
C27   C28   1.398809 A    
C25   C26   1.390968 A    
C45   C50   1.401916 A    
O17   C35   1.293851 A    
C40   H17   1.084198 S    
C10   C11   1.557416 S    
C39   C40   1.393742 A    
C13   C18   1.413149 A    
O1    C1    1.292347 A    
Cu4   O14   1.967092 S    
O12   Cu4   1.976832 S    
O20   C36   1.297391 A    
Cu6   O24   1.969838 S    
C15   C36   1.451718 S    
C43   C44   1.399441 A    
C25   H13   1.083303 S    
Cu5   O23   1.967973 S    
Cu2   O8    1.976841 S    
C47   C48   1.398180 A    
C6    H2    1.113823 S    
N1    O26   1.302403 A    
N6    O35   1.302507 A    
O3    C2    1.293105 A    
C20   C21   1.414504 A    
C49   C50   1.401461 A    
C42   N5    1.438567 S    
C11   H8    1.107781 S    
O24   C38   1.296110 A    
C8    C12   1.539376 S    
C7    C9    1.603292 S    
C17   Cl3   1.760561 S    
C13   N2    1.436347 S    
C8    H5    1.113950 S    
C22   H11   1.083803 S    
O17   Cu5   1.966607 S    
O23   C38   1.295223 A    
C23   H12   1.083324 S    
O22   C37   1.295899 A    
C5    C6    1.543048 S    
C29   H16   1.083322 S    
C39   N4    1.438741 S    
N3    O29   1.301440 A    
O1    Cu1   1.968756 S    
O2    Cu2   1.968951 S    
O8    C4    1.294776 A    
O18   C35   1.295607 A    
H4    C11   1.109262 S    
O6    C3    1.293920 A    
O4    Cu2   1.975560 S    
N4    O32   1.301137 A    
C8    Cl5   1.801780 S    
C33   C50   1.457089 S    
C46   Cl4   1.762600 S    
C10   C12   1.540961 S    
C49   H21   1.083242 S    
O15   C34   1.294223 A    
C6    C10   1.549143 S    
C14   C15   1.408255 A    
O2    C1    1.293043 A    
O10   C31   1.292878 A    
N5    O33   1.301112 A    
C19   C20   1.399212 A    
C43   H18   1.084288 S    
C19   H10   1.083677 S    
N2    O28   1.301113 A    
O13   C33   1.295220 A    
C2    C9    1.497373 S    
C6    H3    1.113397 S    
C15   C16   1.394801 A    
C40   C41   1.399659 A    
C31   C44   1.452041 S    
C5    Cl1   1.798011 S    
C7    N6    1.490105 S    
O12   C32   1.290594 A    
O20   Cu6   1.968305 S    
N6    O36   1.301895 A    
Cu3   Cu4   2.683802 S    
C7    N1    1.484859 S    
Cu1   O5    1.968949 S    
C41   C42   1.411176 A    
C1    C18   1.456598 S    
Cu2   O6    1.968754 S    
C26   H14   1.083610 S    
N1    O25   1.301229 A    
O16   C34   1.294038 A    
C8    C9    1.587683 S    
C21   C34   1.457593 S    
C35   C47   1.447052 S    
C42   C43   1.393945 A    
C27   C38   1.448612 S    
C25   C30   1.402737 A    
C12   H6    1.113860 S    
