data_mof_unit_26693.cif
_audit_creation_date              2012-12-11T14:27:03-0500
_audit_creation_method            fapswitch 2.2
_symmetry_space_group_name_H-M    P1
_symmetry_Int_Tables_number       1
_space_group_crystal_system       triclinic
_cell_length_a                    15.043656
_cell_length_b                    14.848521
_cell_length_c                    15.048429
_cell_angle_alpha                 110.136909
_cell_angle_beta                  109.547933
_cell_angle_gamma                 108.457874
_cell_volume                      2595.83851465

loop_
_atom_site_label
_atom_site_type_symbol
_atom_type_description
_atom_site_fract_x
_atom_site_fract_y
_atom_site_fract_z
_atom_type_partial_charge
C1    C     C_R   0.926818 0.742679 0.022957 -0.016094
C2    C     C_R   0.201178 0.805050 0.293119 0.716434
C3    C     C_R   0.908678 0.408530 0.207876 -0.080527
C4    C     C_R   0.778930 0.234209 0.686177 -0.081644
C5    C     C_R   0.313169 0.592460 0.066337 -0.032914
C6    C     C_R   0.940890 0.499658 0.302787 0.007285
C7    C     C_R   0.325625 0.500931 0.050100 0.150192
C8    C     C_R   0.292902 0.869061 0.296604 -0.033715
C9    C     C_R   0.959045 0.142905 0.955789 -0.292251
C10   C     C_3   0.543406 0.514436 0.968269 1.152275
C11   C     C_3   0.439452 0.515824 0.963477 0.531880
C12   C     C_R   0.677408 0.201999 0.675168 0.009026
C13   C     C_3   0.524687 0.390456 0.050877 -0.444545
C14   C     C_3   0.630033 0.596112 0.174761 0.632916
C15   C     C_3   0.601289 0.500137 0.065775 -0.252470
C16   C     C_R   0.069699 0.587456 0.779334 0.142207
C17   C     C_3   0.425676 0.500125 0.058223 -0.090091
C18   C     C_3   0.423566 0.391957 0.052401 -0.063632
C19   C     C_3   0.526612 0.598819 0.168847 -0.522529
C20   C     C_2   0.385609 0.034869 0.475673 0.072412
C21   C     C_2   0.362384 0.988474 0.370069 0.169777
C22   C     C_2   0.488607 0.134190 0.557167 0.454508
C23   C     C_R   0.016225 0.492985 0.678048 0.136894
C24   C     C_2   0.577894 0.125239 0.574155 0.478212
C25   C     C_2   0.883176 0.418542 0.489357 0.213038
C26   C     C_2   0.986456 0.484228 0.573048 -0.249737
C27   C     C_2   0.860880 0.410790 0.384605 -0.171835
C28   C     C_R   0.702398 0.408976 0.004559 0.769198
C29   C     C_2   0.909639 0.502385 0.384039 -0.135148
C30   C     C_2   0.896924 0.948002 0.840504 -0.348198
C31   C     C_2   0.937582 0.034293 0.939392 0.839287
C32   C     C_2   0.902695 0.848930 0.832298 -0.109862
C33   C     C_2   0.876649 0.808944 0.892282 -0.027206
C34   C     C_R   0.698762 0.499768 0.065342 0.025759
C35   C     C_R   0.978144 0.404737 0.691022 -0.151714
C36   C     C_R   0.788656 0.590743 0.093148 -0.180090
C37   C     C_R   0.687454 0.238860 0.777674 -0.040772
C38   C     C_R   0.017260 0.743967 0.932053 -0.150037
C39   C     C_R   0.937048 0.764752 0.944435 0.092815
C40   C     C_3   0.088411 0.098899 0.831915 -0.952631
C41   C     C_3   0.301339 0.323351 0.791755 -0.856280
C42   C     C_3   0.366092 0.270148 0.122884 -0.864207
C43   C     C_3   0.379313 0.916857 0.554787 -0.826041
C44   C     C_3   0.134533 0.742167 0.748835 -0.944226
C45   C     C_R   0.001144 0.590100 0.301418 0.160496
C46   C     C_3   0.491380 0.048987 0.307985 -0.819023
C47   C     C_3   0.751075 0.408411 0.548081 -0.840536
C48   C     C_3   0.978851 0.748109 0.377246 -0.699519
C49   C     C_R   0.224008 0.409334 0.977813 -0.188586
C50   C     C_R   0.294068 0.804145 0.206032 -0.258208
C51   C     C_R   0.924219 0.205260 0.011325 0.756471
C52   C     C_R   0.008402 0.200132 0.914244 0.060321
F1    F     F_    0.853097 0.168941 0.043641 -0.683146
F2    F     F_    0.648039 0.305388 0.983990 -0.735579
F3    F     F_    0.147714 0.847665 0.334814 -0.711950
F4    F     F_    0.522224 0.432531 0.871584 -0.679609
F5    F     F_    0.611987 0.613192 0.982699 -0.661230
F6    F     F_    0.456246 0.620786 0.985601 -0.675454
F7    F     F_    0.680896 0.583833 0.262004 -0.704000
F8    F     F_    0.490894 0.221814 0.629642 -0.676615
F9    F     F_    0.573711 0.033331 0.506181 -0.720929
F10   F     F_    0.968798 0.026398 0.031192 -0.675586
H1    H     H_    0.871544 0.750525 0.051823 0.134887
H2    H     H_    0.534868 0.678789 0.177340 0.195908
H3    H     H_    0.519187 0.598463 0.239716 0.212195
H4    H     H_    0.568752 0.375420 0.115209 0.262681
H5    H     H_    0.050133 0.533683 0.564308 0.147690
H6    H     H_    0.820434 0.329705 0.313681 0.143837
H7    H     H_    0.944450 0.581941 0.455486 0.133868
H8    H     H_    0.875318 0.956467 0.768575 0.159309
H9    H     H_    0.948792 0.825359 0.796004 0.130144
H10   H     H_    0.825887 0.830309 0.922888 0.189185
H11   H     H_    0.943942 0.319430 0.631975 0.120375
H12   H     H_    0.204248 0.325132 0.947013 0.145643
H13   H     H_    0.812590 0.675654 0.142539 0.142892
H14   H     H_    0.623447 0.221650 0.797292 0.196754
H15   H     H_    0.044528 0.754471 0.877414 0.129478
H16   H     H_    0.030992 0.195853 0.783340 0.177724
H17   H     H_    0.043442 0.016228 0.758105 0.264828
H18   H     H_    0.109395 0.089764 0.905163 0.259244
H19   H     H_    0.164635 0.146324 0.835957 0.241155
H20   H     H_    0.286909 0.465875 0.834253 0.210252
H21   H     H_    0.225455 0.279420 0.789894 0.206775
H22   H     H_    0.358486 0.295886 0.823556 0.273090
H23   H     H_    0.341830 0.832274 0.171701 0.163885
H24   H     H_    0.281587 0.299496 0.706315 0.296580
H25   H     H_    0.485617 0.433242 0.217956 0.238666
H26   H     H_    0.362814 0.272057 0.196108 0.257198
H27   H     H_    0.413345 0.229314 0.104980 0.254041
H28   H     H_    0.282259 0.222343 0.053508 0.254217
H29   H     H_    0.316969 0.023284 0.571462 0.224869
H30   H     H_    0.325163 0.864945 0.573106 0.240665
H31   H     H_    0.458824 0.975608 0.630664 0.249115
H32   H     H_    0.390156 0.862484 0.491942 0.259030
H33   H     H_    0.203981 0.741958 0.895895 0.179444
H34   H     H_    0.848683 0.325085 0.174907 0.196279
H35   H     H_    0.164060 0.830289 0.803841 0.251767
H36   H     H_    0.046734 0.703788 0.691416 0.244888
H37   H     H_    0.178138 0.737026 0.702212 0.266483
H38   H     H_    0.416547 0.133794 0.364157 0.173648
H39   H     H_    0.568505 0.126951 0.368494 0.238605
H40   H     H_    0.470637 0.036752 0.225183 0.241389
H41   H     H_    0.503957 0.980660 0.312561 0.292724
H42   H     H_    0.740158 0.279343 0.425594 0.167239
H43   H     H_    0.689601 0.351443 0.556038 0.246657
H44   H     H_    0.711207 0.437859 0.496778 0.257340
H45   H     H_    0.375015 0.677680 0.113318 0.139112
H46   H     H_    0.813656 0.479457 0.630925 0.255092
H47   H     H_    0.091664 0.714356 0.460722 0.149764
H48   H     H_    0.021402 0.831173 0.450198 0.240582
H49   H     H_    0.904882 0.696037 0.374156 0.245707
H50   H     H_    0.956913 0.757800 0.304673 0.261204
H51   H     H_    0.797469 0.211121 0.621271 0.131333
H52   H     H_    0.496864 0.320158 0.971126 0.232946
H53   H     H_    0.352810 0.320024 0.975260 0.144659
H54   H     H_    0.686081 0.676565 0.190106 0.078640
N1    N     N_R   0.993980 0.704500 0.053430 -0.046309
N2    N     N_R   0.053690 0.556380 0.849240 -0.079322
N3    N     N_R   0.790390 0.443640 0.997160 -0.112861
N4    N     N_R   0.998260 0.443670 0.792970 -0.060880
N5    N     N_R   0.845830 0.556350 0.053430 -0.089345
N6    N     N_R   0.792820 0.295510 0.849240 -0.058219
N7    N     N_R   0.051260 0.704510 0.997160 -0.050625
N8    N     N_R   0.001740 0.556330 0.207030 -0.075419
N9    N     N_2   0.023090 0.152832 0.823892 -0.104220
N10   N     N_2   0.343953 0.441062 0.853875 -0.093028
N11   N     N_2   0.416091 0.381134 0.142964 -0.082087
N12   N     N_R   0.154170 0.443650 0.946570 -0.051842
N13   N     N_2   0.331359 0.975623 0.515583 -0.081202
N14   N     N_2   0.155758 0.689577 0.812655 -0.100696
N15   N     N_2   0.405982 0.055267 0.329633 -0.118692
N16   N     N_2   0.798355 0.351303 0.498009 -0.116083
N17   N     N_2   0.050111 0.701374 0.383430 -0.089550
N18   N     N_R   0.207180 0.704490 0.150760 -0.084543
N19   N     N_R   0.948740 0.295490 0.002840 -0.127507
N20   N     N_R   0.006020 0.295500 0.946570 -0.102706
N21   N     N_R   0.149890 0.704480 0.207030 -0.110909
N22   N     N_R   0.946310 0.443620 0.150760 -0.077299
N23   N     N_R   0.209610 0.556360 0.002840 -0.055337
N24   N     N_R   0.850110 0.295520 0.792970 -0.061494
Ni1   Ni    Ni4+2 0.997880 0.629240 0.129060 0.259024
Ni2   Ni    Ni4+2 0.002120 0.370760 0.870940 0.192317
Ni3   Ni    Ni4+2 0.129260 0.629260 0.000000 0.208668
Ni4   Ni    Ni4+2 0.870740 0.370740 0.000000 0.295451

loop_
_geom_bond_atom_site_label_1
_geom_bond_atom_site_label_2
_ccdc_geom_bond_type
C48   H48   S    
C24   F9    S    
C6    C45   A    
C27   C29   D    
C9    C51   A    
N6    Ni4   S    
C20   N13   S    
C3    C6    A    
N18   N21   A    
H25   N11   S    
H38   N15   S    
N19   N20   A    
C14   F7    S    
C46   H40   S    
C33   C39   S    
C13   C18   S    
C26   H5    S    
N8    N22   A    
N12   N23   A    
N24   Ni2   S    
C2    F3    S    
C22   F8    S    
C30   C31   D    
C44   H37   S    
C44   N14   S    
C41   H21   S    
C43   H32   S    
C23   C26   S    
C12   C37   A    
C21   N15   S    
N20   Ni2   S    
C27   H6    S    
C50   H23   S    
C17   C19   S    
N18   Ni3   S    
N23   Ni3   S    
C35   H11   S    
C47   H43   S    
H33   N14   S    
C40   H18   S    
C3    H34   S    
C4    C12   A    
C11   F6    S    
C10   F4    S    
C15   C34   S    
C13   H52   S    
C33   H10   S    
C28   C34   A    
N3    Ni4   S    
C31   F10   S    
C35   N4    A    
C9    C52   A    
C44   H36   S    
C1    H1    S    
C30   H8    S    
C48   H49   S    
C5    N23   A    
C32   H9    S    
C29   H7    S    
C13   H4    S    
N3    N5    A    
C45   N8    A    
C41   N10   S    
C46   H39   S    
H47   N17   S    
N5    Ni1   S    
C4    H51   S    
C43   N13   S    
C11   N10   S    
N4    Ni2   S    
C7    C49   A    
N2    Ni3   S    
C50   N18   A    
C46   N15   S    
C5    C7    A    
C28   F2    S    
C7    C17   S    
C25   C26   D    
C41   H22   S    
C42   H28   S    
N1    Ni1   S    
C41   H24   S    
C36   H13   S    
C16   N2    A    
C18   N11   S    
C4    N24   A    
C44   H35   S    
C48   N17   S    
C1    C39   A    
C19   H2    S    
C47   H44   S    
C10   F5    S    
C17   C18   S    
C40   H17   S    
C3    N22   A    
C1    N1    A    
C42   N11   S    
N19   Ni4   S    
C48   H50   S    
C37   H14   S    
C20   C22   S    
C16   C23   A    
C23   C35   A    
C13   C15   S    
C52   N20   A    
C22   C24   D    
N8    Ni1   S    
C42   H26   S    
C8    C50   A    
C16   N14   S    
C5    H45   S    
C49   N12   A    
N21   Ni1   S    
C11   C17   S    
C10   C15   S    
C14   C15   S    
C2    N21   A    
C14   C19   S    
C2    C8    A    
C38   N7    A    
C28   N3    A    
C8    C21   S    
C18   H53   S    
C52   N9    S    
H29   N13   S    
C38   H15   S    
C25   C27   S    
C46   H41   S    
C12   C24   S    
C45   N17   S    
C43   H30   S    
C47   N16   S    
C40   H19   S    
C42   H27   S    
C32   C33   D    
C36   N5    A    
N1    N7    A    
N6    N24   A    
N22   Ni4   S    
C30   C32   S    
H16   N9    S    
C38   C39   A    
C51   N19   A    
C14   H54   S    
C40   N9    S    
C43   H31   S    
C19   H3    S    
C34   C36   A    
N2    N4    A    
C10   C11   S    
C9    C31   S    
C37   N6    A    
C6    C29   S    
C20   C21   D    
C47   H46   S    
H42   N16   S    
N7    Ni3   S    
C49   H12   S    
C51   F1    S    
C25   N16   S    
N12   Ni2   S    
H20   N10   S    
