data_mof_unit_37968.cif
_audit_creation_date              2012-12-10T19:12:32-0500
_audit_creation_method            fapswitch 2.2
_symmetry_space_group_name_H-M    P1
_symmetry_Int_Tables_number       1
_space_group_crystal_system       triclinic
_cell_length_a                    15.692762
_cell_length_b                    10.641525
_cell_length_c                    9.735858
_cell_angle_alpha                 90.232217
_cell_angle_beta                  89.536683
_cell_angle_gamma                 89.887187
_cell_volume                      1625.76905266

loop_
_atom_site_label
_atom_site_type_symbol
_atom_type_description
_atom_site_fract_x
_atom_site_fract_y
_atom_site_fract_z
_atom_type_partial_charge
C1    C     C_R   0.500127 0.257477 0.500258 0.842357
C2    C     C_3   0.562005 0.928400 0.615642 -0.412515
C3    C     C_3   0.407942 0.068491 0.523007 -0.140610
C4    C     C_R   0.337882 0.501455 0.500359 0.921226
C5    C     C_3   0.535778 0.071359 0.362450 -0.420884
C6    C     C_3   0.500543 0.120704 0.502150 0.132471
C7    C     C_3   0.503422 0.877992 0.500077 0.181623
C8    C     C_3   0.410851 0.923472 0.524155 -0.427384
C9    C     C_3   0.536355 0.928294 0.360133 -0.420474
C10   C     C_3   0.438718 0.404084 0.081996 -0.248822
C11   C     C_3   0.442709 0.398010 0.919879 -0.230752
C12   C     C_3   0.082636 0.501924 0.499857 0.221612
C13   C     C_3   0.468668 0.621659 0.081087 -0.279457
C14   C     C_3   0.586234 0.477565 0.076400 -0.009265
C15   C     C_3   0.467854 0.619070 0.918635 -0.242084
C16   C     C_R   0.503513 0.742028 0.499992 0.840092
C17   C     C_3   0.585362 0.477675 0.914665 -0.262032
C18   C     C_R   0.662130 0.500010 0.499704 0.917088
C19   C     C_3   0.972231 0.396105 0.562418 -0.168396
C20   C     C_3   0.029358 0.398774 0.432248 -0.174957
C21   C     C_1   0.248905 0.503059 0.500811 -0.216960
C22   C     C_1   0.751110 0.499659 0.499337 -0.214501
C23   C     C_3   0.970699 0.602693 0.566890 -0.161838
C24   C     C_3   0.027362 0.499202 0.630028 -0.172222
C25   C     C_R   0.358027 0.121135 0.646286 0.154416
C26   C     C_R   0.375526 0.084631 0.782436 -0.151690
C27   C     C_R   0.325380 0.128661 0.891832 -0.184659
C28   C     C_R   0.257077 0.209426 0.867398 -0.142375
C29   C     C_R   0.238632 0.246032 0.733429 -0.120543
C30   C     C_R   0.288481 0.202052 0.623577 -0.149046
C31   C     C_R   0.636472 0.361375 0.124203 0.183114
C32   C     C_R   0.718318 0.379140 0.180697 -0.136832
C33   C     C_R   0.772221 0.277508 0.206837 -0.152303
C34   C     C_3   0.917383 0.499633 0.499288 0.219784
C35   C     C_R   0.747901 0.156325 0.169723 -0.133653
C36   C     C_R   0.669811 0.136890 0.106009 -0.177355
C37   C     C_R   0.614280 0.237719 0.084478 -0.180507
C38   C     C_3   0.027763 0.605369 0.436694 -0.159838
C39   C     C_3   0.972641 0.502247 0.369090 -0.178179
C40   C     C_1   0.173528 0.503161 0.500409 -0.108683
C41   C     C_1   0.826487 0.499360 0.499230 -0.105708
C42   C     C_3   0.562055 0.072377 0.614726 -0.398122
H1    H     H_    0.055656 0.315510 0.377314 0.123929
H2    H     H_    0.372275 0.426974 0.114392 0.149635
H3    H     H_    0.947272 0.310590 0.613678 0.128145
H4    H     H_    0.450590 0.311035 0.128183 0.146125
H5    H     H_    0.464718 0.304169 0.884665 0.156829
H6    H     H_    0.377400 0.409543 0.878483 0.174600
H7    H     H_    0.403918 0.644736 0.121356 0.154766
H8    H     H_    0.402198 0.638071 0.881658 0.151321
H9    H     H_    0.625307 0.560547 0.106250 0.092412
H10   H     H_    0.612046 0.389770 0.869321 0.160322
H11   H     H_    0.627876 0.553790 0.876543 0.141987
H12   H     H_    0.539926 0.895080 0.718015 0.166455
H13   H     H_    0.510803 0.699003 0.116412 0.140668
H14   H     H_    0.947884 0.503291 0.262585 0.122061
H15   H     H_    0.508171 0.697083 0.879374 0.144656
H16   H     H_    0.052715 0.690873 0.385400 0.124590
H17   H     H_    0.944459 0.685949 0.621909 0.124532
H18   H     H_    0.052047 0.497923 0.736566 0.123102
H19   H     H_    0.544807 0.109197 0.718082 0.173811
H20   H     H_    0.627886 0.106445 0.593354 0.161570
H21   H     H_    0.628198 0.892942 0.600074 0.157360
H22   H     H_    0.426114 0.019274 0.804896 0.115956
H23   H     H_    0.385599 0.883896 0.621883 0.166971
H24   H     H_    0.339447 0.099816 0.995726 0.120680
H25   H     H_    0.218409 0.243548 0.952265 0.120027
H26   H     H_    0.185211 0.307869 0.714617 0.133030
H27   H     H_    0.272134 0.230350 0.520405 0.100301
H28   H     H_    0.741842 0.472708 0.202069 0.120143
H29   H     H_    0.833970 0.293347 0.252505 0.132998
H30   H     H_    0.790246 0.077826 0.187811 0.122280
H31   H     H_    0.651907 0.043205 0.073626 0.127792
H32   H     H_    0.557072 0.217780 0.028791 0.103598
H33   H     H_    0.496660 0.105585 0.275231 0.176057
H34   H     H_    0.601880 0.106095 0.348320 0.204471
H35   H     H_    0.602179 0.893511 0.339053 0.164871
H36   H     H_    0.495021 0.895416 0.274802 0.174218
H37   H     H_    0.372289 0.095159 0.428822 0.108941
H38   H     H_    0.369042 0.886329 0.441460 0.145198
N1    N     N_3   0.498170 0.499750 0.138610 -0.044957
N2    N     N_3   0.498850 0.496730 0.861320 -0.045528
O1    O     O_R   0.499980 0.314910 0.616040 -0.623234
O2    O     O_R   0.500040 0.314680 0.383960 -0.629591
O3    O     O_R   0.376750 0.500100 0.616020 -0.611838
O4    O     O_R   0.376810 0.499870 0.383940 -0.624795
O5    O     O_R   0.499960 0.685320 0.616040 -0.638704
O6    O     O_R   0.500020 0.685090 0.383960 -0.638345
O7    O     O_R   0.623190 0.500130 0.616060 -0.626558
O8    O     O_R   0.623250 0.499900 0.383980 -0.622831
Zn1   Zn    Zn3+2 0.499960 0.500150 0.654960 0.907740
Zn2   Zn    Zn3+2 0.500040 0.499850 0.345040 0.911095

loop_
_geom_bond_atom_site_label_1
_geom_bond_atom_site_label_2
_ccdc_geom_bond_type
C37   H32   S    
C12   C40   S    
O5    Zn1   S    
C11   H5    S    
C19   C20   S    
C14   C31   S    
C3    C6    S    
C3    H37   S    
C30   H27   S    
O3    Zn1   S    
C7    C8    S    
C1    O2    A    
C23   H17   S    
C26   C27   A    
C36   C37   A    
C14   H9    S    
C5    C6    S    
C22   C41   T    
C4    O4    A    
C13   N1    S    
C17   N2    S    
C15   H8    S    
C26   H22   S    
C2    C7    S    
C38   H16   S    
N1    Zn2   S    
O6    Zn2   S    
C10   H4    S    
C16   O5    A    
C23   C24   S    
O7    Zn1   S    
C42   H20   S    
C8    H23   S    
C15   H15   S    
C14   C17   S    
C11   H6    S    
C34   C41   S    
C17   H10   S    
C15   N2    S    
C11   N2    S    
C10   H2    S    
C34   C39   S    
C18   O8    A    
C3    C25   S    
C28   H25   S    
C3    C8    S    
C2    H12   S    
C20   C39   S    
C32   H28   S    
C4    O3    A    
C25   C26   A    
N2    Zn1   S    
C31   C37   A    
C35   C36   A    
C5    H33   S    
C5    C9    S    
C29   C30   A    
C29   H26   S    
O8    Zn2   S    
C39   H14   S    
C24   H18   S    
C23   C34   S    
C12   C20   S    
C9    H35   S    
C42   H19   S    
C13   H7    S    
C7    C16   S    
C35   H30   S    
C13   C15   S    
C17   H11   S    
C20   H1    S    
C2    H21   S    
C16   O6    A    
C25   C30   A    
C7    C9    S    
C28   C29   A    
C1    C6    S    
C18   C22   S    
C18   O7    A    
C31   C32   A    
C19   C34   S    
C19   H3    S    
C1    O1    A    
C23   C38   S    
O1    Zn1   S    
C12   C24   S    
C10   N1    S    
C32   C33   A    
C5    H34   S    
C19   C24   S    
C27   H24   S    
O4    Zn2   S    
C4    C21   S    
C38   C39   S    
C21   C40   T    
C2    C42   S    
C33   C35   A    
C9    H36   S    
C12   C38   S    
C10   C11   S    
C33   H29   S    
C6    C42   S    
C27   C28   A    
C8    H38   S    
O2    Zn2   S    
C14   N1    S    
C36   H31   S    
C13   H13   S    
