data_mof_unit_48226.cif
_audit_creation_date              2012-12-11T14:56:33-0500
_audit_creation_method            fapswitch 2.2
_symmetry_space_group_name_H-M    P1
_symmetry_Int_Tables_number       1
_space_group_crystal_system       triclinic
_cell_length_a                    10.54343
_cell_length_b                    10.776868
_cell_length_c                    17.033284
_cell_angle_alpha                 80.098327
_cell_angle_beta                  89.819761
_cell_angle_gamma                 118.893642
_cell_volume                      1660.88120827

loop_
_atom_site_label
_atom_site_type_symbol
_atom_type_description
_atom_site_fract_x
_atom_site_fract_y
_atom_site_fract_z
_atom_type_partial_charge
C1    C     C_R   0.224392 0.855673 0.128854 0.549374
C2    C     C_R   0.831869 0.443164 0.255398 0.136388
C3    C     C_R   0.816203 0.421441 0.176716 0.006187
C4    C     C_R   0.675914 0.372520 0.147437 0.016305
C5    C     C_1   0.669111 0.847936 0.205159 -0.045888
C6    C     C_1   0.680491 0.838581 0.274774 -0.038585
C7    C     C_1   0.184047 0.828740 0.211604 -0.011895
C8    C     C_1   0.154734 0.822907 0.280342 0.003093
C9    C     C_1   0.614856 0.254998 0.774790 -0.039620
C10   C     C_1   0.628322 0.298861 0.703777 -0.020054
C11   C     C_R   0.660500 0.699117 0.824400 0.139242
C12   C     C_R   0.640148 0.285454 0.084264 0.577903
C13   C     C_R   0.637718 0.668922 0.747305 -0.041700
C14   C     C_R   0.706028 0.783857 0.680019 -0.042981
C15   C     C_R   0.796340 0.924727 0.693461 -0.096853
C16   C     C_R   0.799377 0.955127 0.769290 0.130300
C17   C     C_R   0.716710 0.841737 0.834089 0.052951
C18   C     C_R   0.275451 0.999483 0.744902 0.155065
C19   C     C_R   0.261442 0.978573 0.666289 0.170376
C20   C     C_R   0.194107 0.835509 0.652543 0.022754
C21   C     C_R   0.188267 0.724899 0.713569 -0.059011
C22   C     C_R   0.243990 0.759637 0.785294 -0.163798
C23   C     C_R   0.640642 0.858203 0.124994 0.560620
C24   C     C_R   0.270361 0.889627 0.805145 -0.016128
C25   C     C_R   0.686468 0.809515 0.357371 0.555725
C26   C     C_R   0.728119 0.458561 0.382999 0.575664
C27   C     C_R   0.104943 0.811053 0.359766 0.557277
C28   C     C_R   0.703612 0.760479 0.596751 0.544437
C29   C     C_R   0.673293 0.372238 0.622422 0.577071
C30   C     C_R   0.104894 0.804295 0.584497 0.555046
C31   C     C_R   0.290464 0.905414 0.888589 0.556674
C32   C     C_R   0.612479 0.218077 0.859527 0.563606
C33   C     C_R   0.651203 0.866044 0.901469 0.574296
C34   C     C_R   0.566695 0.384224 0.188945 -0.024236
C35   C     C_R   0.587762 0.413306 0.266048 -0.144201
C36   C     C_R   0.715203 0.436254 0.300639 -0.002664
Cr1   Cr    Cr6+3 0.402240 0.783890 0.019450 1.009049
Cr2   Cr    Cr6+3 0.382360 0.097900 0.991800 1.074865
Cr3   Cr    Cr6+3 0.715380 0.118170 0.988700 1.050282
Cr4   Cr    Cr6+3 0.936650 0.882420 0.465510 1.077152
Cr5   Cr    Cr6+3 0.605770 0.565620 0.493360 1.070987
Cr6   Cr    Cr6+3 0.921340 0.550490 0.496380 1.072872
H1    H     H_    0.241980 0.674908 0.830764 0.157036
H2    H     H_    0.501526 0.411986 0.301256 0.163836
H3    H     H_    0.858825 0.014825 0.644498 0.198904
O1    O     O_R   0.521780 0.757110 0.108900 -0.512400
O2    O     O_R   0.513330 0.228330 0.898660 -0.454650
O3    O     O_R   0.739230 0.266130 0.888050 -0.482322
O4    O     O_R   0.712580 0.991850 0.918770 -0.473984
O5    O     O_3   0.499990 0.999980 0.999980 -0.313366
O6    O     O_R   0.083770 0.911170 0.376030 -0.504018
O7    O     O_R   0.808770 0.880340 0.383890 -0.486338
O8    O     O_R   0.584340 0.689460 0.394160 -0.506756
O9    O     O_R   0.614320 0.443940 0.423590 -0.483567
O10   O     O_R   0.805020 0.410040 0.421340 -0.435715
O11   O     O_R   0.049240 0.685450 0.403290 -0.471651
O12   O     O_R   0.275160 0.783810 0.101120 -0.499362
O13   O     O_R   0.077520 0.903010 0.551800 -0.465387
O14   O     O_R   0.802980 0.872780 0.546830 -0.489084
O15   O     O_R   0.578090 0.681300 0.569920 -0.502562
O16   O     O_R   0.608530 0.436370 0.586530 -0.490232
O17   O     O_R   0.798770 0.401880 0.597100 -0.505624
O18   O     O_R   0.043450 0.677890 0.566230 -0.522032
O19   O     O_3   0.821250 0.666180 0.485090 -0.327722
O20   O     O_R   0.237900 0.972600 0.090980 -0.515034
O21   O     O_R   0.511190 0.220540 0.061620 -0.494111
O22   O     O_R   0.736920 0.257720 0.063840 -0.525442
O23   O     O_R   0.710450 0.984050 0.081720 -0.501646
O24   O     O_R   0.524090 0.765520 0.933110 -0.497441
O25   O     O_R   0.277300 0.791600 0.938160 -0.516341
O26   O     O_R   0.240210 0.981010 0.915190 -0.440077
C37   C     C_3   0.428414 0.363922 0.151877 -0.257994
C38   C     C_3   0.349353 0.431535 0.188044 -0.415410
H4    H     H_    0.273970 0.354910 0.241049 0.162124
H5    H     H_    0.426482 0.533194 0.206774 0.196376
H6    H     H_    0.287239 0.458358 0.142349 0.155455
H7    H     H_    0.457933 0.415961 0.087441 0.205678
H8    H     H_    0.351206 0.246724 0.156846 0.176542
Br1   Br    Br    0.324697 0.145949 0.580448 -0.407025
C39   C     C_3   0.093843 0.566441 0.715565 -0.260832
C40   C     C_3   0.940244 0.522072 0.745127 -0.360604
H9    H     H_    0.935462 0.547847 0.805156 0.184368
H10   H     H_    0.891704 0.574298 0.703309 0.152841
H11   H     H_    0.881102 0.404696 0.750946 0.205562
H12   H     H_    0.102486 0.534470 0.658234 0.201818
H13   H     H_    0.124424 0.501419 0.760605 0.156340
Br2   Br    Br    0.011427 0.469869 0.300355 -0.534468
C41   C     C_3   0.951276 0.451654 0.125402 -0.213793
C42   C     C_3   0.983767 0.324956 0.141110 -0.359818
H14   H     H_    0.050122 0.332014 0.191721 0.169267
H15   H     H_    0.883787 0.218148 0.157534 0.197281
H16   H     H_    0.044467 0.326900 0.087100 0.127600
H17   H     H_    0.942210 0.481531 0.060744 0.169810
H18   H     H_    0.047219 0.550030 0.136654 0.178494
Br3   Br    Br    0.606382 0.547079 0.918018 -0.522751
C43   C     C_3   0.515009 0.523980 0.740494 -0.241959
C44   C     C_3   0.373112 0.524999 0.749354 -0.393853
H19   H     H_    0.345570 0.522539 0.812788 0.183040
H20   H     H_    0.382509 0.623418 0.710354 0.163498
H21   H     H_    0.284795 0.430093 0.729714 0.213496
H22   H     H_    0.521963 0.497483 0.682995 0.206924
H23   H     H_    0.513098 0.436772 0.785929 0.226015
Br4   Br    Br    0.916812 0.153365 0.778267 -0.494127
Br5   Br    Br    0.269404 0.164313 0.768077 -0.460751

loop_
_geom_bond_atom_site_label_1
_geom_bond_atom_site_label_2
_ccdc_geom_bond_type
Cr1   O24   S    
C32   O3    A    
C38   H4    S    
C19   C20   A    
Cr5   O16   S    
C26   O10   A    
C44   H21   S    
C40   H9    S    
C7    C8    T    
C20   C30   S    
C39   H12   S    
C18   C24   A    
C25   O8    A    
C18   C19   A    
C43   H23   S    
C5    C6    T    
C6    C25   S    
C33   O4    A    
C15   C16   A    
C2    C36   A    
C34   C35   A    
Cr3   O23   S    
C39   H13   S    
C9    C32   S    
C44   H20   S    
C29   O17   A    
C31   O25   A    
Cr2   O21   S    
C16   C17   A    
C1    O20   A    
C42   H15   S    
C9    C10   T    
Cr6   O17   S    
C33   O24   A    
Cr6   O11   S    
C31   O26   A    
Cr4   O14   S    
C13   C14   A    
C38   H5    S    
Cr2   O26   S    
C17   C33   S    
C26   O9    A    
C40   H10   S    
C27   O6    A    
C44   H19   S    
C41   H18   S    
C28   O15   A    
C12   O22   A    
C29   O16   A    
Cr4   O13   S    
C13   C43   S    
C43   H22   S    
C27   O11   A    
C39   C40   S    
Cr4   O7    S    
C12   O21   A    
C35   C36   A    
C23   O23   A    
C37   H7    S    
C1    O12   A    
Cr6   O10   S    
C16   Br4   S    
C22   H1    S    
C5    C23   S    
Cr2   O20   S    
C43   C44   S    
C2    Br2   S    
C18   Br5   S    
C20   C21   A    
C42   H16   S    
C19   Br1   S    
C35   H2    S    
Cr5   O8    S    
Cr2   O2    S    
C26   C36   S    
Cr3   O4    S    
C32   O2    A    
C22   C24   A    
C4    C12   S    
C15   H3    S    
C3    C4    A    
Cr6   O19   S    
C40   H11   S    
C28   O14   A    
C11   Br3   S    
C41   H17   S    
C11   C17   A    
C3    C41   S    
C1    C7    S    
Cr3   O22   S    
Cr5   O15   S    
C37   C38   S    
Cr2   O5    S    
Cr4   O6    S    
Cr4   O19   S    
Cr1   O25   S    
C2    C3    A    
Cr1   O1    S    
C24   C31   S    
Cr1   O5    S    
C11   C13   A    
C10   C29   S    
C30   O13   A    
C21   C39   S    
C30   O18   A    
C38   H6    S    
C4    C34   A    
Cr5   O9    S    
C25   O7    A    
C34   C37   S    
Cr3   O5    S    
C41   C42   S    
C37   H8    S    
C23   O1    A    
C8    C27   S    
C14   C15   A    
Cr5   O19   S    
C14   C28   S    
C42   H14   S    
C21   C22   A    
Cr6   O18   S    
Cr1   O12   S    
Cr3   O3    S    
