data_mof_unit_27672.cif
_audit_creation_date              2012-12-11T15:56:02-0500
_audit_creation_method            fapswitch 2.2
_symmetry_space_group_name_H-M    P1
_symmetry_Int_Tables_number       1
_space_group_crystal_system       triclinic
_cell_length_a                    11.01161
_cell_length_b                    11.107737
_cell_length_c                    18.822937
_cell_angle_alpha                 90.80373
_cell_angle_beta                  91.188687
_cell_angle_gamma                 59.205623
_cell_volume                      1977.26647948

loop_
_atom_site_label
_atom_site_type_symbol
_atom_type_description
_atom_site_fract_x
_atom_site_fract_y
_atom_site_fract_z
_atom_type_partial_charge
C1    C     C_R   0.386766 0.706786 0.389801 0.553152
C2    C     C_R   0.235242 0.418657 0.202979 -0.147066
C3    C     C_R   0.235630 0.428350 0.276464 -0.059894
C4    C     C_R   0.385186 0.353411 0.388155 0.530766
C5    C     C_R   0.874265 0.764699 0.380920 -0.118697
C6    C     C_R   0.935734 0.628200 0.406653 -0.087113
C7    C     C_R   0.049104 0.517414 0.371225 -0.046611
C8    C     C_R   0.106720 0.543226 0.311343 0.046380
C9    C     C_R   0.361469 0.334680 0.313357 -0.008106
C10   C     C_R   0.875870 0.332849 0.185848 0.028674
C11   C     C_R   0.952561 0.224739 0.234041 -0.024051
C12   C     C_R   0.622012 0.113755 0.168531 0.049598
C13   C     C_R   0.918471 0.234454 0.304356 -0.015237
C14   C     C_R   0.730284 0.471181 0.282110 -0.141529
C15   C     C_R   0.761081 0.457549 0.210057 -0.127019
C16   C     C_R   0.774893 0.380539 0.403060 0.534776
C17   C     C_3   0.105699 0.138728 0.248673 -0.261459
C18   C     C_3   0.069999 0.148531 0.326758 -0.271553
C19   C     C_R   0.812861 0.361133 0.329935 0.031729
C20   C     C_R   0.378014 0.815861 0.171131 -0.026661
C21   C     C_R   0.403018 0.886188 0.227045 -0.039880
C22   C     C_R   0.398819 0.853879 0.297818 0.023858
C23   C     C_R   0.354134 0.316665 0.165620 0.066890
C24   C     C_R   0.364773 0.665996 0.260722 -0.189430
C25   C     C_R   0.365267 0.699782 0.188724 0.030534
C26   C     C_3   0.533042 0.891318 0.246017 -0.302490
C27   C     C_3   0.519402 0.867890 0.322176 -0.250619
C28   C     C_R   0.345329 0.768655 0.604642 0.551712
C29   C     C_R   0.376848 0.746458 0.315604 -0.013652
C30   C     C_R   0.325559 0.328010 0.818142 0.016883
C31   C     C_R   0.444751 0.227157 0.781325 0.015234
C32   C     C_R   0.452436 0.234535 0.709615 0.011756
C33   C     C_R   0.235403 0.456334 0.708020 -0.159023
C34   C     C_R   0.482348 0.236135 0.275481 -0.165515
C35   C     C_R   0.227844 0.450575 0.782188 -0.180272
C36   C     C_3   0.517430 0.069954 0.778226 -0.226651
C37   C     C_3   0.525258 0.080128 0.698642 -0.243459
C38   C     C_R   0.343682 0.342042 0.670669 0.017128
C39   C     C_R   0.811213 0.341581 0.835668 0.017380
C40   C     C_R   0.372173 0.352789 0.597176 0.550621
C41   C     C_R   0.808896 0.450709 0.797396 0.006697
C42   C     C_R   0.793725 0.459066 0.725120 0.012012
C43   C     C_R   0.762672 0.259336 0.724915 -0.153165
C44   C     C_R   0.776765 0.251734 0.799467 -0.158533
C45   C     C_R   0.483040 0.224243 0.201960 -0.010919
C46   C     C_3   0.920713 0.489701 0.794822 -0.249869
C47   C     C_3   0.901619 0.500609 0.715214 -0.065055
C48   C     C_R   0.782682 0.357231 0.687386 -0.003756
C49   C     C_R   0.296542 0.847857 0.824886 0.013506
C50   C     C_R   0.177388 0.902644 0.780164 0.027720
C51   C     C_R   0.189346 0.893032 0.707202 0.007188
C52   C     C_R   0.755725 0.380796 0.611977 0.544558
C53   C     C_R   0.442062 0.785498 0.720552 -0.151275
C54   C     C_R   0.429287 0.795906 0.794240 -0.162375
C55   C     C_3   0.058413 0.874850 0.778819 -0.252887
C56   C     C_R   0.042669 0.681396 0.285529 -0.088738
C57   C     C_3   0.067027 0.870660 0.698519 -0.253755
C58   C     C_R   0.322739 0.826004 0.676203 0.003099
C59   C     C_R   0.918732 0.313441 0.113179 0.563770
C60   C     C_R   0.328717 0.291454 0.092986 0.567840
C61   C     C_R   0.312502 0.894473 0.104448 0.557835
C62   C     C_R   0.879835 0.311478 0.905604 0.550824
C63   C     C_R   0.297963 0.289818 0.886774 0.543370
C64   C     C_R   0.892184 0.895746 0.124477 -0.110789
C65   C     C_R   0.275289 0.893639 0.898239 0.552224
C66   C     C_R   0.877780 0.009445 0.163202 -0.094747
C67   C     C_R   0.926879 0.791108 0.320051 -0.103800
C68   C     C_R   0.744075 0.118223 0.184380 -0.087666
C69   C     C_2   0.372826 0.602669 0.132540 0.551822
C70   C     C_2   0.843051 0.646493 0.686199 0.572035
C71   C     C_R   0.642028 0.991817 0.132383 -0.077280
C72   C     C_R   0.773866 0.886612 0.109177 -0.142142
Cr1   Cr    Cr6+3 0.601740 0.606840 0.505840 1.015350
Cr2   Cr    Cr6+3 0.291500 0.601560 0.495070 1.029126
Cr3   Cr    Cr6+3 0.606780 0.291630 0.499130 1.000919
Cr4   Cr    Cr6+3 0.062440 0.063060 0.008240 1.042333
Cr5   Cr    Cr6+3 0.062950 0.375000 0.998920 1.002768
Cr6   Cr    Cr6+3 0.374550 0.061770 0.992470 1.006633
H1    H     H_    0.580623 0.166259 0.303282 0.141579
H2    H     H_    0.107486 0.207790 0.359030 0.129452
H3    H     H_    0.362237 0.573467 0.274007 0.133850
H4    H     H_    0.784541 0.795590 0.081555 0.114202
H5    H     H_    0.511816 0.997478 0.240842 0.147770
H6    H     H_    0.630994 0.805227 0.221697 0.140945
H7    H     H_    0.612671 0.770970 0.342886 0.164620
H8    H     H_    0.484819 0.962348 0.356207 0.145559
H9    H     H_    0.154858 0.546666 0.679783 0.158640
H10   H     H_    0.140323 0.535372 0.809993 0.119578
H11   H     H_    0.447335 0.030372 0.793365 0.171723
H12   H     H_    0.786227 0.850127 0.408342 0.105216
H13   H     H_    0.622866 0.018267 0.805195 0.159139
H14   H     H_    0.635023 0.035533 0.679577 0.162578
H15   H     H_    0.879344 0.897085 0.300402 0.117693
H16   H     H_    0.459384 0.047225 0.668153 0.146107
H17   H     H_    0.740454 0.186981 0.696839 0.136124
H18   H     H_    0.769126 0.171985 0.827885 0.122036
H19   H     H_    0.025172 0.399503 0.810325 0.148129
H20   H     H_    0.889629 0.589202 0.823664 0.169371
H21   H     H_    0.995338 0.419392 0.685937 0.111729
H22   H     H_    0.546746 0.734738 0.698761 0.195347
H23   H     H_    0.896775 0.608647 0.454782 0.160789
H24   H     H_    0.522923 0.762822 0.827179 0.149510
H25   H     H_    0.959174 0.964077 0.799037 0.143767
H26   H     H_    0.995417 0.812681 0.108413 0.171787
H27   H     H_    0.088625 0.772130 0.802633 0.139522
H28   H     H_    0.095399 0.767586 0.675721 0.169935
H29   H     H_    0.974563 0.961229 0.672403 0.134149
H30   H     H_    0.972246 0.009268 0.177646 0.146472
H31   H     H_    0.733651 0.204230 0.215967 0.138088
H32   H     H_    0.084208 0.704955 0.239578 0.112780
H33   H     H_    0.557441 0.972036 0.124191 0.171234
H34   H     H_    0.095931 0.412786 0.392460 0.094997
H35   H     H_    0.137522 0.489071 0.174888 0.150743
H36   H     H_    0.283645 0.569925 0.045489 0.337429
H37   H     H_    0.839374 0.764623 0.604856 0.317522
H38   H     H_    0.643751 0.567965 0.300956 0.129998
H39   H     H_    0.698260 0.543904 0.174207 0.144561
H40   H     H_    0.164643 0.191513 0.234591 0.145082
H41   H     H_    0.143676 0.033686 0.226419 0.146468
H42   H     H_    0.095324 0.046392 0.349699 0.163338
O1    O     O_R   0.748670 0.497520 0.427970 -0.546785
O2    O     O_R   0.417470 0.174910 0.067830 -0.528976
O3    O     O_R   0.375160 0.946380 0.070880 -0.527824
O4    O     O_R   0.476470 0.723930 0.429450 -0.510911
O5    O     O_R   0.160500 0.919670 0.926690 -0.502610
O6    O     O_R   0.933140 0.190380 0.936050 -0.496914
O7    O     O_R   0.909010 0.403210 0.925030 -0.524882
O8    O     O_R   0.179590 0.361290 0.918480 -0.516646
O9    O     O_R   0.391360 0.170840 0.907510 -0.520548
O10   O     O_R   0.350950 0.942600 0.922260 -0.511892
O11   O     O_3   0.166650 0.166610 0.999880 -0.260125
O12   O     O_R   0.300170 0.471020 0.567120 -0.498446
O13   O     O_R   0.264730 0.744140 0.416740 -0.504896
O14   O     O_R   0.309440 0.472410 0.418220 -0.506203
O15   O     O_R   0.501630 0.260530 0.414310 -0.532779
O16   O     O_R   0.727920 0.305730 0.428950 -0.500260
O17   O     O_R   0.738670 0.496020 0.588600 -0.487213
O18   O     O_R   0.467190 0.722540 0.578350 -0.501665
O19   O     O_R   0.254720 0.742640 0.577370 -0.517526
O20   O     O_2   0.477992 0.485766 0.129006 -0.542592
O21   O     O_R   0.263512 0.645078 0.082316 -0.707122
O22   O     O_2   0.763190 0.749753 0.721300 -0.583198
O23   O     O_R   0.491630 0.259030 0.574940 -0.523278
O24   O     O_R   0.883666 0.662611 0.618820 -0.709500
O25   O     O_R   0.718640 0.304340 0.577850 -0.510717
O26   O     O_3   0.500010 0.500010 0.500020 -0.277619
O27   O     O_R   0.186620 0.923750 0.087000 -0.489057
O28   O     O_R   0.957350 0.194160 0.084660 -0.498786
O29   O     O_R   0.935120 0.407280 0.085350 -0.527764
O30   O     O_R   0.203800 0.365060 0.067090 -0.518782

loop_
_geom_bond_atom_site_label_1
_geom_bond_atom_site_label_2
_ccdc_geom_bond_type
C36   H11   S    
C66   C68   A    
C21   C26   S    
C26   H5    S    
C23   C45   A    
C22   C29   A    
Cr2   O12   S    
Cr4   O6    S    
C41   C42   A    
C5    C67   A    
C8    C56   A    
C65   O10   A    
C46   H20   S    
C7    C8    A    
C39   C41   A    
C53   C54   A    
Cr3   O25   S    
C12   C68   A    
C26   C27   S    
C52   O25   A    
C49   C65   S    
C13   C18   S    
C55   H27   S    
C3    C9    A    
C36   C37   S    
Cr6   O9    S    
C10   C15   A    
C5    C6    A    
Cr4   O11   S    
Cr3   O15   S    
C20   C25   A    
C69   O21   S    
C49   C54   A    
Cr2   O13   S    
C55   H25   S    
C47   H21   S    
C7    H34   S    
Cr5   O11   S    
C6    H23   S    
C51   C58   A    
C20   C61   S    
C27   H7    S    
C24   C29   A    
C33   C35   A    
C46   C47   S    
Cr4   O27   S    
C71   H33   S    
C43   H17   S    
C41   C46   S    
C51   C57   S    
C32   C38   A    
C52   O17   A    
C43   C48   A    
C63   O8    A    
Cr5   O7    S    
C68   H31   S    
C59   O28   A    
C69   O20   D    
C63   O9    A    
C57   H28   S    
C40   O12   A    
C53   H22   S    
C21   C22   A    
Cr4   O5    S    
C28   O19   A    
C1    O13   A    
C56   H32   S    
Cr2   O26   S    
C50   C51   A    
C59   O29   A    
Cr3   O26   S    
C23   C60   S    
C70   O22   D    
C13   C19   A    
H36   O21   S    
C28   O18   A    
C24   C25   A    
C3    C8    S    
Cr5   O29   S    
C62   O6    A    
Cr3   O16   S    
C42   C48   A    
C15   H39   S    
C65   O5    A    
C27   H8    S    
C16   O1    A    
C47   C70   S    
C44   H18   S    
C34   H1    S    
C35   H10   S    
C31   C32   A    
C24   H3    S    
C30   C31   A    
Cr1   O4    S    
C12   C71   A    
C1    C29   S    
C17   C18   S    
C34   C45   A    
C60   O30   A    
C32   C37   S    
C60   O2    A    
Cr6   O3    S    
C6    C7    A    
Cr5   O8    S    
Cr3   O23   S    
C17   H40   S    
C4    O15   A    
C30   C35   A    
C36   H13   S    
C57   H29   S    
C46   H19   S    
Cr1   O1    S    
C22   C27   S    
C55   C57   S    
C43   C44   A    
C9    C34   A    
C25   C69   S    
C16   O16   A    
C18   H42   S    
C4    O14   A    
C64   H26   S    
C39   C62   S    
H37   O24   S    
C11   C17   S    
C26   H6    S    
C37   H14   S    
C61   O27   A    
C31   C36   S    
C14   C19   A    
C54   H24   S    
Cr6   O11   S    
C5    H12   S    
C66   H30   S    
C12   C45   S    
Cr5   O30   S    
C53   C58   A    
C39   C44   A    
C28   C58   S    
C56   C67   A    
Cr2   O19   S    
C70   O24   S    
C50   C55   S    
Cr1   O26   S    
C61   O3    A    
C2    C3    A    
Cr6   O10   S    
C1    O4    A    
C71   C72   A    
C38   C40   S    
C11   C13   A    
C62   O7    A    
Cr1   O17   S    
C16   C19   S    
C14   H38   S    
Cr2   O14   S    
C2    H35   S    
C37   H16   S    
C10   C59   S    
C42   C47   S    
C64   C72   A    
C33   H9    S    
Cr6   O2    S    
C10   C11   A    
C17   H41   S    
C48   C52   S    
C20   C21   A    
Cr4   O28   S    
C18   H2    S    
C49   C50   A    
Cr1   O18   S    
C40   O23   A    
C2    C23   A    
C67   H15   S    
C14   C15   A    
C33   C38   A    
C4    C9    S    
C30   C63   S    
C72   H4    S    
C64   C66   A    
