data_mof_unit_41074.cif
_audit_creation_date              2013-03-05T16:44:04-0500
_audit_creation_method            fapswitch 2.2
_symmetry_space_group_name_H-M    P1
_symmetry_Int_Tables_number       1
_space_group_crystal_system       triclinic
_cell_length_a                    19.22177
_cell_length_b                    10.690433
_cell_length_c                    9.855003
_cell_angle_alpha                 89.739322
_cell_angle_beta                  89.931757
_cell_angle_gamma                 90.081463
_cell_volume                      2025.07068999

loop_
_atom_site_label
_atom_site_type_symbol
_atom_site_description
_atom_site_fract_x
_atom_site_fract_y
_atom_site_fract_z
_atom_type_partial_charge
O1    O     O_R   0.500010 0.316790 0.614690 -0.618842
O2    O     O_R   0.500000 0.316760 0.385350 -0.626251
C1    C     C_R   0.499605 0.260060 0.500239 0.912890
O3    O     O_R   0.398140 0.500000 0.614710 -0.626643
O4    O     O_R   0.398130 0.499970 0.385370 -0.602334
C2    C     C_R   0.365587 0.500670 0.500311 0.932477
Zn1   Zn    Zn3+2 0.500000 0.500020 0.653130 0.998314
Zn2   Zn    Zn3+2 0.500000 0.499980 0.346870 1.004631
O5    O     O_R   0.500000 0.683240 0.614650 -0.626459
O6    O     O_R   0.499990 0.683210 0.385310 -0.623401
O7    O     O_R   0.601870 0.500030 0.614630 -0.567874
O8    O     O_R   0.601860 0.500000 0.385290 -0.577005
C3    C     C_R   0.501243 0.739690 0.499826 0.865401
C4    C     C_R   0.634612 0.500165 0.500013 1.015600
C5    C     C_R   0.254398 0.481347 0.623442 -0.169809
H1    H     H_    0.282718 0.456853 0.714751 0.201934
C6    C     C_R   0.182216 0.490290 0.628934 0.319629
C7    C     C_R   0.145880 0.522505 0.509366 -0.052218
C8    C     C_R   0.181806 0.549438 0.389128 -0.127879
H2    H     H_    0.154037 0.574099 0.297193 0.200511
C9    C     C_R   0.253669 0.541122 0.385439 -0.096744
H3    H     H_    0.280645 0.562856 0.291721 0.200896
C10   C     C_R   0.290130 0.506150 0.502248 -0.095319
N1    N     N_R   0.035179 0.615440 0.446133 -0.125696
N2    N     N_R   0.966137 0.614228 0.445240 -0.060957
C11   C     C_R   0.930930 0.517693 0.502778 0.484046
N3    N     N_R   0.966599 0.421101 0.558293 -0.094647
N4    N     N_R   0.035538 0.422453 0.559542 -0.082087
C12   C     C_R   0.070690 0.520394 0.505161 0.337217
C13   C     C_R   0.819336 0.479398 0.623787 0.149988
C14   C     C_R   0.746967 0.470837 0.619792 0.526941
C15   C     C_R   0.710557 0.503512 0.501004 -0.487473
C16   C     C_R   0.747213 0.543377 0.385211 0.504669
C17   C     C_R   0.819174 0.550064 0.387780 0.596155
C18   C     C_R   0.855468 0.517630 0.505936 -0.394353
C19   C     C_R   0.477240 0.062207 0.612348 0.001569
C20   C     C_R   0.503581 0.128080 0.501424 -0.038055
C21   C     C_R   0.537976 0.065597 0.396126 -0.175160
H4    H     H_    0.561830 0.116322 0.312725 0.168741
C22   C     C_R   0.539113 0.936145 0.396068 -0.175808
H5    H     H_    0.563315 0.887242 0.312346 0.174601
C23   C     C_R   0.506219 0.871278 0.501784 -0.046664
C24   C     C_R   0.479442 0.934344 0.613020 0.072276
C25   C     C_3   0.409190 0.920114 0.676138 -0.492286
C26   C     C_3   0.405391 0.061788 0.673171 0.116605
H6    H     H_    0.371333 0.871643 0.609082 0.227902
H7    H     H_    0.412527 0.880993 0.780636 0.194870
H8    H     H_    0.402615 0.102757 0.775980 0.120575
C27   C     C_R   0.444016 0.454749 0.071797 0.149250
N5    N     N_R   0.499530 0.499140 0.142800 -0.146529
C28   C     C_R   0.551885 0.556307 0.071569 -0.082681
H9    H     H_    0.594309 0.600021 0.125517 0.217315
C29   C     C_R   0.551858 0.556434 0.927544 -0.054447
H10   H     H_    0.594334 0.600083 0.872914 0.189534
N6    N     N_R   0.499530 0.499180 0.857150 -0.116733
C30   C     C_R   0.444475 0.453449 0.928961 0.183302
C31   C     C_3   0.418425 0.322389 0.924125 -0.553565
C32   C     C_3   0.416298 0.324490 0.078370 0.088002
H11   H     H_    0.366787 0.315437 0.874043 0.255790
H12   H     H_    0.458888 0.258151 0.884339 0.188253
H13   H     H_    0.452320 0.256854 0.127840 0.136631
N7    N     N_R   0.352010 0.109640 0.580655 0.241092
O9    O     O_R   0.308639 0.194334 0.622599 -0.364932
O10   O     O_R   0.346399 0.066974 0.457608 -0.319978
N8    N     N_R   0.345540 0.320356 0.133177 0.244931
O11   O     O_R   0.330805 0.243709 0.231901 -0.290436
O12   O     O_R   0.297179 0.393774 0.086003 -0.353331
N9    N     N_R   0.147237 0.470744 0.756552 0.219320
O13   O     O_R   0.095511 0.542076 0.791719 -0.308001
O14   O     O_R   0.172917 0.393501 0.845774 -0.289324
N10   N     N_R   0.855196 0.454099 0.748994 0.274733
O15   O     O_R   0.836540 0.360189 0.825318 -0.239590
O16   O     O_R   0.902024 0.531746 0.793535 -0.283487
F1    F     F_    0.712326 0.433040 0.733172 -0.582491
F2    F     F_    0.713697 0.577650 0.269695 -0.597363
F3    F     F_    0.853607 0.585389 0.273334 -0.549736

loop_
_geom_bond_atom_site_label_1
_geom_bond_atom_site_label_2
_geom_bond_distance
_ccdc_geom_bond_type
N6    C30   1.361372 A    
C8    H2    1.083820 S    
Zn1   N6    2.010606 S    
C13   N10   1.438866 S    
C29   H10   1.081578 S    
Zn1   O7    1.994096 S    
C11   N3    1.354049 A    
C20   C21   1.402159 A    
C13   C18   1.411120 A    
N4    C12   1.353536 A    
C8    C9    1.384757 A    
C7    C8    1.399371 A    
C21   H4    1.083594 S    
O7    C4    1.292393 A    
C31   H11   1.111587 S    
C5    H1    1.083539 S    
C26   N7    1.464669 S    
C30   C31   1.488198 S    
C5    C6    1.391897 A    
C17   C18   1.400632 A    
O5    C3    1.280207 A    
N1    C12   1.354349 A    
N7    O10   1.302054 A    
C16   F2    1.357903 S    
N9    O13   1.301504 A    
N8    O12   1.302341 A    
C25   H7    1.111708 S    
C32   H13   1.113072 S    
C22   C23   1.398823 A    
C9    H3    1.082790 S    
O3    Zn1   1.994648 S    
C3    C23   1.410059 S    
C25   H6    1.112618 S    
C16   C17   1.385230 A    
C29   N6    1.367978 A    
C28   H9    1.080836 S    
N1    N2    1.327204 A    
O3    C2    1.290060 A    
N10   O16   1.301567 A    
C31   H12   1.110635 S    
N5    C28   1.368103 A    
N2    C11   1.355098 A    
C27   C32   1.491361 S    
C28   C29   1.419368 A    
C24   C25   1.493358 S    
N7    O9    1.300155 A    
C32   N8    1.463351 S    
C14   C15   1.407546 A    
C13   C14   1.394557 A    
Zn2   O8    1.994646 S    
C6    C7    1.412049 A    
C19   C26   1.504877 S    
C7    C12   1.446083 S    
Zn2   O6    1.996795 S    
C22   H5    1.083602 S    
O8    C4    1.294719 A    
N8    O11   1.299862 A    
C9    C10   1.398172 A    
C23   C24   1.388361 A    
Zn2   N5    2.011202 S    
C25   C26   1.516573 S    
C26   H8    1.106882 S    
Zn1   O5    1.993380 S    
C19   C20   1.392104 A    
C6    N9    1.439688 S    
O1    Zn1   1.996795 S    
O2    Zn2   1.993378 S    
C4    C15   1.460230 S    
C14   F1    1.359588 S    
O6    C3    1.282585 A    
O4    Zn2   1.994098 S    
C27   C30   1.407792 A    
C15   C16   1.404653 A    
O2    C1    1.281851 A    
N10   O15   1.301431 A    
C21   C22   1.384098 A    
C31   C32   1.520860 S    
O4    C2    1.293394 A    
C2    C10   1.451784 S    
C5    C10   1.401137 A    
C11   C18   1.450815 S    
C1    C20   1.413097 S    
N9    O14   1.301642 A    
C27   N5    1.362657 A    
N3    N4    1.325255 A    
C19   C24   1.367614 A    
O1    C1    1.283076 A    
C17   F3    1.358822 S    
