data_mof_unit_21645.cif
_audit_creation_date              2012-12-11T18:09:23-0500
_audit_creation_method            fapswitch 2.2
_symmetry_space_group_name_H-M    P1
_symmetry_Int_Tables_number       1
_space_group_crystal_system       triclinic
_cell_length_a                    8.269136
_cell_length_b                    12.672473
_cell_length_c                    19.065945
_cell_angle_alpha                 99.372113
_cell_angle_beta                  91.201344
_cell_angle_gamma                 98.79719
_cell_volume                      1945.91170232

loop_
_atom_site_label
_atom_site_type_symbol
_atom_type_description
_atom_site_fract_x
_atom_site_fract_y
_atom_site_fract_z
_atom_type_partial_charge
Ba1   Ba    Ba6+2 0.853180 0.547790 0.465300 1.734591
Ba2   Ba    Ba6+2 0.336650 0.452300 0.534710 1.685295
C1    C     C_3   0.668764 0.940684 0.297950 -0.399362
C2    C     C_3   0.590223 0.822930 0.281226 0.276467
C3    C     C_3   0.464896 0.282400 0.317349 0.305677
C4    C     C_3   0.445031 0.250250 0.236889 -0.392895
C5    C     C_3   0.084539 0.227590 0.727949 0.317197
C6    C     C_3   0.074782 0.190166 0.800293 -0.242634
C7    C     C_3   0.640426 0.162895 0.714798 0.317550
C8    C     C_3   0.589073 0.041125 0.703787 -0.328184
C9    C     C_R   0.051064 0.562423 0.800903 -0.154608
C10   C     C_R   0.015772 0.542236 0.726505 0.047586
C11   C     C_R   0.850830 0.407262 0.811480 -0.152525
C12   C     C_3   0.093203 0.771555 0.271921 0.854578
C13   C     C_R   0.782628 0.412616 0.744546 -0.008302
C14   C     C_R   0.350760 0.579128 0.184391 -0.066361
C15   C     C_R   0.418399 0.570916 0.250927 0.062185
C16   C     C_R   0.138777 0.431597 0.196986 -0.164069
C17   C     C_R   0.174861 0.452903 0.271551 0.043992
C18   C     C_R   0.980170 0.487602 0.844860 0.011398
C19   C     C_R   0.874453 0.471716 0.699893 -0.232736
C20   C     C_R   0.215936 0.502745 0.151555 -0.002313
C21   C     C_R   0.322200 0.516932 0.296676 -0.172278
C22   C     C_R   0.759523 0.429157 0.961385 -0.084905
C23   C     C_3   0.072154 0.805282 0.199649 -0.310070
C24   C     C_R   0.656718 0.384853 0.009275 -0.069944
C25   C     C_R   0.709023 0.399454 0.079671 -0.067924
C26   C     C_R   0.866932 0.451058 0.099801 -0.087403
C27   C     C_R   0.986994 0.469657 0.049881 0.022096
C28   C     C_R   0.930134 0.462576 0.977042 0.037466
C29   C     C_R   0.156683 0.499684 0.072546 -0.019597
C30   C     C_R   0.267067 0.527781 0.018541 0.033759
C31   C     C_R   0.209999 0.522163 0.945723 0.018267
C32   C     C_R   0.040278 0.491290 0.923357 -0.016989
C33   C     C_R   0.437781 0.559658 0.033906 -0.083054
C34   C     C_3   0.231913 0.793147 0.621528 0.266107
C35   C     C_R   0.541120 0.604373 0.986371 -0.070519
C36   C     C_R   0.488326 0.593011 0.916269 -0.060300
C37   C     C_R   0.329651 0.543532 0.895678 -0.079351
C38   C     C_R   0.769036 0.181184 0.520962 -0.275279
C39   C     C_R   0.427127 0.807393 0.471818 0.315955
C40   C     C_R   0.401494 0.983916 0.446233 -0.198615
C41   C     C_R   0.336547 0.875846 0.443634 -0.011344
C42   C     C_R   0.577054 0.848467 0.509092 -0.004001
C43   C     C_R   0.643317 0.960065 0.513807 -0.124389
C44   C     C_R   0.554510 0.027809 0.480770 -0.058908
C45   C     C_3   0.196551 0.908213 0.631578 -0.325332
C46   C     C_R   0.619316 0.138488 0.484781 0.071897
C47   C     C_R   0.860049 0.115214 0.550984 -0.013543
C48   C     C_R   0.795301 0.006349 0.549759 -0.065421
C49   C     C_3   0.973234 0.203292 0.377522 0.263363
C50   C     C_3   0.044552 0.099241 0.366229 -0.334946
C51   C     C_3   0.724850 0.701510 0.678209 0.304691
C52   C     C_3   0.747136 0.734932 0.758530 -0.396815
H1    H     H_    0.521734 0.805113 0.328572 0.067853
H2    H     H_    0.254818 0.955048 0.682278 0.172708
H3    H     H_    0.242453 0.947617 0.586565 0.082533
H4    H     H_    0.063004 0.907038 0.634695 0.133791
H5    H     H_    0.839239 0.183715 0.381742 -0.003680
H6    H     H_    0.029107 0.252929 0.427969 0.061846
H7    H     H_    0.989318 0.046011 0.317128 0.134462
H8    H     H_    0.022939 0.057739 0.412744 0.106223
H9    H     H_    0.177213 0.117584 0.358234 0.131908
H10   H     H_    0.838513 0.675419 0.657209 0.000164
H11   H     H_    0.622042 0.632918 0.666504 0.073414
H12   H     H_    0.744694 0.954190 0.348213 0.122726
H13   H     H_    0.855811 0.799070 0.772185 0.141911
H14   H     H_    0.764923 0.664188 0.783506 0.054230
H15   H     H_    0.636613 0.766186 0.780055 0.128621
H16   H     H_    0.505872 0.813044 0.233788 0.087045
H17   H     H_    0.572053 0.992794 0.305190 0.115427
H18   H     H_    0.348909 0.306243 0.337719 -0.004432
H19   H     H_    0.565463 0.352411 0.329891 0.070138
H20   H     H_    0.340031 0.183561 0.222425 0.125061
H21   H     H_    0.422261 0.320589 0.212464 0.044296
H22   H     H_    0.558411 0.222937 0.215533 0.128721
H23   H     H_    0.744594 0.962443 0.253523 0.127162
H24   H     H_    0.077396 0.735338 0.156727 0.070127
H25   H     H_    0.189372 0.293495 0.728874 0.098542
H26   H     H_    0.971250 0.259836 0.718061 -0.077858
H27   H     H_    0.049932 0.257395 0.841580 -0.000082
H28   H     H_    0.971835 0.121851 0.798000 0.110188
H29   H     H_    0.712143 0.186319 0.766074 -0.014519
H30   H     H_    0.717173 0.182210 0.670255 -0.038714
H31   H     H_    0.699714 0.001486 0.704731 0.094853
H32   H     H_    0.522978 0.013061 0.651365 0.094241
H33   H     H_    0.998922 0.700949 0.275939 0.067836
H34   H     H_    0.510125 0.018196 0.746980 0.151031
H35   H     H_    0.140255 0.632326 0.822735 0.071799
H36   H     H_    0.799456 0.341162 0.837249 0.055716
H37   H     H_    0.404982 0.645876 0.159634 0.062588
H38   H     H_    0.045597 0.363469 0.176230 0.071851
H39   H     H_    0.832629 0.465735 0.645040 0.058263
H40   H     H_    0.364846 0.521666 0.351293 0.101232
H41   H     H_    0.697289 0.442776 0.914692 0.079764
H42   H     H_    0.529575 0.353059 0.993832 0.075042
H43   H     H_    0.623331 0.379352 0.119427 0.074357
H44   H     H_    0.892108 0.478192 0.154987 0.133182
H45   H     H_    0.499686 0.544376 0.080081 0.063910
H46   H     H_    0.668619 0.634876 0.001831 0.077724
H47   H     H_    0.573963 0.614676 0.876880 0.075527
H48   H     H_    0.304968 0.521236 0.839781 0.123500
H49   H     H_    0.329195 0.032707 0.421985 0.114216
H50   H     H_    0.864800 0.959657 0.577186 0.098634
H51   H     H_    0.818491 0.265917 0.523295 0.050214
H52   H     H_    0.952572 0.833446 0.194483 0.099709
H53   H     H_    0.171668 0.872136 0.193299 0.103101
H54   H     H_    0.365311 0.794037 0.617717 0.008758
H55   H     H_    0.166089 0.749466 0.571317 0.100846
O1    O     O_2   0.875110 0.423180 0.326290 -0.467641
O2    O     O_3   0.691524 0.790383 0.648539 -0.651079
O3    O     O_3   0.079181 0.858604 0.325877 -0.635277
O4    O     O_2   0.314600 0.576860 0.673750 -0.480775
O5    O     O_3   0.066300 0.567050 0.585060 -0.483475
O6    O     O_3   0.528700 0.375020 0.630330 -0.445159
O7    O     O_3   0.180237 0.749271 0.681497 -0.626781
O8    O     O_3   0.611760 0.365720 0.463870 -0.482559
O9    O     O_3   0.107460 0.315620 0.594570 -0.486159
O10   O     O_2   0.195223 0.123655 0.546296 -0.468618
O11   O     O_3   0.100963 0.139980 0.674794 -0.598441
O12   O     O_3   0.123410 0.433040 0.414950 -0.473157
O13   O     O_3   0.577950 0.634370 0.536140 -0.416803
O14   O     O_2   0.341900 0.231310 0.465740 -0.466839
O15   O     O_3   0.501493 0.193807 0.346652 -0.654945
O16   O     O_2   0.449802 0.414304 0.761017 -0.537264
O17   O     O_3   0.502185 0.215095 0.717003 -0.577312
O18   O     O_3   0.661010 0.625070 0.369680 -0.441055
O19   O     O_2   0.749029 0.551823 0.245180 -0.532320
O20   O     O_3   0.002759 0.251033 0.317001 -0.636590
O21   O     O_3   0.711060 0.756889 0.265802 -0.616453
O22   O     O_2   0.847800 0.768730 0.534310 -0.483650
O23   O     O_3   0.082250 0.684470 0.405440 -0.396717
O24   O     O_2   0.006413 0.877641 0.458223 -0.507954
P1    P     P_3+3 0.042930 0.392230 0.337410 0.990592
P2    P     P_3+3 0.672230 0.754900 0.555730 1.020899
P3    P     P_3+3 0.126254 0.824421 0.408539 1.055858
P4    P     P_3+3 0.146790 0.607860 0.662600 0.993052
P5    P     P_3+3 0.064994 0.174432 0.591128 0.963392
P6    P     P_3+3 0.632182 0.626335 0.279900 0.937204
P7    P     P_3+3 0.520691 0.230262 0.439316 0.933198
P8    P     P_3+3 0.569170 0.352811 0.715801 0.932458
C53   C     C_2   0.231829 0.156452 0.821928 0.568422
H56   H     H_    0.341635 0.216337 0.834008 0.011595
O25   O     O_2   0.236505 0.062351 0.827458 -0.584450
F1    F     F_    0.245127 0.742234 0.276935 -0.819205
F2    F     F_    0.364664 0.700885 0.465930 -0.708897

loop_
_geom_bond_atom_site_label_1
_geom_bond_atom_site_label_2
_ccdc_geom_bond_type
O6    P8    S    
C8    H31   S    
C48   H50   S    
C11   H36   S    
C34   H54   S    
C1    H17   S    
Ba1   O23   S    
C40   H49   S    
C2    H16   S    
C49   O20   S    
C4    H21   S    
Ba2   O14   S    
C17   P1    S    
C12   O3    S    
C12   F1    S    
C8    H34   S    
C24   C25   A    
C31   C37   A    
C6    H28   S    
C26   C27   A    
C33   C35   A    
C35   C36   A    
C22   C24   A    
C12   H33   S    
Ba1   Ba2   S    
C36   H47   S    
O22   P2    D    
C50   H7    S    
C36   C37   A    
C51   H10   S    
C52   H14   S    
C38   C47   A    
C34   C45   S    
C16   C17   A    
C40   C44   A    
O5    P4    S    
Ba1   O13   S    
C10   P4    S    
C13   P8    S    
C25   H43   S    
C39   F2    S    
O16   P8    D    
C14   C15   A    
O24   P3    D    
O12   P1    S    
C51   H11   S    
C7    C8    S    
O9    P5    S    
C3    H18   S    
C34   O7    S    
C18   C32   S    
C51   O2    S    
C42   P2    S    
C47   P5    S    
C39   C41   A    
O18   P6    S    
C15   C21   A    
O3    P3    S    
C33   H45   S    
O21   P6    S    
Ba2   O8    S    
O15   P7    S    
C23   H52   S    
C4    H20   S    
Ba1   O12   S    
Ba2   O13   S    
C24   H42   S    
C44   C46   A    
C9    C18   A    
C20   C29   S    
C46   P7    S    
C23   H24   S    
C30   C33   A    
C5    C6    S    
C22   H41   S    
C28   C32   A    
C2    O21   S    
C52   H13   S    
C51   C52   S    
O14   P7    D    
C6    H27   S    
C17   C21   A    
Ba2   O9    S    
C27   C28   A    
Ba1   O1    S    
C45   H3    S    
Ba2   O6    S    
C9    H35   S    
C29   C30   A    
C3    O15   S    
O23   P3    S    
C31   C32   A    
C15   P6    S    
Ba1   O8    S    
C7    H29   S    
C11   C13   A    
C2    H1    S    
C39   C42   A    
O4    P4    D    
O1    P1    D    
O8    P7    S    
O11   P5    S    
C40   C41   A    
Ba1   P1    S    
C1    H23   S    
C34   H55   S    
C42   C43   A    
C23   H53   S    
C37   H48   S    
C5    H25   S    
O7    P4    S    
Ba2   O12   S    
C26   H44   S    
C38   C46   A    
C8    H32   S    
C14   C20   A    
C11   C18   A    
C16   C20   A    
O10   P5    D    
C5    O11   S    
O19   P6    D    
Ba1   O18   S    
Ba1   O22   S    
C50   H9    S    
C9    C10   A    
C4    H22   S    
Ba2   P4    S    
O17   P8    S    
C7    O17   S    
C21   H40   S    
C16   H38   S    
C30   C31   A    
C49   C50   S    
C27   C29   A    
C50   H8    S    
C45   H4    S    
Ba2   O5    S    
O2    P2    S    
C3    C4    S    
C52   H15   S    
C19   H39   S    
C43   C48   A    
C10   C19   A    
Ba2   O4    S    
C53   O25   D    
C12   C23   S    
C3    H19   S    
C41   P3    S    
C22   C28   A    
O13   P2    S    
C7    H30   S    
O20   P1    S    
C1    H12   S    
C43   C44   A    
C13   C19   A    
C49   H5    S    
C14   H37   S    
C47   C48   A    
Ba1   O5    S    
C25   C26   A    
C53   H56   S    
C45   H2    S    
C6    C53   S    
C49   H6    S    
Ba1   P2    S    
C35   H46   S    
C1    C2    S    
C5    H26   S    
C38   H51   S    
