data_mof_unit_24832.cif
_audit_creation_date              2012-12-10T17:25:21-0500
_audit_creation_method            fapswitch 2.2
_symmetry_space_group_name_H-M    P1
_symmetry_Int_Tables_number       1
_space_group_crystal_system       triclinic
_cell_length_a                    27.805788
_cell_length_b                    10.861262
_cell_length_c                    9.570055
_cell_angle_alpha                 90.434222
_cell_angle_beta                  90.082278
_cell_angle_gamma                 92.555773
_cell_volume                      2887.25113927

loop_
_atom_site_label
_atom_site_type_symbol
_atom_type_description
_atom_site_fract_x
_atom_site_fract_y
_atom_site_fract_z
_atom_type_partial_charge
C1    C     C_R   0.503896 0.263105 0.500282 0.807259
C2    C     C_R   0.278489 0.488500 0.624523 -0.101088
C3    C     C_R   0.253608 0.500817 0.498492 0.353640
C4    C     C_R   0.101895 0.501440 0.495789 -0.050003
C5    C     C_R   0.125461 0.391316 0.518413 -0.119125
C6    C     C_R   0.098261 0.281329 0.535631 -0.192364
C7    C     C_R   0.129531 0.611262 0.472790 -0.001325
C8    C     C_R   0.354505 0.500011 0.499488 -0.042049
C9    C     C_R   0.645511 0.502960 0.500503 -0.041108
C10   C     C_R   0.972659 0.395957 0.539257 0.055921
C11   C     C_R   0.976630 0.610479 0.455677 0.043265
C12   C     C_R   0.407485 0.499755 0.499872 0.805859
C13   C     C_R   0.949391 0.503607 0.497822 0.067405
C14   C     C_R   0.944224 0.298527 0.598179 -0.127127
C15   C     C_R   0.894315 0.301109 0.601710 -0.166363
C16   C     C_R   0.870887 0.402455 0.550099 -0.021192
C17   C     C_R   0.898321 0.504742 0.499787 -0.047103
C18   C     C_R   0.874615 0.608364 0.452105 -0.025715
C19   C     C_R   0.824094 0.606994 0.453606 0.541671
C20   C     C_R   0.820453 0.404899 0.549921 0.546529
C21   C     C_R   0.721295 0.505620 0.374484 -0.082515
C22   C     C_R   0.671125 0.504153 0.373923 -0.179181
C23   C     C_R   0.497431 0.737665 0.501616 0.796609
C24   C     C_R   0.671028 0.504165 0.627495 -0.215942
C25   C     C_R   0.721195 0.505692 0.627731 -0.089879
C26   C     C_R   0.746517 0.506096 0.501304 0.341947
C27   C     C_R   0.023465 0.391225 0.525168 -0.085125
C28   C     C_R   0.050811 0.501672 0.495553 0.004126
C29   C     C_R   0.027627 0.612253 0.464716 0.070103
C30   C     C_R   0.048230 0.280050 0.536461 0.572322
C31   C     C_R   0.106359 0.720670 0.449075 -0.134436
C32   C     C_R   0.951724 0.712140 0.405795 -0.193882
C33   C     C_R   0.901719 0.710748 0.403848 -0.129140
C34   C     C_R   0.592518 0.500883 0.500138 0.789623
C35   C     C_R   0.056429 0.721378 0.444884 -0.190203
C36   C     C_R   0.532226 0.123201 0.754307 -0.145884
C37   C     C_R   0.527025 0.065601 0.883259 -0.134516
C38   C     C_R   0.503299 0.950763 0.891172 -0.141135
C39   C     C_R   0.489285 0.888289 0.768966 -0.157789
C40   C     C_R   0.499307 0.939900 0.635639 0.094374
C41   C     C_R   0.513722 0.065740 0.630691 0.099032
C42   C     C_R   0.508339 0.129364 0.502890 -0.117965
C43   C     C_R   0.500577 0.062908 0.378508 -0.186417
C44   C     C_R   0.496478 0.935715 0.380159 -0.177275
C45   C     C_R   0.175991 0.393167 0.519129 0.572499
C46   C     C_R   0.495698 0.872404 0.507194 -0.113330
C47   C     C_R   0.564072 0.664111 0.145770 -0.271351
C48   C     C_R   0.595332 0.744225 0.074065 0.605179
C49   C     C_R   0.595384 0.743834 0.930099 -0.273224
C50   C     C_R   0.564110 0.663635 0.857104 -0.266799
C51   C     C_R   0.531490 0.580607 0.925854 0.202200
C52   C     C_R   0.531472 0.580685 0.075611 0.131263
C53   C     C_R   0.470184 0.422977 0.073194 -0.058968
C54   C     C_R   0.470198 0.423013 0.925101 -0.067231
C55   C     C_R   0.179978 0.609109 0.474695 0.536495
C56   C     C_R   0.279114 0.512661 0.372981 -0.101025
C57   C     C_R   0.329246 0.511979 0.373264 -0.213585
C58   C     C_R   0.328650 0.488393 0.625228 -0.212748
Cu1   Cu    Cu3+1 0.500000 0.499990 0.640660 0.928770
Cu2   Cu    Cu3+1 0.500000 0.500010 0.359340 0.942244
H1    H     H_    0.347111 0.478817 0.724012 0.156680
H2    H     H_    0.260008 0.521985 0.275218 0.140238
H3    H     H_    0.126771 0.806742 0.433299 0.195587
H4    H     H_    0.969899 0.793431 0.364007 0.156417
H5    H     H_    0.652300 0.503819 0.726657 0.166455
H6    H     H_    0.884370 0.790919 0.364607 0.195327
H7    H     H_    0.740461 0.506582 0.726176 0.148899
H8    H     H_    0.041406 0.810023 0.429484 0.164027
H9    H     H_    0.497580 0.109164 0.279162 0.160441
H10   H     H_    0.551664 0.211575 0.752798 0.165896
H11   H     H_    0.540129 0.111740 0.977444 0.148689
H12   H     H_    0.258901 0.479406 0.721881 0.140058
H13   H     H_    0.496626 0.908700 0.991931 0.136190
H14   H     H_    0.469091 0.802158 0.782330 0.172081
H15   H     H_    0.493045 0.887015 0.281170 0.161741
H16   H     H_    0.445779 0.359895 0.128009 0.134972
H17   H     H_    0.567241 0.671842 0.255899 0.226763
H18   H     H_    0.619693 0.806511 0.874094 0.195301
H19   H     H_    0.566978 0.671748 0.747083 0.232778
H20   H     H_    0.445811 0.359918 0.868945 0.142764
H21   H     H_    0.115641 0.194525 0.545934 0.213456
H22   H     H_    0.652469 0.503664 0.274482 0.165760
H23   H     H_    0.740629 0.505674 0.276340 0.148521
H24   H     H_    0.874160 0.223404 0.646471 0.197394
H25   H     H_    0.959657 0.221187 0.648497 0.218060
H26   H     H_    0.348166 0.521229 0.274805 0.158879
N1    N     N_R   0.202066 0.501111 0.497845 -0.468892
N2    N     N_R   0.798133 0.506038 0.501645 -0.470569
N3    N     N_R   0.500460 0.501210 0.147910 -0.180701
N4    N     N_R   0.500480 0.501290 0.852040 -0.190806
O1    O     O_R   0.500000 0.319640 0.618810 -0.589366
O2    O     O_2   0.793894 0.306507 0.596256 -0.523963
O3    O     O_2   0.206777 0.714081 0.454194 -0.529863
O4    O     O_2   0.801087 0.706128 0.408616 -0.515639
O5    O     O_R   0.500000 0.319660 0.381240 -0.578683
O6    O     O_R   0.430260 0.500010 0.618770 -0.583154
O7    O     O_R   0.430270 0.500030 0.381200 -0.581100
O8    O     O_R   0.500000 0.680340 0.618760 -0.611369
O9    O     O_R   0.500000 0.680360 0.381190 -0.595941
O10   O     O_R   0.569730 0.499970 0.618800 -0.603351
O11   O     O_R   0.569740 0.499990 0.381230 -0.595479
O12   O     O_2   0.198920 0.287899 0.540005 -0.528779
F1    F     F_    0.625845 0.822873 0.145383 -0.644259
F2    F     F_    0.025112 0.167466 0.535935 -0.685687

loop_
_geom_bond_atom_site_label_1
_geom_bond_atom_site_label_2
_ccdc_geom_bond_type
C10   C27   A    
C23   O9    A    
C21   C26   A    
C41   C42   A    
C25   H7    S    
C7    C55   A    
C55   O3    S    
Cu2   O9    S    
C50   H19   S    
C52   N3    A    
C53   C54   A    
C49   H18   S    
C40   C46   A    
C20   O2    S    
C28   C29   A    
C22   H22   S    
C36   C37   A    
C45   N1    A    
C54   N4    A    
C51   N4    A    
C5    C6    A    
C9    C22   A    
C15   C16   A    
C57   H26   S    
C18   C19   A    
C39   H14   S    
C8    C58   A    
C21   H23   S    
C36   H10   S    
C16   C17   A    
C34   O10   A    
C8    C12   S    
C16   C20   A    
C58   H1    S    
Cu1   Cu2   S    
C43   H9    S    
C23   C46   S    
C21   C22   A    
C27   C30   A    
Cu1   O10   S    
C36   C41   A    
C4    C7    A    
C2    H12   S    
C4    C28   A    
C44   C46   A    
C33   H6    S    
C17   C18   A    
C54   H20   S    
C34   O11   A    
C7    C31   A    
C3    N1    S    
C51   C52   A    
C31   H3    S    
C24   C25   A    
C32   H4    S    
C19   N2    A    
C10   C14   A    
C39   C40   A    
C25   C26   A    
Cu2   N3    S    
C48   F1    S    
C5    C45   A    
Cu1   N4    S    
C44   H15   S    
C43   C44   A    
C37   C38   A    
C8    C57   A    
C3    C56   A    
C47   C48   A    
C1    O5    A    
C50   C51   A    
Cu1   O1    S    
C12   O7    A    
C47   C52   A    
C19   O4    S    
C24   H5    S    
C48   C49   A    
C6    C30   A    
C11   C32   A    
Cu2   O7    S    
C37   H11   S    
C53   N3    A    
C9    C34   S    
C31   C35   A    
C53   H16   S    
C56   C57   A    
C47   H17   S    
Cu2   O11   S    
C40   C41   A    
C14   H25   S    
C4    C5    A    
C10   C13   A    
C2    C58   A    
C9    C24   A    
C15   H24   S    
C29   C35   A    
C13   C17   A    
C32   C33   A    
C2    C3    A    
C11   C13   A    
C38   C39   A    
C35   H8    S    
C20   N2    A    
C1    O1    A    
Cu1   O6    S    
C56   H2    S    
C55   N1    A    
C18   C33   A    
C45   O12   S    
Cu2   O5    S    
C1    C42   S    
C23   O8    A    
C11   C29   A    
C26   N2    S    
C49   C50   A    
C42   C43   A    
C30   F2    S    
C27   C28   A    
C6    H21   S    
Cu1   O8    S    
C14   C15   A    
C12   O6    A    
C38   H13   S    
