data_mof_unit_46590.cif
_audit_creation_date              2012-12-10T17:14:46-0500
_audit_creation_method            fapswitch 2.2
_symmetry_space_group_name_H-M    P1
_symmetry_Int_Tables_number       1
_space_group_crystal_system       triclinic
_cell_length_a                    10.645422
_cell_length_b                    12.975045
_cell_length_c                    11.684808
_cell_angle_alpha                 100.438078
_cell_angle_beta                  93.730025
_cell_angle_gamma                 90.423935
_cell_volume                      1583.58807887

loop_
_atom_site_label
_atom_site_type_symbol
_atom_type_description
_atom_site_fract_x
_atom_site_fract_y
_atom_site_fract_z
_atom_type_partial_charge
C1    C     C_R   0.502069 0.299007 0.477768 0.832367
C2    C     C_R   0.605016 0.590672 0.856148 0.074516
C3    C     C_R   0.548414 0.544137 0.157979 0.051833
C4    C     C_R   0.450033 0.456754 0.841828 0.065966
C5    C     C_R   0.540529 0.538180 0.034831 -0.026853
C6    C     C_R   0.458426 0.461980 0.964955 -0.030463
C7    C     C_R   0.259375 0.499899 0.500265 0.831029
C8    C     C_R   0.740742 0.500346 0.499821 0.808904
C9    C     C_3   0.042536 0.415078 0.537073 0.015377
C10   C     C_3   0.958045 0.585317 0.463532 -0.083413
C11   C     C_3   0.952228 0.413681 0.428178 -0.181508
C12   C     C_R   0.498271 0.701018 0.522286 0.812011
C13   C     C_3   0.048309 0.586616 0.572479 -0.170915
C14   C     C_3   0.877419 0.500437 0.499941 -0.089916
C15   C     C_3   0.122926 0.499911 0.500467 -0.067674
C16   C     C_3   0.966146 0.500649 0.609635 -0.161167
C17   C     C_3   0.034315 0.499721 0.391008 -0.195095
C18   C     C_R   0.492075 0.814907 0.536532 -0.130389
C19   C     C_R   0.509177 0.185198 0.463895 -0.117800
C20   C     C_R   0.580149 0.016045 0.367735 -0.185022
C21   C     C_R   0.421890 0.984235 0.633147 -0.198412
C22   C     C_R   0.568889 0.123558 0.370729 -0.018593
C23   C     C_R   0.461176 0.138030 0.550838 -0.219468
C24   C     C_R   0.432201 0.876576 0.629625 -0.016089
C25   C     C_2   0.093001 0.318981 0.576496 0.846695
C26   C     C_2   0.909056 0.681001 0.421305 0.877943
C27   C     C_2   0.374559 0.831681 0.721637 0.871376
C28   C     C_2   0.625440 0.168352 0.278103 0.865004
C29   C     C_2   0.301744 0.309654 0.956499 0.865991
C30   C     C_2   0.697130 0.689829 0.044363 0.866853
C31   C     C_R   0.541503 0.862201 0.450339 -0.192260
C32   C     C_R   0.471146 0.030784 0.546507 0.137068
C33   C     C_R   0.531377 0.969465 0.454587 0.144412
C34   C     C_R   0.385891 0.395460 0.021022 -0.137909
C35   C     C_R   0.613701 0.604207 0.978949 -0.141942
C36   C     C_R   0.395471 0.408779 0.143879 0.078383
Cu1   Cu    Cu3+1 0.509400 0.507730 0.615930 0.986036
Cu2   Cu    Cu3+1 0.490600 0.492270 0.384070 0.987343
H1    H     H_    0.910664 0.342853 0.369902 0.199672
H2    H     H_    0.612443 0.598744 0.213743 0.181357
H3    H     H_    0.660765 0.640190 0.812835 0.174058
H4    H     H_    0.340477 0.358893 0.187368 0.185254
H5    H     H_    0.186729 0.184414 0.535785 0.343682
H6    H     H_    0.835059 0.597826 0.269228 0.293742
H7    H     H_    0.400698 0.766703 0.865398 0.339304
H8    H     H_    0.597688 0.232691 0.134054 0.336461
H9    H     H_    0.138735 0.227975 0.950794 0.366818
H10   H     H_    0.719998 0.813447 0.176452 0.360737
H11   H     H_    0.090203 0.657251 0.630866 0.207222
H12   H     H_    0.936273 0.500435 0.698892 0.188238
H13   H     H_    0.064092 0.500079 0.301746 0.178513
H14   H     H_    0.587763 0.815106 0.379368 0.196294
H15   H     H_    0.415710 0.185155 0.622329 0.186587
H16   H     H_    0.626741 0.968707 0.297263 0.165411
H17   H     H_    0.375213 0.031713 0.703597 0.183723
H18   H     H_    0.384057 0.403826 0.785842 0.170963
N1    N     N_R   0.523540 0.519360 0.790140 -0.204122
N2    N     N_R   0.476460 0.480640 0.209860 -0.205216
O1    O     O_R   0.506670 0.354460 0.582000 -0.583836
O2    O     O_R   0.159019 0.246947 0.500262 -0.752901
O3    O     O_2   0.928664 0.767382 0.481693 -0.518623
O4    O     O_R   0.842044 0.672670 0.313269 -0.734030
O5    O     O_2   0.260110 0.830785 0.725656 -0.579969
O6    O     O_R   0.451113 0.794774 0.806624 -0.733194
O7    O     O_2   0.739802 0.169652 0.273393 -0.588813
O8    O     O_R   0.547966 0.204676 0.193326 -0.732402
O9    O     O_2   0.334125 0.254021 0.867713 -0.603857
O10   O     O_R   0.187317 0.289107 0.001150 -0.737100
O11   O     O_2   0.801400 0.703844 0.011014 -0.556911
O12   O     O_R   0.493330 0.645540 0.418000 -0.578706
O13   O     O_R   0.654687 0.757727 0.140419 -0.760737
O14   O     O_R   0.490800 0.341410 0.386200 -0.558426
O15   O     O_R   0.509200 0.658590 0.613800 -0.562272
O16   O     O_R   0.324790 0.506500 0.597880 -0.592312
O17   O     O_R   0.675210 0.493500 0.402120 -0.594168
O18   O     O_R   0.308910 0.493440 0.402080 -0.580128
O19   O     O_R   0.691090 0.506560 0.597920 -0.583682
O20   O     O_2   0.076102 0.303940 0.674653 -0.570845

loop_
_geom_bond_atom_site_label_1
_geom_bond_atom_site_label_2
_ccdc_geom_bond_type
C2    C35   A    
Cu1   O16   S    
Cu2   O12   S    
C36   H4    S    
C24   C27   S    
C31   H14   S    
C17   H13   S    
C30   O13   S    
C2    N1    A    
C9    C25   S    
Cu2   O18   S    
C30   C35   S    
C18   C24   A    
C9    C16   S    
C16   H12   S    
H8    O8    S    
C36   N2    A    
C1    O1    A    
C5    C6    A    
C11   C14   S    
C2    H3    S    
C28   O8    S    
C12   O12   A    
Cu2   N2    S    
C4    N1    A    
C31   C33   A    
C25   O2    S    
C10   C26   S    
C7    C15   S    
C22   C28   S    
C12   O15   A    
C4    H18   S    
C23   H15   S    
C7    O16   A    
Cu2   O17   S    
C21   C32   A    
Cu2   O14   S    
C1    C19   S    
C1    O14   A    
C25   O20   D    
C19   C22   A    
C20   H16   S    
C10   C14   S    
C21   H17   S    
H6    O4    S    
Cu1   O19   S    
C29   C34   S    
C8    O17   A    
C6    C34   A    
C19   C23   A    
Cu1   Cu2   S    
C29   O10   S    
C11   H1    S    
C9    C11   S    
Cu1   O1    S    
C27   O5    D    
H5    O2    S    
C13   H11   S    
C20   C33   A    
C4    C6    A    
C20   C22   A    
C3    H2    S    
C13   C15   S    
C8    O19   A    
C14   C16   S    
C21   C24   A    
H10   O13   S    
H9    O10   S    
C30   O11   D    
C15   C17   S    
Cu1   O15   S    
C11   C17   S    
C8    C14   S    
C26   O3    D    
C3    C5    A    
C10   C13   S    
C7    O18   A    
H7    O6    S    
C32   C33   A    
C28   O7    D    
C9    C15   S    
C29   O9    D    
C23   C32   A    
C5    C35   A    
C34   C36   A    
C26   O4    S    
C27   O6    S    
C3    N2    A    
C13   C16   S    
C12   C18   S    
C18   C31   A    
C10   C17   S    
Cu1   N1    S    
