data_mof_unit_60651.cif
_audit_creation_date              2012-12-10T21:00:22-0500
_audit_creation_method            fapswitch 2.2
_symmetry_space_group_name_H-M    P1
_symmetry_Int_Tables_number       1
_space_group_crystal_system       triclinic
_cell_length_a                    15.865185
_cell_length_b                    15.091077
_cell_length_c                    15.820758
_cell_angle_alpha                 89.926563
_cell_angle_beta                  89.992883
_cell_angle_gamma                 89.990076
_cell_volume                      3787.8458493

loop_
_atom_site_label
_atom_site_type_symbol
_atom_type_description
_atom_site_fract_x
_atom_site_fract_y
_atom_site_fract_z
_atom_type_partial_charge
C1    C     C_R   0.338974 0.500006 0.500029 0.922126
C2    C     C_R   0.043237 0.496617 0.578005 -0.021063
C3    C     C_R   0.043270 0.503325 0.422184 -0.026313
C4    C     C_R   0.086796 0.499998 0.500099 -0.010392
C5    C     C_1   0.824040 0.499963 0.500056 -0.025898
C6    C     C_R   0.499960 0.500051 0.338093 0.904972
C7    C     C_1   0.176025 0.500014 0.500101 -0.117692
C8    C     C_1   0.250765 0.500017 0.500076 -0.145562
C9    C     C_1   0.749303 0.499976 0.500016 -0.142572
C10   C     C_R   0.497200 0.952832 0.419430 -0.033844
C11   C     C_R   0.497193 0.047420 0.419436 -0.028685
C12   C     C_3   0.571788 0.562700 0.949636 -0.140774
C13   C     C_R   0.499911 0.905015 0.496532 0.009008
C14   C     C_R   0.499904 0.095004 0.496547 0.007569
C15   C     C_R   0.502579 0.953221 0.572451 -0.152605
C16   C     C_R   0.502576 0.046581 0.572458 -0.145239
C17   C     C_1   0.499984 0.807036 0.498770 0.100491
C18   C     C_1   0.499980 0.192970 0.498786 0.100326
C19   C     C_R   0.661039 0.499993 0.499969 0.897820
C20   C     C_R   0.499815 0.499935 0.661895 0.908432
C21   C     C_3   0.408904 0.524866 0.051286 -0.257895
C22   C     C_3   0.528116 0.406114 0.049019 -0.276385
C23   C     C_3   0.565556 0.572896 0.050599 -0.144518
C24   C     C_3   0.512795 0.398967 0.950431 -0.112782
C25   C     C_3   0.406920 0.533455 0.950944 -0.163071
C26   C     C_1   0.498504 0.499673 0.750108 -0.092001
C27   C     C_3   0.500200 0.500102 0.083162 -0.056302
C28   C     C_3   0.496963 0.498675 0.916881 -0.028467
C29   C     C_2   0.332013 0.485051 0.909722 0.504038
C30   C     C_2   0.439528 0.337415 0.927935 0.444412
C31   C     C_2   0.341275 0.465915 0.089925 0.408283
C32   C     C_2   0.496889 0.327073 0.100162 0.397654
C33   C     C_2   0.588298 0.353724 0.907825 0.502366
C34   C     C_1   0.497310 0.499115 0.824945 -0.011546
C35   C     C_2   0.390324 0.629514 0.924775 0.427851
C36   C     C_2   0.535137 0.665377 0.078651 0.489810
C37   C     C_2   0.652320 0.561469 0.092936 0.513090
C38   C     C_1   0.571849 0.650132 0.906279 0.136874
C39   C     C_1   0.655089 0.527184 0.922884 0.211285
C40   C     C_2   0.088385 0.506835 0.339660 0.469292
C41   C     C_2   0.088322 0.493068 0.660534 0.464420
C42   C     C_1   0.494390 0.095669 0.340234 0.185123
C43   C     C_1   0.494414 0.904839 0.340215 0.198616
C44   C     C_1   0.500103 0.500146 0.175046 -0.034958
C45   C     C_1   0.500004 0.500153 0.249875 -0.103493
C46   C     C_R   0.955449 0.503266 0.423403 -0.125652
C47   C     C_R   0.955413 0.496642 0.576766 -0.129420
C48   C     C_R   0.912744 0.499954 0.500078 0.065042
H1    H     H_    0.504685 0.918398 0.632333 0.160909
H2    H     H_    0.449250 0.334494 0.148716 0.077546
H3    H     H_    0.598891 0.362053 0.840522 0.077269
H4    H     H_    0.411832 0.653093 0.863694 0.109870
H5    H     H_    0.497886 0.706996 0.037292 0.100513
H6    H     H_    0.664621 0.507493 0.136576 0.054360
H7    H     H_    0.156692 0.506898 0.337119 0.092993
H8    H     H_    0.156629 0.493321 0.663096 0.099505
H9    H     H_    0.504680 0.081233 0.632345 0.166642
H10   H     H_    0.597110 0.403334 0.059899 0.193935
H11   H     H_    0.394487 0.590566 0.079259 0.234960
H12   H     H_    0.919952 0.505782 0.364857 0.193949
H13   H     H_    0.919890 0.494113 0.635304 0.192357
H14   H     H_    0.289210 0.443544 0.945215 0.073340
H15   H     H_    0.397660 0.310930 0.975594 0.062797
H16   H     H_    0.338005 0.396127 0.075338 0.029269
N1    N     N_1   0.500020 0.270550 0.499980 -0.079141
N2    N     N_1   0.500020 0.729450 0.499980 -0.078447
N3    N     N_1   0.572683 0.718176 0.872353 -0.162856
N4    N     N_1   0.720337 0.500636 0.901969 -0.129048
N5    N     N_1   0.492149 0.134267 0.277011 -0.124797
N6    N     N_1   0.492185 0.866465 0.276965 -0.093696
O1    O     O_R   0.378020 0.573650 0.500000 -0.607375
O2    O     O_2   0.425436 0.317376 0.854404 -0.541705
O3    O     O_2   0.288897 0.496843 0.138198 -0.510115
O4    O     O_2   0.526103 0.253393 0.087655 -0.477918
O5    O     O_2   0.635480 0.304265 0.946647 -0.503841
O6    O     O_2   0.345030 0.678337 0.966393 -0.538824
O7    O     O_2   0.547864 0.692270 0.150407 -0.524764
O8    O     O_2   0.709150 0.614171 0.078918 -0.503743
O9    O     O_2   0.049610 0.509711 0.273020 -0.514571
O10   O     O_2   0.049523 0.489785 0.727152 -0.523356
O11   O     O_R   0.378020 0.426350 0.500000 -0.604541
O12   O     O_R   0.500000 0.573700 0.377120 -0.586942
O13   O     O_R   0.500000 0.426300 0.377120 -0.620059
O14   O     O_R   0.621980 0.573680 0.499960 -0.605169
O15   O     O_R   0.621980 0.426320 0.499960 -0.610282
O16   O     O_R   0.500000 0.573630 0.622840 -0.617385
O17   O     O_R   0.500000 0.426370 0.622840 -0.596506
O18   O     O_2   0.317970 0.492269 0.834021 -0.546874
Zn1   Zn    Zn3+2 0.500000 0.598370 0.499970 1.022934
Zn2   Zn    Zn3+2 0.500000 0.401630 0.499970 1.017037

loop_
_geom_bond_atom_site_label_1
_geom_bond_atom_site_label_2
_ccdc_geom_bond_type
C6    O12   A    
C6    C45   S    
C1    C8    S    
C39   N4    T    
C14   C18   S    
C41   O10   D    
C7    C8    T    
C18   N1    T    
C21   C31   S    
C12   C23   S    
C17   N2    T    
C1    O1    A    
O12   Zn1   S    
C22   C32   S    
C12   C28   S    
C21   H11   S    
C36   O7    D    
C32   O4    D    
C11   C14   A    
C31   O3    D    
C2    C41   S    
C1    O11   A    
C15   C16   A    
C20   O17   A    
C11   C42   S    
C29   O18   D    
C36   H5    S    
C27   C44   S    
C26   C34   T    
C20   O16   A    
C23   C27   S    
C21   C27   S    
C28   C34   S    
C30   H15   S    
C4    C7    S    
C9    C19   S    
N2    Zn1   S    
C25   C29   S    
N1    Zn2   S    
C5    C48   S    
C46   C48   A    
C35   O6    D    
C47   H13   S    
C23   C37   S    
O16   Zn1   S    
C42   N5    T    
C25   C28   S    
C2    C4    A    
C41   H8    S    
C5    C9    T    
C47   C48   A    
O1    Zn1   S    
C40   H7    S    
C40   O9    D    
C32   H2    S    
C25   C35   S    
C37   H6    S    
C3    C40   S    
C43   N6    T    
C22   C27   S    
C13   C15   A    
C22   C24   S    
C33   O5    D    
O14   Zn1   S    
O11   Zn2   S    
C19   O14   A    
C44   C45   T    
O13   Zn2   S    
C21   C25   S    
C29   H14   S    
C6    O13   A    
C46   H12   S    
C10   C43   S    
C31   H16   S    
C24   C28   S    
C19   O15   A    
C10   C13   A    
C22   H10   S    
C30   O2    D    
O15   Zn2   S    
C2    C47   A    
C33   H3    S    
C37   O8    D    
C3    C46   A    
C24   C33   S    
C13   C17   S    
C12   C39   S    
C20   C26   S    
C14   C16   A    
C16   H9    S    
C15   H1    S    
C12   C38   S    
C24   C30   S    
C10   C11   A    
C38   N3    T    
C23   C36   S    
O17   Zn2   S    
C35   H4    S    
C3    C4    A    
