data_mof_unit_37836.cif
_audit_creation_date              2013-03-05T16:44:16-0500
_audit_creation_method            fapswitch 2.2
_symmetry_space_group_name_H-M    P1
_symmetry_Int_Tables_number       1
_space_group_crystal_system       triclinic
_cell_length_a                    23.34792
_cell_length_b                    10.695011
_cell_length_c                    9.940667
_cell_angle_alpha                 89.338448
_cell_angle_beta                  89.598189
_cell_angle_gamma                 90.169683
_cell_volume                      2482.00880536

loop_
_atom_site_label
_atom_site_type_symbol
_atom_site_description
_atom_site_fract_x
_atom_site_fract_y
_atom_site_fract_z
_atom_type_partial_charge
O1    O     O_R   0.500010 0.316790 0.614690 -0.670322
O2    O     O_R   0.500000 0.316760 0.385350 -0.565056
C1    C     C_R   0.500029 0.260215 0.500811 0.873712
O3    O     O_R   0.416160 0.499980 0.614700 -0.589276
O4    O     O_R   0.416150 0.499940 0.385360 -0.578178
C2    C     C_R   0.389790 0.500663 0.500299 1.092648
Zn1   Zn    Zn3+2 0.500000 0.500020 0.653130 0.966613
Zn2   Zn    Zn3+2 0.500000 0.499980 0.346870 1.017442
O5    O     O_R   0.500000 0.683240 0.614650 -0.605594
O6    O     O_R   0.499990 0.683210 0.385310 -0.643145
O7    O     O_R   0.583850 0.500060 0.614640 -0.580579
O8    O     O_R   0.583840 0.500020 0.385300 -0.586611
C3    C     C_R   0.501210 0.739552 0.499431 0.884307
C4    C     C_R   0.610281 0.500849 0.499715 0.977716
C5    C     C_R   0.879924 0.598397 0.432962 0.637313
N1    N     N_R   0.852197 0.511144 0.511014 -0.330120
C6    C     C_R   0.880768 0.425418 0.587867 0.628906
C7    C     C_R   0.940669 0.426104 0.590214 -0.153734
C8    C     C_R   0.970241 0.515624 0.510169 -0.148131
C9    C     C_R   0.939816 0.602820 0.430492 -0.151944
C10   C     C_R   0.971743 0.340348 0.669673 0.698598
C11   C     C_R   0.031298 0.343301 0.668802 -0.201658
C12   C     C_R   0.060972 0.430881 0.588661 -0.120217
C13   C     C_R   0.030472 0.517446 0.509159 -0.011949
C14   C     C_R   0.060163 0.605397 0.428125 -0.129449
C15   C     C_R   0.029636 0.691757 0.349756 -0.202248
C16   C     C_R   0.970057 0.691010 0.350748 0.697758
C17   C     C_R   0.120743 0.433799 0.585187 0.675857
N2    N     N_R   0.148649 0.518617 0.504275 -0.291287
C18   C     C_R   0.119984 0.603826 0.426855 0.687847
O9    O     O_2   0.849271 0.679642 0.357803 -0.465108
O10   O     O_2   0.850922 0.340657 0.661833 -0.458585
H1    H     H_    0.054057 0.276123 0.730683 0.227585
O11   O     O_2   0.150927 0.352760 0.661755 -0.526562
O12   O     O_2   0.149410 0.685758 0.348333 -0.503924
H2    H     H_    0.051738 0.760203 0.287039 0.227767
C19   C     C_R   0.240768 0.609525 0.564741 0.550122
C20   C     C_R   0.300185 0.604232 0.565186 0.459214
C21   C     C_R   0.328116 0.505940 0.500178 -0.521629
C22   C     C_R   0.296912 0.414654 0.432087 0.439871
C23   C     C_R   0.237522 0.419908 0.432085 0.566610
C24   C     C_R   0.209518 0.516678 0.499388 -0.164091
C25   C     C_R   0.763390 0.418365 0.434211 0.602145
C26   C     C_R   0.703809 0.414680 0.430232 0.004110
C27   C     C_R   0.672342 0.505310 0.500407 -0.210811
C28   C     C_R   0.700175 0.598665 0.575201 0.086204
C29   C     C_R   0.760272 0.598193 0.582923 0.119894
C30   C     C_R   0.791230 0.508495 0.510680 0.076398
C31   C     C_R   0.498397 0.061173 0.623456 -0.042351
C32   C     C_R   0.504741 0.128096 0.502541 -0.078410
C33   C     C_R   0.520444 0.066301 0.383806 -0.170289
H3    H     H_    0.529370 0.116882 0.290908 0.172833
C34   C     C_R   0.521788 0.937268 0.382575 -0.219130
H4    H     H_    0.531040 0.890039 0.289093 0.162274
C35   C     C_R   0.507502 0.871206 0.500177 -0.092211
C36   C     C_R   0.500717 0.933650 0.620991 0.035882
C37   C     C_3   0.455713 0.916416 0.727234 0.018665
C38   C     C_3   0.451519 0.060127 0.730308 0.317123
H5    H     H_    0.417054 0.868674 0.687490 0.178194
C39   C     C_R   0.451111 0.522345 0.071607 -0.023304
N3    N     N_R   0.499610 0.499140 0.142800 -0.096019
C40   C     C_R   0.550027 0.493215 0.070621 0.196020
C41   C     C_R   0.549567 0.483557 0.927569 0.187611
N4    N     N_R   0.499610 0.499180 0.857150 -0.124831
C42   C     C_R   0.451026 0.523975 0.929690 -0.002246
C43   C     C_3   0.396078 0.451041 0.928180 -0.121597
C44   C     C_3   0.396560 0.451275 0.081697 0.475697
H6    H     H_    0.401005 0.358336 0.880392 0.179612
H7    H     H_    0.361675 0.505447 0.130311 0.102057
F1    F     F_    0.945054 0.253254 0.748561 -0.581108
N5    N     N_2   0.675605 0.318165 0.358441 -0.278684
H8    H     H_    0.696610 0.292544 0.271422 0.273069
C45   C     C_3   0.659826 0.210966 0.440842 -0.717543
H9    H     H_    0.698667 0.166652 0.484157 0.268419
H10   H     H_    0.637516 0.141126 0.378151 0.229593
H11   H     H_    0.630523 0.239029 0.523567 0.220245
N6    N     N_2   0.667372 0.692475 0.641089 -0.294577
H12   H     H_    0.682660 0.719064 0.733472 0.227632
C46   C     C_3   0.652451 0.797740 0.555720 -0.770427
H13   H     H_    0.691634 0.848290 0.521435 0.249383
H14   H     H_    0.625127 0.863485 0.612916 0.237449
H15   H     H_    0.628335 0.765813 0.466485 0.234657
N7    N     N_2   0.790340 0.689887 0.657932 -0.288762
H16   H     H_    0.773254 0.778515 0.652768 0.254908
C47   C     C_3   0.804157 0.651717 0.793929 -0.684743
H17   H     H_    0.829515 0.726401 0.842591 0.266564
H18   H     H_    0.830166 0.565122 0.793873 0.267081
H19   H     H_    0.764406 0.635164 0.853706 0.220706
N8    N     N_2   0.476641 0.857269 0.850769 -0.287133
H20   H     H_    0.456346 0.774245 0.874513 0.238620
C48   C     C_3   0.537284 0.857557 0.881896 -0.717762
H21   H     H_    0.560445 0.791204 0.816029 0.250380
H22   H     H_    0.543178 0.827332 0.988107 0.217261
H23   H     H_    0.555813 0.952699 0.869396 0.251597
N9    N     N_2   0.398038 0.111128 0.677782 -0.316644
H24   H     H_    0.399659 0.204280 0.650190 0.237927
C49   C     C_3   0.344166 0.074900 0.740493 -0.633145
H25   H     H_    0.310775 0.069245 0.661843 0.288907
H26   H     H_    0.330531 0.146492 0.813857 0.218186
H27   H     H_    0.346823 0.982667 0.792295 0.248981
N10   N     N_2   0.470202 0.118671 0.854591 -0.319750
H28   H     H_    0.483358 0.210115 0.842727 0.230066
C50   C     C_3   0.436058 0.099313 0.975542 -0.612544
H29   H     H_    0.462472 0.121229 0.064711 0.258533
H30   H     H_    0.420518 0.001814 0.986164 0.246518
H31   H     H_    0.398385 0.161491 0.975082 0.263512
N11   N     N_2   0.603244 0.501347 0.137665 -0.257436
H32   H     H_    0.633739 0.437921 0.107647 0.219836
C51   C     C_3   0.625402 0.627668 0.146777 -0.748534
H33   H     H_    0.665279 0.627214 0.207025 0.250352
H34   H     H_    0.593733 0.688957 0.197414 0.245952
H35   H     H_    0.635288 0.666751 0.045228 0.202568
N12   N     N_2   0.601205 0.455650 0.858201 -0.258402
H36   H     H_    0.636434 0.507076 0.886243 0.216949
C52   C     C_3   0.613221 0.323630 0.845583 -0.745014
H37   H     H_    0.653364 0.311245 0.786685 0.243904
H38   H     H_    0.578182 0.276191 0.791472 0.254547
H39   H     H_    0.618466 0.279047 0.946184 0.212454
N13   N     N_2   0.349051 0.523498 0.873394 -0.271887
H40   H     H_    0.345634 0.613278 0.909675 0.250776
C53   C     C_3   0.294990 0.457211 0.869941 -0.642996
H41   H     H_    0.261051 0.520204 0.831387 0.264143
H42   H     H_    0.282347 0.424826 0.972560 0.253346
H43   H     H_    0.298361 0.375750 0.802068 0.232869
F2    F     F_    0.404483 0.333799 0.137784 -0.614586
F3    F     F_    0.942525 0.776588 0.272906 -0.582791
F4    F     F_    0.213398 0.703150 0.629786 -0.578741
F5    F     F_    0.330480 0.694974 0.627737 -0.631738
F6    F     F_    0.323941 0.319354 0.368932 -0.562259
F7    F     F_    0.206977 0.330739 0.367856 -0.567230
F8    F     F_    0.794653 0.332749 0.365760 -0.627468

loop_
_geom_bond_atom_site_label_1
_geom_bond_atom_site_label_2
_geom_bond_distance
_ccdc_geom_bond_type
C43   H6    1.110285 S    
C22   F6    1.358029 S    
N10   H28   1.029450 S    
N2    C24   1.421884 S    
C7    C10   1.409501 A    
C45   H10   1.109324 S    
C23   C24   1.400040 A    
C34   C35   1.396844 A    
N9    H24   1.030793 S    
C35   C36   1.389213 A    
C3    C35   1.415366 S    
N1    C30   1.423679 S    
C49   H25   1.110003 S    
N6    H12   1.030365 S    
Zn1   O7    1.992124 S    
C15   C16   1.391008 A    
C19   C20   1.388621 A    
C37   N8    1.462613 S    
C18   O12   1.349915 S    
N7    H16   1.030360 S    
O4    C2    1.294093 A    
C17   N2    1.366256 A    
C51   H34   1.111326 S    
C20   C21   1.400649 A    
O7    C4    1.294567 A    
C37   H5    1.112857 S    
C52   H37   1.110676 S    
C36   C37   1.494060 S    
C26   N5    1.424076 S    
C7    C8    1.413253 A    
C45   H9    1.111632 S    
C19   C24   1.399177 A    
O5    C3    1.287966 A    
C53   H43   1.110718 S    
C8    C9    1.412933 A    
C39   C44   1.483479 S    
N1    C6    1.365219 A    
C52   H38   1.107269 S    
N11   H32   1.029897 S    
C29   N7    1.425006 S    
N8    C48   1.451429 S    
N2    C18   1.365776 A    
C25   C30   1.396303 A    
Zn2   N3    2.028800 S    
N13   C53   1.446649 S    
C43   C44   1.526216 S    
C17   O11   1.350225 S    
N10   C50   1.450459 S    
C10   C11   1.390712 A    
N11   C51   1.449282 S    
O3    Zn1   1.997046 S    
C49   H26   1.109303 S    
C1    C32   1.417532 S    
C6    C7    1.398921 A    
C4    C27   1.449688 S    
N6    C46   1.446860 S    
C5    C9    1.399029 A    
C47   H18   1.108971 S    
C33   H3    1.083495 S    
C13   C14   1.408925 A    
O3    C2    1.296932 A    
C51   H35   1.110595 S    
C21   C22   1.400023 A    
C46   H14   1.109718 S    
C40   N11   1.416986 S    
C14   C15   1.401095 A    
C47   H17   1.110260 S    
C31   C38   1.519749 S    
C33   C34   1.380644 A    
N12   C52   1.447065 S    
C39   N3    1.361426 A    
O1    C1    1.289741 A    
C38   N9    1.461486 S    
C40   C41   1.427080 A    
C48   H22   1.110217 S    
C29   C30   1.403993 A    
Zn2   O8    1.997044 S    
C52   H39   1.110628 S    
C2    C21   1.441241 S    
C32   C33   1.406310 A    
C50   H30   1.106713 S    
C38   N10   1.460301 S    
C12   C17   1.395950 A    
C5    O9    1.349679 S    
C53   H41   1.109106 S    
C15   H2    1.083311 S    
C22   C23   1.387937 A    
N7    C47   1.446562 S    
O8    C4    1.298020 A    
C39   C42   1.410668 A    
C42   C43   1.499726 S    
C43   N13   1.451326 S    
C25   C26   1.392391 A    
C45   H11   1.110600 S    
C46   H13   1.110769 S    
O4    Zn2   1.992125 S    
C31   C36   1.365593 A    
C48   H21   1.110292 S    
C49   H27   1.109571 S    
C26   C27   1.406618 A    
N5    C45   1.446626 S    
N12   H36   1.029967 S    
C47   H19   1.111160 S    
C14   C18   1.396796 A    
Zn1   O5    1.992188 S    
C11   H1    1.083321 S    
C28   C29   1.405804 A    
O1    Zn1   2.000881 S    
O2    Zn2   1.992185 S    
O6    C3    1.291122 A    
C46   H15   1.110568 S    
C20   F5    1.358232 S    
N13   H40   1.032695 S    
N9    C49   1.449589 S    
C34   H4    1.083526 S    
C9    C16   1.409773 A    
C28   N6    1.426486 S    
C10   F1    1.357854 S    
N4    C42   1.368124 A    
C44   F2    1.382122 S    
O2    C1    1.291145 A    
N5    H8    1.031593 S    
C51   H33   1.110554 S    
C48   H23   1.109828 S    
C37   C38   1.541030 S    
C23   F7    1.357259 S    
C25   F8    1.358528 S    
C16   F3    1.357857 S    
C8    C13   1.406324 A    
C50   H31   1.104243 S    
N3    C40   1.376277 A    
Zn1   N4    2.027968 S    
C53   H42   1.111180 S    
C12   C13   1.408446 A    
C41   N4    1.374157 A    
C41   N12   1.418934 S    
C27   C28   1.411402 A    
Zn2   O6    2.000882 S    
C31   C32   1.398565 A    
C50   H29   1.110229 S    
C6    O10   1.349692 S    
C11   C12   1.401147 A    
C44   H7    1.111921 S    
N8    H20   1.029457 S    
C5    N1    1.365491 A    
C19   F4    1.357215 S    
