data_mof_unit_10900.cif
_audit_creation_date              2013-03-05T16:04:40-0500
_audit_creation_method            fapswitch 2.2
_symmetry_space_group_name_H-M    P1
_symmetry_Int_Tables_number       1
_space_group_crystal_system       triclinic
_cell_length_a                    6.957652
_cell_length_b                    23.121076
_cell_length_c                    23.631317
_cell_angle_alpha                 112.605574
_cell_angle_beta                  90.480033
_cell_angle_gamma                 90.937762
_cell_volume                      3508.55802043

loop_
_atom_site_label
_atom_site_type_symbol
_atom_site_description
_atom_site_fract_x
_atom_site_fract_y
_atom_site_fract_z
_atom_type_partial_charge
O1    O     O_R   0.505740 0.453370 0.547760 -0.579507
O2    O     O_R   0.169520 0.427650 0.423350 -0.612110
O3    O     O_R   0.005620 0.546630 0.452240 -0.598549
C1    C     C_R   0.337507 0.408506 0.399568 0.980490
O4    O     O_R   0.175610 0.445960 0.545510 -0.564133
O5    O     O_R   0.011740 0.565080 0.575280 -0.561616
C2    C     C_R   0.343986 0.433406 0.561934 1.003895
O6    O     O_R   0.499610 0.434920 0.424720 -0.601191
O7    O     O_3   0.341310 0.539060 0.509620 -0.273667
V1    V     V_3+5 0.063960 0.492750 0.498220 1.190924
O8    O     O_R   0.682400 0.572350 0.576650 -0.591427
C3    C     C_R   0.853960 0.589259 0.601472 0.994158
O9    O     O_R   0.676320 0.554040 0.454490 -0.600395
C4    C     C_R   0.845221 0.565718 0.437517 0.908239
V2    V     V_3+5 0.564740 0.507250 0.501780 1.176195
O10   O     O_3   0.837250 0.460940 0.490380 -0.269127
C5    C     C_R   0.801053 0.852731 0.092110 -0.118028
H1    H     H_    0.690084 0.846659 0.057748 0.149632
C6    C     C_R   0.792520 0.815992 0.127368 -0.152069
H2    H     H_    0.676790 0.781830 0.118510 0.115757
C7    C     C_R   0.933350 0.822528 0.172682 0.156340
C8    C     C_R   0.084269 0.866634 0.181197 -0.083245
H3    H     H_    0.192473 0.874533 0.216702 0.149141
C9    C     C_R   0.096206 0.901908 0.144568 -0.158726
H4    H     H_    0.214367 0.935272 0.152127 0.130395
C10   C     C_R   0.953896 0.895661 0.099991 -0.125307
C11   C     C_R   0.088579 0.760967 0.229527 0.436652
C12   C     C_R   0.076129 0.734633 0.274102 0.442660
C13   C     C_R   0.895637 0.715226 0.288319 -0.150552
C14   C     C_R   0.729988 0.733442 0.265852 -0.252062
H5    H     H_    0.589833 0.719816 0.276129 0.216962
C15   C     C_R   0.743213 0.770072 0.230615 -0.214805
H6    H     H_    0.613381 0.787319 0.218088 0.208098
C16   C     C_R   0.921920 0.783949 0.211189 -0.142842
C17   C     C_R   0.738199 0.687680 0.370914 -0.157467
H7    H     H_    0.640471 0.725724 0.379223 0.118841
C18   C     C_R   0.724183 0.651230 0.406413 -0.172041
H8    H     H_    0.612955 0.661213 0.440464 0.125293
C19   C     C_R   0.856330 0.603718 0.399330 -0.112280
C20   C     C_R   0.999984 0.592607 0.355173 -0.190882
H9    H     H_    0.102533 0.555830 0.348229 0.127580
C21   C     C_R   0.010093 0.627767 0.318454 -0.101066
H10   H     H_    0.119148 0.616697 0.283666 0.139072
C22   C     C_R   0.880604 0.676324 0.326275 0.175600
C23   C     C_R   0.880091 0.639889 0.663250 -0.334868
C24   C     C_R   0.929019 0.854067 0.840544 -0.306887
C25   C     C_R   0.733147 0.803593 0.748097 -0.082774
C26   C     C_R   0.779225 0.855513 0.800960 -0.134118
C27   C     C_R   0.035537 0.798712 0.826032 0.341580
C28   C     C_R   0.983399 0.743958 0.773081 -0.197034
C29   C     C_R   0.831985 0.747716 0.733734 0.172768
C30   C     C_R   0.781647 0.696042 0.679702 -0.259290
C31   C     C_R   0.022348 0.634189 0.703797 0.441557
C32   C     C_R   0.074519 0.685373 0.757911 0.251141
H11   H     H_    0.671395 0.700446 0.648972 0.145892
H12   H     H_    0.617214 0.806970 0.718661 0.108160
H13   H     H_    0.695953 0.897444 0.811195 0.133979
C33   C     C_R   0.350661 0.354802 0.338829 -0.255117
C34   C     C_R   0.456901 0.142797 0.162000 -0.154110
C35   C     C_R   0.343527 0.176222 0.267628 0.351253
C36   C     C_R   0.385190 0.128923 0.210541 -0.247528
C37   C     C_R   0.488105 0.205844 0.171018 -0.234179
C38   C     C_R   0.441416 0.254580 0.227250 0.151133
C39   C     C_R   0.361328 0.240765 0.276046 -0.175678
C40   C     C_R   0.304159 0.292099 0.330867 0.468948
C41   C     C_R   0.435315 0.366187 0.290429 -0.239581
C42   C     C_R   0.475170 0.317163 0.235058 -0.156353
H14   H     H_    0.472546 0.413725 0.295796 0.137557
H15   H     H_    0.538306 0.328285 0.198600 0.130450
H16   H     H_    0.363339 0.080245 0.204124 0.150552
H17   H     H_    0.542710 0.217029 0.133510 0.120395
C43   C     C_R   0.290558 0.106220 0.867041 -0.134397
H18   H     H_    0.162866 0.079850 0.869388 0.132259
C44   C     C_R   0.286032 0.140923 0.829953 -0.099721
H19   H     H_    0.154553 0.140828 0.805112 0.178477
C45   C     C_R   0.447588 0.176029 0.825271 -0.084549
C46   C     C_R   0.618444 0.174799 0.857973 0.365010
C47   C     C_R   0.621135 0.139413 0.895007 -0.275414
H20   H     H_    0.752529 0.138231 0.919416 0.176008
C48   C     C_R   0.458298 0.104781 0.899849 -0.177506
C49   C     C_R   0.477266 0.278699 0.811718 -0.022485
H21   H     H_    0.522667 0.301607 0.859243 0.123977
C50   C     C_R   0.463907 0.314169 0.775313 -0.179462
H22   H     H_    0.498297 0.363849 0.795730 0.122366
C51   C     C_R   0.403078 0.286024 0.713598 0.121630
C52   C     C_R   0.355690 0.221580 0.689334 -0.128625
H23   H     H_    0.310386 0.198238 0.641861 0.136438
C53   C     C_R   0.369551 0.186171 0.725677 -0.124384
H24   H     H_    0.333848 0.136553 0.705600 0.117712
C54   C     C_R   0.432062 0.214193 0.787063 0.174259
C55   C     C_R   0.231265 0.313595 0.633722 -0.231429
H25   H     H_    0.120542 0.279084 0.630984 0.158443
C56   C     C_R   0.212145 0.348752 0.597051 0.386962
C57   C     C_R   0.353562 0.394961 0.600279 -0.323251
C58   C     C_R   0.510368 0.404257 0.641173 -0.098609
H26   H     H_    0.620290 0.439453 0.645439 0.151911
C59   C     C_R   0.525905 0.369491 0.678128 -0.125615
H27   H     H_    0.648246 0.377901 0.708946 0.128313
C60   C     C_R   0.386788 0.323627 0.674742 0.063308
O11   O     O_R   0.309730 0.065160 0.075230 -0.593171
O12   O     O_R   0.633800 0.053970 0.954410 -0.607153
O13   O     O_R   0.797580 0.934860 0.924760 -0.583877
C61   C     C_R   0.465418 0.066051 0.937641 0.940495
O14   O     O_R   0.639820 0.072410 0.076610 -0.590477
O15   O     O_R   0.803650 0.953440 0.047830 -0.598166
C62   C     C_R   0.471533 0.091135 0.100481 0.943276
O16   O     O_R   0.303670 0.046590 0.952160 -0.602325
O17   O     O_3   0.468000 0.960960 0.990410 -0.244041
V3    V     V_3+5 0.745380 0.007240 0.001780 1.184928
O18   O     O_R   0.132940 0.946010 0.045600 -0.579974
C63   C     C_R   0.964063 0.934214 0.062403 0.964353
O19   O     O_R   0.126920 0.927560 0.923400 -0.561478
C64   C     C_R   0.955138 0.909147 0.899467 0.994838
V4    V     V_3+5 0.244590 0.992720 0.998240 1.217110
O20   O     O_3   0.972110 0.039040 0.009600 -0.285481
O21   O     O_3   0.118073 0.578499 0.690164 -0.629351
C65   C     C_3   0.000400 0.534623 0.703054 0.162609
H28   H     H_    0.956681 0.496752 0.658804 0.144704
H29   H     H_    0.866386 0.554483 0.728479 0.094375
C66   C     C_3   0.117227 0.506631 0.741049 -0.211923
H30   H     H_    0.255078 0.489248 0.718079 0.206851
H31   H     H_    0.150894 0.543547 0.786825 0.244486
C67   C     C_3   0.008226 0.452827 0.749449 -1.026881
H32   H     H_    0.872527 0.469784 0.774290 0.273002
H33   H     H_    0.098311 0.433113 0.776441 0.282262
H34   H     H_    0.974422 0.415143 0.704192 0.277778
N1    N     N_R   0.214223 0.675339 0.797898 0.267297
O22   O     O_R   0.386913 0.658601 0.778386 -0.348134
O23   O     O_R   0.158367 0.670252 0.848214 -0.361177
N2    N     N_R   0.194721 0.798890 0.864959 0.254860
O24   O     O_R   0.369357 0.802521 0.847181 -0.369793
O25   O     O_R   0.165362 0.804168 0.921037 -0.364622
O26   O     O_3   0.224260 0.282117 0.379833 -0.640818
C68   C     C_3   0.029104 0.262574 0.367194 0.258347
H35   H     H_    0.005610 0.223808 0.383320 0.214814
H36   H     H_    0.987572 0.243515 0.317508 0.047189
C69   C     C_3   0.897418 0.316299 0.402644 -0.352104
H37   H     H_    0.964218 0.344868 0.447678 0.287654
H38   H     H_    0.876544 0.346651 0.376385 0.188703
C70   C     C_3   0.702867 0.291637 0.413468 -0.710374
H39   H     H_    0.638083 0.261202 0.368836 0.248335
H40   H     H_    0.607004 0.331216 0.437167 0.258077
H41   H     H_    0.718727 0.263941 0.442500 0.298512
N3    N     N_R   0.290719 0.156725 0.316232 0.236053
O27   O     O_R   0.165241 0.111256 0.305618 -0.412269
O28   O     O_R   0.396842 0.173858 0.365763 -0.354179
N4    N     N_R   0.791583 0.207132 0.852655 0.213379
O29   O     O_R   0.912990 0.228870 0.898541 -0.421051
O30   O     O_R   0.839757 0.208644 0.800137 -0.434107
N5    N     N_R   0.050768 0.334989 0.555825 0.218265
O31   O     O_R   0.909500 0.373862 0.568362 -0.437219
O32   O     O_R   0.019719 0.277398 0.517955 -0.400612
O33   O     O_3   0.265853 0.764566 0.205088 -0.683623
C71   C     C_3   0.273216 0.718972 0.144352 0.176653
H42   H     H_    0.379703 0.735708 0.119173 0.130558
H43   H     H_    0.135031 0.712754 0.118187 0.108913
C72   C     C_3   0.337646 0.655723 0.143977 -0.317429
H44   H     H_    0.477810 0.661779 0.168468 0.224028
H45   H     H_    0.230317 0.637426 0.167825 0.197456
C73   C     C_3   0.359124 0.607812 0.078654 -0.949947
H46   H     H_    0.219680 0.600013 0.053307 0.272900
H47   H     H_    0.405574 0.562582 0.079871 0.269386
H48   H     H_    0.469008 0.624360 0.054152 0.272543
O34   O     O_3   0.242500 0.727815 0.303131 -0.676240
C74   C     C_3   0.248005 0.772971 0.364260 0.162290
H49   H     H_    0.327106 0.752742 0.392977 0.122501
H50   H     H_    0.103553 0.784529 0.385408 0.098032
C75   C     C_3   0.351828 0.833240 0.367675 -0.291849
H51   H     H_    0.498533 0.822418 0.349081 0.217646
H52   H     H_    0.271753 0.854307 0.339710 0.209068
C76   C     C_3   0.367783 0.880888 0.433601 -0.980332
H53   H     H_    0.222483 0.893655 0.453075 0.269797
H54   H     H_    0.443465 0.923921 0.434567 0.285155
H55   H     H_    0.450727 0.861327 0.462273 0.258397

loop_
_geom_bond_atom_site_label_1
_geom_bond_atom_site_label_2
_geom_bond_distance
_ccdc_geom_bond_type
C36   H16   1.084275 S    
C11   O33   1.381038 S    
C41   H14   1.083609 S    
C76   H53   1.110881 S    
C74   H49   1.108318 S    
N2    O25   1.301457 A    
C58   H26   1.082849 S    
C70   H41   1.109842 S    
C1    O6    1.298257 A    
C68   C69   1.527872 S    
O19   V4    1.988684 S    
V4    O20   2.160356 S    
C26   H13   1.083757 S    
C51   C52   1.407692 A    
O21   C65   1.416622 S    
C69   H38   1.111394 S    
C24   C27   1.415204 A    
C56   C57   1.420245 A    
C44   C45   1.405645 A    
C50   H22   1.082792 S    
C5    C10   1.403867 A    
C12   C13   1.412709 A    
C6    C7    1.408113 A    
C18   H8    1.083131 S    
C9    C10   1.404202 A    
C27   N2    1.432737 S    
C65   H29   1.119177 S    
O5    C3    1.290819 A    
C14   H5    1.077904 S    
C47   C48   1.407412 A    
C67   H33   1.110684 S    
O12   V3    1.991445 S    
V2    O10   2.160378 S    
O17   V3    2.155096 S    
O17   V4    1.710960 S    
O18   C63   1.301247 A    
C59   C60   1.402739 A    
C4    C19   1.483485 S    
O8    V2    1.988512 S    
C33   C41   1.400726 A    
C75   C76   1.525373 S    
N4    O29   1.301428 A    
O1    V2    1.983028 S    
O7    V1    2.155161 S    
C46   N4    1.439136 S    
C71   H43   1.115578 S    
C31   O21   1.384931 S    
C20   C21   1.400068 A    
C41   C42   1.396415 A    
O15   C63   1.299752 A    
C23   C31   1.414435 A    
C72   H45   1.110948 S    
O1    C2    1.303846 A    
C7    C8    1.409496 A    
C72   H44   1.108768 S    
O34   C74   1.420043 S    
C56   N5    1.429234 S    
C74   H50   1.116171 S    
C21   C22   1.408090 A    
O14   C62   1.310156 A    
O19   C64   1.310157 A    
C49   C50   1.401732 A    
C66   H31   1.110386 S    
C59   H27   1.080770 S    
C24   C26   1.403996 A    
C8    H3    1.082225 S    
C11   C16   1.415444 A    
C70   H39   1.105376 S    
C76   H55   1.110973 S    
C38   C42   1.402096 A    
C34   C36   1.398184 A    
C34   C62   1.490687 S    
C44   H19   1.082306 S    
C48   C61   1.489103 S    
C29   C30   1.409435 A    
C73   H48   1.110983 S    
C67   H32   1.110945 S    
O11   V4    1.984814 S    
C45   C46   1.419073 A    
C71   C72   1.533369 S    
N3    O28   1.300623 A    
C65   C66   1.528890 S    
C19   C20   1.404853 A    
O4    C2    1.302850 A    
C47   H20   1.083201 S    
C43   H18   1.083141 S    
C67   H34   1.109489 S    
C68   H36   1.117441 S    
C7    C16   1.500954 S    
C23   C30   1.396925 A    
C28   C29   1.424997 A    
C46   C47   1.409358 A    
C49   H21   1.083016 S    
C43   C48   1.403634 A    
C35   C36   1.408057 A    
C42   H15   1.083678 S    
C17   H7    1.078727 S    
C15   C16   1.403358 A    
O2    C1    1.309412 A    
N1    O23   1.300922 A    
O16   V4    1.984823 S    
C13   C14   1.401830 A    
C51   C60   1.492332 S    
N5    O32   1.300726 A    
C55   C56   1.404482 A    
C76   H54   1.110381 S    
C33   C40   1.419786 A    
C25   C26   1.390050 A    
C37   C38   1.417449 A    
C58   C59   1.400491 A    
C5    H1    1.083293 S    
C28   C32   1.422626 A    
C9    H4    1.083391 S    
C17   C22   1.405878 A    
C71   H42   1.108019 S    
O3    C4    1.299596 A    
C49   C54   1.405829 A    
C43   C44   1.397829 A    
C20   H9    1.083325 S    
C50   C51   1.407338 A    
C53   C54   1.403891 A    
C45   C54   1.489807 S    
C74   C75   1.532884 S    
O9    V2    1.984543 S    
C13   C22   1.497737 S    
O26   C68   1.416494 S    
C8    C9    1.401068 A    
C21   H10   1.082644 S    
N1    O22   1.301289 A    
O2    V1    1.986449 S    
O18   V4    1.984616 S    
C55   H25   1.083382 S    
C66   H30   1.108924 S    
C12   O34   1.382447 S    
C61   O16   1.302022 A    
C32   N1    1.432509 S    
C2    C57   1.495271 S    
O15   V3    1.986376 S    
C75   H51   1.108568 S    
C34   C37   1.402670 A    
C24   C64   1.489529 S    
C17   C18   1.402041 A    
C52   H23   1.082694 S    
C70   H40   1.108236 S    
N3    O27   1.301491 A    
O5    V1    1.983602 S    
C25   C29   1.397527 A    
O8    C3    1.310883 A    
C30   H11   1.084549 S    
C31   C32   1.407945 A    
C68   H35   1.110915 S    
C3    C23   1.486433 S    
C72   C73   1.525472 S    
O6    V2    1.984540 S    
N4    O30   1.301446 A    
C69   H37   1.107305 S    
O11   C62   1.294298 A    
C35   C39   1.430803 A    
C15   H6    1.077355 S    
C6    H2    1.079507 S    
N2    O24   1.300857 A    
O7    V2    1.711541 S    
O4    V1    1.991249 S    
C18   C19   1.405140 A    
O3    V1    1.986729 S    
C66   C67   1.524331 S    
C65   H28   1.111206 S    
C35   N3    1.434268 S    
C14   C15   1.399998 A    
O14   V3    1.986567 S    
C69   C70   1.521675 S    
C39   C40   1.444746 A    
C75   H52   1.111111 S    
C5    C6    1.400915 A    
C37   H17   1.084200 S    
C52   C53   1.399594 A    
C57   C58   1.409016 A    
C73   H46   1.110894 S    
V3    O20   1.707622 S    
C38   C39   1.424896 A    
C53   H24   1.083138 S    
O12   C61   1.302149 A    
C27   C28   1.435133 A    
C1    C33   1.498724 S    
C11   C12   1.407379 A    
O13   C64   1.292883 A    
N5    O31   1.300282 A    
O13   V3    1.983579 S    
V1    O10   1.707550 S    
C55   C60   1.402036 A    
O33   C71   1.419068 S    
O9    C4    1.302125 A    
C10   C63   1.481974 S    
C40   O26   1.383153 S    
C73   H47   1.110368 S    
C25   H12   1.083978 S    
