data_mof_unit_50672.cif
_audit_creation_date              2012-12-10T18:04:41-0500
_audit_creation_method            fapswitch 2.2
_symmetry_space_group_name_H-M    P1
_symmetry_Int_Tables_number       1
_space_group_crystal_system       triclinic
_cell_length_a                    19.466586
_cell_length_b                    17.491685
_cell_length_c                    12.580467
_cell_angle_alpha                 90.022899
_cell_angle_beta                  99.426744
_cell_angle_gamma                 90.001046
_cell_volume                      4225.84356237

loop_
_atom_site_label
_atom_site_type_symbol
_atom_type_description
_atom_site_fract_x
_atom_site_fract_y
_atom_site_fract_z
_atom_type_partial_charge
C1    C     C_R   0.412302 0.104295 0.444395 0.935458
C2    C     C_R   0.783616 0.788696 0.650200 0.068522
C3    C     C_R   0.283735 0.711102 0.650119 0.111170
C4    C     C_R   0.283615 0.288697 0.650199 0.068521
C5    C     C_R   0.352617 0.737637 0.675155 -0.059388
C6    C     C_R   0.352808 0.262110 0.674787 -0.062173
C7    C     C_R   0.852614 0.237645 0.675165 -0.059381
C8    C     C_R   0.852808 0.762109 0.674790 -0.062173
C9    C     C_R   0.384597 0.771238 0.593064 0.405930
C10   C     C_R   0.384534 0.228924 0.592663 0.458921
C11   C     C_R   0.884596 0.271245 0.593075 0.405924
C12   C     C_R   0.412343 0.895668 0.444430 0.939334
C13   C     C_R   0.884534 0.728924 0.592665 0.458923
C14   C     C_R   0.680273 0.187508 0.519000 -0.208104
C15   C     C_R   0.680326 0.812633 0.518592 -0.207088
C16   C     C_R   0.180270 0.687511 0.519000 -0.208098
C17   C     C_R   0.180324 0.312631 0.518593 -0.207084
C18   C     C_R   0.683054 0.148672 0.703484 -0.234835
C19   C     C_R   0.682297 0.850121 0.703324 -0.209143
C20   C     C_R   0.183057 0.648667 0.703482 -0.234835
C21   C     C_R   0.182298 0.350125 0.703324 -0.209139
C22   C     C_R   0.366565 0.830932 0.411244 -0.121464
C23   C     C_R   0.912302 0.604295 0.444396 0.935462
C24   C     C_R   0.366494 0.168985 0.411085 -0.118457
C25   C     C_R   0.866570 0.330927 0.411248 -0.121465
C26   C     C_R   0.866495 0.668986 0.411085 -0.118461
C27   C     C_R   0.644051 0.990355 0.135936 -0.258075
C28   C     C_R   0.144051 0.490355 0.135936 -0.258071
C29   C     C_R   0.378509 0.997369 0.761644 -0.074246
C30   C     C_R   0.878509 0.497369 0.761644 -0.074258
C31   C     C_R   0.352999 0.982063 0.855956 -0.248841
C32   C     C_R   0.852999 0.482062 0.855956 -0.248848
C33   C     C_R   0.590719 0.898891 0.557526 0.892666
C34   C     C_R   0.912345 0.395667 0.444431 0.939322
C35   C     C_R   0.590827 0.100971 0.557641 0.894738
C36   C     C_R   0.090719 0.398891 0.557526 0.892664
C37   C     C_R   0.090827 0.600971 0.557641 0.894739
C38   C     C_R   0.399390 0.970649 0.951273 0.449494
C39   C     C_R   0.899390 0.470649 0.951273 0.449490
C40   C     C_R   0.472037 0.984242 0.953192 -0.126542
C41   C     C_R   0.972036 0.484242 0.953192 -0.126539
C42   C     C_R   0.495295 0.993937 0.853753 0.160889
C43   C     C_R   0.995295 0.493937 0.853753 0.160879
C44   C     C_R   0.522161 0.989068 0.047920 -0.089520
C45   C     C_R   0.748898 0.212813 0.541792 0.035938
C46   C     C_R   0.022161 0.489068 0.047920 -0.089520
C47   C     C_R   0.594647 0.989231 0.041508 0.150650
C48   C     C_R   0.094647 0.489231 0.041508 0.150649
C49   C     C_R   0.616676 0.991198 0.941441 0.364851
C50   C     C_R   0.116677 0.491198 0.941441 0.364855
C51   C     C_R   0.566604 0.996018 0.848924 -0.323604
C52   C     C_R   0.066604 0.496018 0.848924 -0.323607
C53   C     C_R   0.503120 0.999396 0.149120 -0.036062
C54   C     C_R   0.003120 0.499395 0.149120 -0.036063
C55   C     C_R   0.621317 0.994630 0.234094 -0.035020
C56   C     C_R   0.748921 0.787281 0.541642 0.057190
C57   C     C_R   0.121317 0.494630 0.234094 -0.035017
C58   C     C_R   0.749290 0.180342 0.730763 -0.124069
C59   C     C_R   0.748638 0.818812 0.730788 -0.160591
C60   C     C_R   0.249294 0.680335 0.730758 -0.124068
C61   C     C_R   0.248639 0.318815 0.730787 -0.160591
C62   C     C_R   0.649764 0.150124 0.596266 -0.048758
C63   C     C_R   0.649496 0.849482 0.595935 -0.052311
C64   C     C_R   0.149764 0.650124 0.596266 -0.048758
C65   C     C_R   0.149496 0.349482 0.595935 -0.052296
C66   C     C_R   0.337350 0.824129 0.302004 -0.216453
C67   C     C_R   0.248895 0.712815 0.541788 0.035939
C68   C     C_R   0.337368 0.175840 0.301793 -0.213580
C69   C     C_R   0.837360 0.324117 0.302007 -0.216444
C70   C     C_R   0.837369 0.675842 0.301794 -0.213579
C71   C     C_R   0.283536 0.772780 0.269612 0.171466
C72   C     C_R   0.283740 0.227433 0.269389 0.172664
C73   C     C_R   0.783548 0.272763 0.269616 0.171464
C74   C     C_R   0.783743 0.727436 0.269390 0.172665
C75   C     C_R   0.254901 0.733019 0.348232 -0.192898
C76   C     C_R   0.255148 0.267304 0.347999 -0.191040
C77   C     C_R   0.754911 0.233006 0.348236 -0.192898
C78   C     C_R   0.248920 0.287279 0.541642 0.057188
C79   C     C_R   0.755152 0.767309 0.348000 -0.191041
C80   C     C_R   0.282283 0.741910 0.459268 -0.016685
C81   C     C_R   0.282359 0.258251 0.459055 -0.018557
C82   C     C_R   0.782288 0.241904 0.459272 -0.016683
C83   C     C_R   0.782361 0.758254 0.459056 -0.018557
C84   C     C_R   0.345230 0.781586 0.488495 0.016596
C85   C     C_R   0.345171 0.218396 0.488253 -0.007958
C86   C     C_R   0.845233 0.281584 0.488501 0.016605
C87   C     C_R   0.845172 0.718397 0.488254 -0.007957
C88   C     C_R   0.783733 0.211106 0.650125 0.111172
H1    H     H_    0.659464 0.120291 0.764890 0.160944
H2    H     H_    0.842921 0.501890 0.686287 0.156697
H3    H     H_    0.297637 0.973736 0.853508 0.175744
H4    H     H_    0.797637 0.473735 0.853508 0.175743
H5    H     H_    0.584714 0.001433 0.773992 0.200408
H6    H     H_    0.084714 0.501433 0.773992 0.200409
H7    H     H_    0.774262 0.177733 0.814168 0.180405
H8    H     H_    0.772891 0.821211 0.814450 0.151367
H9    H     H_    0.274269 0.677722 0.814161 0.180406
H10   H     H_    0.272893 0.321216 0.814448 0.151367
H11   H     H_    0.649704 0.194039 0.439838 0.152835
H12   H     H_    0.658151 0.877558 0.764840 0.161069
H13   H     H_    0.649968 0.806456 0.439214 0.150869
H14   H     H_    0.149698 0.694046 0.439841 0.152832
H15   H     H_    0.149965 0.306451 0.439216 0.150867
H16   H     H_    0.355115 0.860025 0.241787 0.183714
H17   H     H_    0.355141 0.139922 0.241518 0.167870
H18   H     H_    0.855125 0.360010 0.241788 0.183710
H19   H     H_    0.855141 0.639923 0.241518 0.167870
H20   H     H_    0.712624 0.194181 0.320787 0.130663
H21   H     H_    0.713046 0.806337 0.320516 0.128119
H22   H     H_    0.212612 0.694197 0.320782 0.130663
H23   H     H_    0.159469 0.620284 0.764888 0.160942
H24   H     H_    0.213041 0.306331 0.320515 0.128119
H25   H     H_    0.658419 0.994468 0.308218 0.146284
H26   H     H_    0.158419 0.494469 0.308218 0.146285
H27   H     H_    0.693689 0.995949 0.859780 0.322805
H28   H     H_    0.193689 0.495951 0.859781 0.322802
H29   H     H_    0.407257 0.901479 0.071413 0.326102
H30   H     H_    0.907258 0.401478 0.071413 0.326099
H31   H     H_    0.431940 0.695043 0.784583 0.192898
H32   H     H_    0.405362 0.785079 0.812184 0.197215
H33   H     H_    0.393452 0.324734 0.806139 0.199039
H34   H     H_    0.158154 0.377563 0.764838 0.161066
H35   H     H_    0.365434 0.235657 0.834020 0.198190
H36   H     H_    0.931944 0.195063 0.784592 0.192932
H37   H     H_    0.905345 0.285089 0.812203 0.197185
H38   H     H_    0.893451 0.824732 0.806142 0.199042
H39   H     H_    0.865433 0.735655 0.834022 0.198189
H40   H     H_    0.233155 0.816057 0.129899 0.196913
H41   H     H_    0.217375 0.722763 0.145396 0.183216
H42   H     H_    0.233058 0.184546 0.129590 0.183880
H43   H     H_    0.218085 0.278024 0.145152 0.184649
H44   H     H_    0.733171 0.316031 0.129893 0.196913
H45   H     H_    0.699498 0.988684 0.134367 0.202933
H46   H     H_    0.717395 0.222737 0.145400 0.183218
H47   H     H_    0.733059 0.684550 0.129591 0.183879
H48   H     H_    0.718089 0.778028 0.145153 0.184649
H49   H     H_    0.476406 0.781134 0.684759 0.333507
H50   H     H_    0.476855 0.224036 0.683502 0.360562
H51   H     H_    0.976389 0.281199 0.684793 0.333526
H52   H     H_    0.976854 0.724034 0.683505 0.360563
H53   H     H_    0.199498 0.488685 0.134367 0.202934
H54   H     H_    0.450080 0.008677 0.160528 0.175925
H55   H     H_    0.950080 0.508677 0.160528 0.175926
H56   H     H_    0.342921 0.001890 0.686287 0.156694
N1    N     N_R   0.552340 0.000000 0.237260 -0.103980
N2    N     N_3   0.256891 0.236102 0.156771 -0.452383
N3    N     N_3   0.756563 0.264256 0.157008 -0.437584
N4    N     N_3   0.756893 0.736105 0.156772 -0.452384
N5    N     N_R   0.052340 0.500000 0.237260 -0.103981
N6    N     N_R   0.448170 1.000000 0.762060 -0.105972
N7    N     N_R   0.948170 0.500000 0.762060 -0.105976
N8    N     N_3   0.388848 0.730817 0.783783 -0.471027
N9    N     N_3   0.391217 0.267420 0.782205 -0.476030
N10   N     N_3   0.888843 0.230825 0.783794 -0.471027
N11   N     N_3   0.891216 0.767419 0.782208 -0.476028
N12   N     N_3   0.256546 0.764280 0.157004 -0.437578
O1    O     O_R   0.448200 0.076800 0.373930 -0.627538
O2    O     O_R   0.585240 0.076800 0.457600 -0.621084
O3    O     O_R   0.085240 0.423200 0.457600 -0.622375
O4    O     O_R   0.085240 0.576800 0.457600 -0.621083
O5    O     O_R   0.551780 0.923190 0.626070 -0.614559
O6    O     O_R   0.551780 0.076810 0.626070 -0.610876
O7    O     O_R   0.051780 0.423190 0.626070 -0.614578
O8    O     O_R   0.051780 0.576810 0.626070 -0.610871
O9    O     O_3   0.687114 0.992267 0.936094 -0.788000
O10   O     O_3   0.187114 0.492268 0.936095 -0.788002
O11   O     O_3   0.372479 0.938589 0.035567 -0.795118
O12   O     O_R   0.448200 0.923200 0.373930 -0.625946
O13   O     O_3   0.872479 0.438588 0.035566 -0.795118
O14   O     O_3   0.454878 0.789091 0.608954 -0.765898
O15   O     O_3   0.454867 0.211299 0.609092 -0.761676
O16   O     O_3   0.954877 0.289096 0.608969 -0.765897
O17   O     O_3   0.954867 0.711298 0.609095 -0.761675
O18   O     O_R   0.948200 0.576800 0.373930 -0.627537
O19   O     O_R   0.948200 0.423200 0.373930 -0.625942
O20   O     O_R   0.414750 0.076790 0.542400 -0.581768
O21   O     O_R   0.414750 0.923210 0.542400 -0.583095
O22   O     O_R   0.914750 0.576790 0.542400 -0.581763
O23   O     O_R   0.914750 0.423210 0.542400 -0.583116
O24   O     O_R   0.585240 0.923200 0.457600 -0.622375
Zn1   Zn    Zn3+2 0.522330 1.000000 0.387520 0.943161
Zn2   Zn    Zn3+2 0.022330 0.500000 0.387520 0.943161
Zn3   Zn    Zn3+2 0.477660 1.000000 0.612480 0.965919
Zn4   Zn    Zn3+2 0.977660 0.500000 0.612480 0.965899

loop_
_geom_bond_atom_site_label_1
_geom_bond_atom_site_label_2
_ccdc_geom_bond_type
O20   Zn3   S    
C83   C87   A    
C13   C87   A    
C1    O20   A    
O5    Zn3   S    
C8    C13   A    
H36   N10   S    
H42   N2    S    
C61   H10   S    
C80   C84   A    
O18   Zn2   S    
C34   O23   A    
N7    Zn4   S    
C47   C49   A    
C23   O18   A    
C28   C57   A    
O24   Zn1   S    
C13   O17   S    
H46   N3    S    
C5    N8    S    
H33   N9    S    
C73   N3    S    
C10   C85   A    
C74   N4    S    
C38   C40   A    
C70   H19   S    
C27   C55   A    
C43   C52   A    
C55   N1    A    
C11   C86   A    
C14   C62   A    
N1    Zn1   S    
H43   N2    S    
C53   H54   S    
C23   C26   S    
C21   H34   S    
C8    N11   S    
C22   C66   A    
C23   O22   A    
C34   O19   A    
C36   O3    A    
C29   N6    A    
C44   C53   A    
C18   C58   A    
C45   C82   A    
C19   C63   A    
H52   O17   S    
C49   C51   A    
C57   N5    A    
C70   C74   A    
C36   O7    A    
C50   C52   A    
C41   C46   A    
C69   C73   A    
C54   N5    A    
C24   C85   A    
C21   C61   A    
C44   C47   A    
C30   H2    S    
C42   C51   A    
H38   N11   S    
C40   C42   A    
C54   H55   S    
O7    Zn4   S    
C11   O16   S    
C33   O24   A    
C76   H24   S    
C41   C43   A    
H28   O10   S    
C9    O14   S    
O1    Zn1   S    
O4    Zn2   S    
C7    C11   A    
C14   C45   A    
C38   O11   S    
C46   C48   A    
H32   N8    S    
C35   O6    A    
C79   H21   S    
C27   H45   S    
C66   H16   S    
C14   H11   S    
C45   C88   A    
C39   C41   A    
C60   H9    S    
H39   N11   S    
C24   C68   A    
C2    C59   A    
C26   C87   A    
C55   H25   S    
H30   O13   S    
C19   C59   A    
C10   O15   S    
O21   Zn3   S    
C29   H56   S    
C4    C61   A    
C68   C72   A    
C22   C84   A    
C20   C64   A    
C33   O5    A    
C58   H7    S    
C5    C9    A    
O8    Zn4   S    
C30   C32   A    
C20   H23   S    
C66   C71   A    
C33   C63   S    
C46   C54   A    
C53   N1    A    
H51   O16   S    
C16   C67   A    
C15   H13   S    
C52   H6    S    
H49   O14   S    
H48   N4    S    
C51   H5    S    
C37   O8    A    
C4    C6    A    
C49   O9    S    
O12   Zn1   S    
C31   H3    S    
C74   C79   A    
O19   Zn2   S    
N5    Zn2   S    
C26   C70   A    
C12   C22   S    
C25   C86   A    
H27   O9    S    
C68   H17   S    
C37   C64   S    
C43   N7    A    
H37   N10   S    
C37   O4    A    
C56   C83   A    
N6    Zn3   S    
O23   Zn4   S    
H35   N9    S    
C27   C47   A    
H31   N8    S    
C28   C48   A    
C75   H22   S    
C73   C77   A    
C21   C65   A    
H50   O15   S    
C36   C65   S    
C18   H1    S    
C77   H20   S    
C18   C62   A    
C67   C80   A    
C3    C5    A    
C58   C88   A    
C76   C81   A    
C12   O12   A    
H41   N12   S    
C69   H18   S    
C57   H26   S    
C4    C78   A    
C25   C34   S    
C17   C65   A    
C31   C38   A    
C15   C56   A    
C1    O1    A    
C17   H15   S    
C35   O2    A    
O6    Zn3   S    
C29   C31   A    
C82   C86   A    
C3    C60   A    
C19   H12   S    
C71   C75   A    
C78   C81   A    
C30   N7    A    
C32   H4    S    
C7    N10   S    
C3    C67   A    
C77   C82   A    
H29   O11   S    
C72   C76   A    
C72   N2    S    
C71   N12   S    
C7    C88   A    
C16   H14   S    
C48   C50   A    
C17   C78   A    
C12   O21   A    
C35   C62   S    
O3    Zn2   S    
C50   O10   S    
C42   N6    A    
O2    Zn1   S    
O22   Zn4   S    
C6    N9    S    
C6    C10   A    
H40   N12   S    
C9    C84   A    
C79   C83   A    
C40   C44   A    
C75   C80   A    
C25   C69   A    
C1    C24   S    
C39   O13   S    
H47   N4    S    
C59   H8    S    
C2    C8    A    
C32   C39   A    
C15   C63   A    
C2    C56   A    
C28   H53   S    
C16   C64   A    
C20   C60   A    
C81   C85   A    
H44   N3    S    
