data_mof_unit_23179.cif
_audit_creation_date              2012-10-26T20:04:06-0400
_audit_creation_method            fapswitch 2.2
_symmetry_space_group_name_H-M    P1
_symmetry_Int_Tables_number       1
_space_group_crystal_system       triclinic
_cell_length_a                    15.004297
_cell_length_b                    13.803126
_cell_length_c                    14.328875
_cell_angle_alpha                 89.999258
_cell_angle_beta                  89.479938
_cell_angle_gamma                 90.001104
_cell_volume                      2967.47663313

loop_
_atom_site_label
_atom_site_type_symbol
_atom_type_description
_atom_site_fract_x
_atom_site_fract_y
_atom_site_fract_z
_atom_type_partial_charge
C1    C     C_R   0.329156 0.500065 0.503820 0.551512
C2    C     C_R   0.960479 0.504232 0.326665 0.301168
C3    C     C_R   0.445823 0.793562 0.561172 0.377722
C4    C     C_R   0.560098 0.205410 0.445815 0.403132
C5    C     C_R   0.554176 0.793566 0.438827 0.377715
C6    C     C_R   0.439899 0.205405 0.554181 0.403140
C7    C     C_R   0.548521 0.896634 0.431705 -0.057264
C8    C     C_R   0.447610 0.102842 0.564895 -0.039562
C9    C     C_R   0.451476 0.896630 0.568293 -0.057261
C10   C     C_R   0.552388 0.102846 0.435101 -0.039570
C11   C     C_R   0.499999 0.948128 0.499999 -0.142273
C12   C     C_R   0.670844 0.500066 0.496188 0.551521
C13   C     C_R   0.500000 0.051131 0.499999 -0.151665
C14   C     C_R   0.589108 0.949180 0.357708 0.253965
C15   C     C_R   0.403316 0.051684 0.637461 0.281082
C16   C     C_R   0.410885 0.949174 0.642286 0.253965
C17   C     C_R   0.596676 0.051690 0.362531 0.281077
C18   C     C_R   0.499733 0.500028 0.331115 0.532617
C19   C     C_R   0.500268 0.500027 0.668885 0.532584
C20   C     C_1   0.499872 0.500095 0.228804 -0.031717
C21   C     C_1   0.500131 0.500092 0.771196 -0.031733
C22   C     C_1   0.499978 0.500158 0.143373 -0.039992
C23   C     C_R   0.953129 0.503035 0.498042 -0.101655
C24   C     C_1   0.500026 0.500156 0.856627 -0.039994
C25   C     C_1   0.500007 0.500205 0.042721 -0.003646
C26   C     C_1   0.499997 0.500205 0.957279 -0.003646
C27   C     C_R   0.814658 0.503084 0.408843 0.250650
C28   C     C_R   0.185341 0.503008 0.591173 0.250653
C29   C     C_R   0.767133 0.500052 0.493855 -0.030464
C30   C     C_R   0.232866 0.500050 0.506158 -0.030464
C31   C     C_R   0.810669 0.500158 0.578751 -0.183044
C32   C     C_R   0.189329 0.500244 0.421262 -0.183066
C33   C     C_R   0.903260 0.504284 0.582124 -0.031999
C34   C     C_R   0.046870 0.503036 0.501975 -0.101652
C35   C     C_R   0.096738 0.504386 0.417893 -0.032001
C36   C     C_3   0.736646 0.431916 0.290493 -0.054173
C37   C     C_3   0.263387 0.431822 0.709493 -0.054081
C38   C     C_3   0.873110 0.616119 0.766911 0.002857
C39   C     C_3   0.938585 0.663445 0.834512 -0.243690
C40   C     C_3   0.906518 0.763539 0.865033 -0.496012
C41   C     C_3   0.126914 0.616485 0.233280 0.002742
C42   C     C_3   0.061221 0.664103 0.166102 -0.243656
C43   C     C_3   0.093298 0.764235 0.135697 -0.496108
C44   C     C_3   0.061977 0.418624 0.808707 -0.097711
C45   C     C_R   0.909093 0.503306 0.410257 -0.001038
C46   C     C_3   0.938036 0.419032 0.191188 -0.097624
C47   C     C_3   0.298850 0.758013 0.582455 -0.050971
C48   C     C_3   0.707864 0.233814 0.458649 -0.099219
C49   C     C_3   0.701150 0.758033 0.417546 -0.050959
C50   C     C_3   0.292139 0.233793 0.541291 -0.099235
C51   C     C_3   0.550014 0.891891 0.215731 -0.087535
C52   C     C_3   0.275580 0.073878 0.727405 -0.074100
C53   C     C_3   0.449970 0.891894 0.784271 -0.087534
C54   C     C_3   0.724399 0.073887 0.272562 -0.074102
C55   C     C_R   0.090906 0.503212 0.589759 -0.001007
C56   C     C_R   0.946186 0.510408 0.668824 0.266482
C57   C     C_R   0.053811 0.510628 0.331201 0.266506
C58   C     C_R   0.039520 0.504026 0.673352 0.301251
Cu1   Cu    Cu3+1 0.500000 0.597420 0.500000 1.031430
Cu2   Cu    Cu3+1 0.500000 0.402580 0.500000 1.009609
H1    H     H_    0.771179 0.498590 0.642523 0.148519
H2    H     H_    0.868002 0.660423 0.701911 0.109594
H3    H     H_    0.946142 0.616863 0.897244 0.183833
H4    H     H_    0.004740 0.671178 0.799961 0.199764
H5    H     H_    0.899456 0.811750 0.803463 0.139604
H6    H     H_    0.955764 0.796039 0.913221 0.146698
H7    H     H_    0.841353 0.757945 0.902056 0.152037
H8    H     H_    0.194246 0.616697 0.200357 0.149789
H9    H     H_    0.132329 0.660574 0.298382 0.109610
H10   H     H_    0.053341 0.617709 0.103288 0.184032
H11   H     H_    0.995219 0.671844 0.200975 0.199529
H12   H     H_    0.228817 0.498739 0.357488 0.148532
H13   H     H_    0.100711 0.812250 0.197360 0.139591
H14   H     H_    0.043881 0.796964 0.087846 0.146633
H15   H     H_    0.158290 0.758638 0.098337 0.152002
H16   H     H_    0.059257 0.353661 0.762528 0.078327
H17   H     H_    0.999120 0.425520 0.849482 0.166840
H18   H     H_    0.115982 0.406080 0.859653 0.118599
H19   H     H_    0.940791 0.354001 0.237276 0.078348
H20   H     H_    0.000879 0.426018 0.150404 0.166852
H21   H     H_    0.884022 0.406542 0.140242 0.118605
H22   H     H_    0.294122 0.746337 0.505725 0.088633
H23   H     H_    0.672935 0.412463 0.324693 0.181147
H24   H     H_    0.274348 0.831774 0.599616 0.112190
H25   H     H_    0.253035 0.706026 0.617085 0.181833
H26   H     H_    0.728086 0.156672 0.453457 0.089555
H27   H     H_    0.764143 0.277931 0.431838 0.111288
H28   H     H_    0.698066 0.252822 0.533603 0.123282
H29   H     H_    0.705882 0.746337 0.494273 0.088654
H30   H     H_    0.725641 0.831803 0.400402 0.112153
H31   H     H_    0.746973 0.706067 0.382902 0.181875
H32   H     H_    0.271912 0.156652 0.546487 0.089552
H33   H     H_    0.235850 0.277914 0.568069 0.111284
H34   H     H_    0.785032 0.371198 0.296305 0.101389
H35   H     H_    0.301966 0.252793 0.466338 0.123274
H36   H     H_    0.525117 0.964102 0.193189 0.126699
H37   H     H_    0.494462 0.847888 0.245534 0.120422
H38   H     H_    0.575181 0.853682 0.152699 0.139721
H39   H     H_    0.273410 0.025401 0.789164 0.163103
H40   H     H_    0.243396 0.037536 0.666895 0.083517
H41   H     H_    0.235008 0.138774 0.744605 0.113396
H42   H     H_    0.474857 0.964109 0.806814 0.126705
H43   H     H_    0.505529 0.847900 0.754474 0.120418
H44   H     H_    0.424800 0.853682 0.847301 0.139724
H45   H     H_    0.722647 0.442092 0.215258 0.144652
H46   H     H_    0.726556 0.025416 0.210799 0.163105
H47   H     H_    0.756591 0.037539 0.333063 0.083527
H48   H     H_    0.764971 0.138784 0.255359 0.113406
H49   H     H_    0.327118 0.412437 0.675304 0.181165
H50   H     H_    0.215039 0.371072 0.703633 0.101468
H51   H     H_    0.277357 0.441962 0.784739 0.144670
H52   H     H_    0.805648 0.616313 0.799539 0.149690
N1    N     N_R   0.500000 0.743810 0.500000 -0.238163
N2    N     N_R   0.500000 0.256190 0.500000 -0.234781
O1    O     O_R   0.370260 0.582280 0.500020 -0.477982
O2    O     O_3   0.230566 0.519872 0.673588 -0.534913
O3    O     O_3   0.896845 0.518136 0.750731 -0.587031
O4    O     O_3   0.103148 0.518481 0.249301 -0.587014
O5    O     O_3   0.080863 0.505200 0.759551 -0.525962
O6    O     O_3   0.919134 0.505526 0.240468 -0.525934
O7    O     O_3   0.386125 0.741997 0.615988 -0.481422
O8    O     O_3   0.630902 0.253845 0.405304 -0.512420
O9    O     O_3   0.613877 0.742006 0.384014 -0.481411
O10   O     O_3   0.369080 0.253829 0.594667 -0.512457
O11   O     O_3   0.620574 0.901052 0.279427 -0.552877
O12   O     O_R   0.629740 0.417720 0.499980 -0.488252
O13   O     O_3   0.364290 0.104065 0.709976 -0.529810
O14   O     O_3   0.379415 0.901046 0.720568 -0.552880
O15   O     O_3   0.635693 0.104074 0.290010 -0.529804
O16   O     O_R   0.629740 0.582280 0.499980 -0.477960
O17   O     O_R   0.370260 0.417720 0.500020 -0.488241
O18   O     O_R   0.500000 0.582290 0.376050 -0.445870
O19   O     O_R   0.500000 0.417710 0.623950 -0.472444
O20   O     O_R   0.500000 0.582290 0.623950 -0.445870
O21   O     O_R   0.500000 0.417710 0.376050 -0.472405
O22   O     O_3   0.769427 0.519968 0.326436 -0.534886

loop_
_geom_bond_atom_site_label_1
_geom_bond_atom_site_label_2
_ccdc_geom_bond_type
C51   H37   S    
C46   H20   S    
C36   H23   S    
Cu1   O16   S    
C43   H13   S    
C8    C13   A    
C23   C45   A    
C12   C29   S    
C27   C29   A    
C56   O3    S    
C31   H1    S    
Cu2   N2    S    
C6    O10   S    
C49   H30   S    
C2    C57   A    
C32   H12   S    
C37   O2    S    
C1    C30   S    
C19   O20   A    
C7    C11   A    
C39   H4    S    
C14   O11   S    
C12   O16   A    
C54   H47   S    
C27   O22   S    
C47   H25   S    
C4    N2    A    
C44   H17   S    
C19   C21   S    
C9    C16   A    
C24   C26   S    
C10   C13   A    
C48   O8    S    
C38   C39   S    
C50   H35   S    
C47   O7    S    
C12   O12   A    
C10   C17   A    
C15   C16   A    
C49   O9    S    
C42   H10   S    
C22   C25   S    
C34   C35   A    
C41   C42   S    
C47   H22   S    
Cu2   O12   S    
C44   H16   S    
C6    N2    A    
C28   O2    S    
C38   O3    S    
C18   O18   A    
C52   O13   S    
C7    C14   A    
C23   C33   A    
C40   H7    S    
C48   H28   S    
C41   O4    S    
C37   H49   S    
C51   H36   S    
C27   C45   A    
C43   H14   S    
C34   C55   A    
C15   O13   S    
C53   H43   S    
C14   C17   A    
C49   H31   S    
C36   O22   S    
Cu2   O17   S    
C28   C55   A    
C41   H8    S    
C2    C45   A    
C43   H15   S    
C52   H41   S    
Cu1   O18   S    
C54   H46   S    
C17   O15   S    
C51   O11   S    
C32   C35   A    
C50   O10   S    
C3    N1    A    
C39   C40   S    
C5    C7    A    
C2    O6    S    
C6    C8    A    
C44   O5    S    
C25   C26   T    
C52   H40   S    
C3    C9    A    
C53   O14   S    
C46   H21   S    
C9    C11   A    
C53   H42   S    
Cu1   N1    S    
C23   C34   A    
C31   C33   A    
C48   H27   S    
C4    O8    S    
C18   O21   A    
C47   H24   S    
C16   O14   S    
Cu2   O21   S    
C37   H50   S    
C50   H32   S    
C20   C22   T    
C8    C15   A    
C40   H5    S    
C48   H26   S    
C21   C24   T    
C42   C43   S    
C38   H52   S    
C39   H3    S    
C41   H9    S    
C54   O15   S    
Cu1   O20   S    
C5    N1    A    
C36   H45   S    
C49   H29   S    
C1    O17   A    
C46   O6    S    
C50   H33   S    
C19   O19   A    
C1    O1    A    
C5    O9    S    
C52   H39   S    
C54   H48   S    
C35   C57   A    
C44   H18   S    
C29   C31   A    
C30   C32   A    
C11   C13   A    
C33   C56   A    
C46   H19   S    
C51   H38   S    
C28   C30   A    
C42   H11   S    
C56   C58   A    
C18   C20   S    
C37   H51   S    
C36   H34   S    
Cu1   Cu2   S    
C58   O5    S    
Cu1   O1    S    
C55   C58   A    
C40   H6    S    
C53   H44   S    
C4    C10   A    
Cu2   O19   S    
C3    O7    S    
C57   O4    S    
C38   H2    S    
