data_mof_unit_18084.cif
_audit_creation_date              2012-12-10T17:15:56-0500
_audit_creation_method            fapswitch 2.2
_symmetry_space_group_name_H-M    P1
_symmetry_Int_Tables_number       1
_space_group_crystal_system       triclinic
_cell_length_a                    10.099178
_cell_length_b                    10.678561
_cell_length_c                    10.869918
_cell_angle_alpha                 89.952194
_cell_angle_beta                  95.351794
_cell_angle_gamma                 80.987614
_cell_volume                      1152.60149726

loop_
_atom_site_label
_atom_site_type_symbol
_atom_type_description
_atom_site_fract_x
_atom_site_fract_y
_atom_site_fract_z
_atom_type_partial_charge
C1    C     C_R   0.443656 0.510214 0.267444 0.972827
C2    C     C_2   0.487415 0.526384 0.934308 -0.148192
C3    C     C_2   0.072978 0.490283 0.489522 -0.136222
C4    C     C_R   0.503038 0.258729 0.508048 0.872400
C5    C     C_2   0.926616 0.511206 0.509081 -0.101407
C6    C     C_R   0.556356 0.493848 0.732494 0.944686
C7    C     C_R   0.495907 0.739456 0.483283 0.920844
C8    C     C_R   0.757586 0.068261 0.509713 -0.151451
C9    C     C_R   0.865805 0.993028 0.461707 -0.239146
C10   C     C_R   0.843344 0.890703 0.387966 -0.180847
C11   C     C_R   0.715614 0.854960 0.373653 0.411521
C12   C     C_R   0.625334 0.039222 0.487037 0.057202
C13   C     C_R   0.610023 0.920932 0.437811 0.012135
C14   C     C_R   0.506633 0.123313 0.509473 -0.101809
C15   C     C_R   0.383338 0.079506 0.509936 -0.210305
C16   C     C_R   0.377035 0.953953 0.490202 -0.209340
C17   C     C_R   0.491630 0.872916 0.460451 -0.093733
C18   C     C_2   0.411553 0.523396 0.135825 -0.371403
C19   C     C_2   0.513175 0.520490 0.065607 -0.085215
C20   C     C_2   0.588617 0.496606 0.864077 -0.365104
Cl1   Cl    Cl    0.686562 0.744982 0.257127 -0.646235
H1    H     H_    0.291715 0.141602 0.527685 0.167750
H2    H     H_    0.283376 0.919880 0.502148 0.167510
H3    H     H_    0.383205 0.550145 0.895300 0.188245
H4    H     H_    0.617721 0.508556 0.104522 0.215896
H5    H     H_    0.692608 0.473117 0.903477 0.155619
H6    H     H_    0.307282 0.534756 0.096467 0.149111
H7    H     H_    0.889362 0.580610 0.575596 0.164136
H8    H     H_    0.109929 0.421918 0.421983 0.165944
H9    H     H_    0.881244 0.383137 0.386648 0.165809
H10   H     H_    0.119034 0.615779 0.614422 0.163886
H11   H     H_    0.779597 0.146743 0.566592 0.168935
H12   H     H_    0.965991 0.017612 0.477075 0.153920
H13   H     H_    0.925140 0.839425 0.341604 0.173374
N1    N     N_2   0.157290 0.551390 0.551110 -0.197358
N2    N     N_2   0.842740 0.448550 0.448960 -0.181376
O1    O     O_R   0.568950 0.489660 0.307530 -0.576977
O2    O     O_R   0.348880 0.522640 0.340350 -0.619354
O3    O     O_R   0.610060 0.300270 0.483590 -0.626628
O4    O     O_R   0.389990 0.333260 0.516410 -0.619256
O5    O     O_R   0.651120 0.477360 0.659650 -0.622308
O6    O     O_R   0.431050 0.510340 0.692470 -0.611275
O7    O     O_R   0.610010 0.666740 0.483590 -0.586264
O8    O     O_R   0.389940 0.699730 0.516410 -0.627072
Zn1   Zn    Zn3+2 0.646940 0.477980 0.478090 0.973079
Zn2   Zn    Zn3+2 0.353060 0.522020 0.521910 0.943447

loop_
_geom_bond_atom_site_label_1
_geom_bond_atom_site_label_2
_ccdc_geom_bond_type
C8    C9    A    
O4    Zn2   S    
H9    N2    S    
C7    O7    A    
C8    C12   A    
C5    H7    S    
O7    Zn1   S    
C9    C10   A    
C2    H3    S    
C4    O3    A    
C13   C17   A    
O3    Zn1   S    
N2    Zn1   S    
C10   H13   S    
C7    O8    A    
C9    H12   S    
C11   C13   A    
C1    C18   S    
C20   H5    S    
C1    O2    A    
C12   C14   A    
C16   H2    S    
C4    C14   S    
C19   H4    S    
H10   N1    S    
O2    Zn2   S    
C10   C11   A    
C3    N1    D    
C15   C16   A    
C8    H11   S    
C5    N2    D    
C6    C20   S    
C12   C13   A    
C18   C19   D    
O6    Zn2   S    
C3    H8    S    
C2    C20   D    
O5    Zn1   S    
C14   C15   A    
C16   C17   A    
C7    C17   S    
C2    C19   S    
N1    Zn2   S    
O1    Zn1   S    
C11   Cl1   S    
C15   H1    S    
C18   H6    S    
C4    O4    A    
O8    Zn2   S    
C1    O1    A    
C3    C5    S    
C6    O5    A    
C6    O6    A    
