data_mof_unit_33539.cif
_audit_creation_date              2012-12-11T14:52:23-0500
_audit_creation_method            fapswitch 2.2
_symmetry_space_group_name_H-M    P1
_symmetry_Int_Tables_number       1
_space_group_crystal_system       triclinic
_cell_length_a                    18.905183
_cell_length_b                    10.890402
_cell_length_c                    18.795864
_cell_angle_alpha                 89.946628
_cell_angle_beta                  90.888226
_cell_angle_gamma                 89.849794
_cell_volume                      3869.30714102

loop_
_atom_site_label
_atom_site_type_symbol
_atom_type_description
_atom_site_fract_x
_atom_site_fract_y
_atom_site_fract_z
_atom_type_partial_charge
C1    C     C_R   0.272949 0.041291 0.854275 0.537019
C2    C     C_R   0.727146 0.040178 0.145677 0.553948
C3    C     C_R   0.772949 0.541291 0.854275 0.537019
C4    C     C_R   0.227146 0.540178 0.145677 0.553948
C5    C     C_3   0.495966 0.713699 0.979283 0.277864
C6    C     C_3   0.445100 0.730810 0.041156 0.266988
C7    C     C_3   0.995966 0.213699 0.979283 0.277864
C8    C     C_3   0.945100 0.230809 0.041156 0.266989
C9    C     C_R   0.283703 0.503007 0.957280 -0.150054
C10   C     C_R   0.691747 0.545673 0.035220 -0.137363
C11   C     C_R   0.783703 0.003008 0.957280 -0.150054
C12   C     C_R   0.191747 0.045672 0.035220 -0.137363
C13   C     C_R   0.278607 0.483858 0.030197 -0.095475
C14   C     C_R   0.697080 0.533709 0.961620 -0.126039
C15   C     C_R   0.778607 0.983858 0.030197 -0.095475
C16   C     C_R   0.197080 0.033709 0.961620 -0.126039
C17   C     C_R   0.244849 0.571451 0.073236 0.081317
C18   C     C_R   0.758135 0.574476 0.927522 0.024133
C19   C     C_R   0.744849 0.071452 0.073236 0.081316
C20   C     C_R   0.258135 0.074476 0.927522 0.024133
C21   C     C_R   0.216756 0.678134 0.043219 -0.125116
C22   C     C_R   0.813219 0.627760 0.967502 -0.149572
C23   C     C_R   0.716756 0.178134 0.043219 -0.125116
C24   C     C_R   0.313219 0.127760 0.967502 -0.149572
C25   C     C_R   0.220771 0.696053 0.970823 -0.138186
C26   C     C_R   0.809032 0.635572 0.040060 -0.154904
C27   C     C_R   0.720771 0.196053 0.970823 -0.138186
C28   C     C_R   0.309032 0.135572 0.040060 -0.154904
C29   C     C_R   0.253829 0.608648 0.927363 0.028524
C30   C     C_R   0.748030 0.596993 0.074730 0.023137
C31   C     C_R   0.753829 0.108648 0.927363 0.028524
C32   C     C_R   0.248030 0.096993 0.074730 0.023137
C33   C     C_R   0.527179 0.729889 0.545028 -0.136734
C34   C     C_R   0.534561 0.725895 0.472381 -0.125515
C35   C     C_R   0.027178 0.229888 0.545027 -0.136733
C36   C     C_R   0.034560 0.225894 0.472381 -0.125515
C37   C     C_R   0.516998 0.828559 0.430212 0.035019
C38   C     C_R   0.499935 0.835241 0.576789 0.027986
C39   C     C_R   0.016998 0.328559 0.430212 0.035019
C40   C     C_R   0.999935 0.335240 0.576789 0.027986
C41   C     C_R   0.494919 0.937620 0.462282 -0.149827
C42   C     C_R   0.486044 0.940886 0.535605 -0.139356
C43   C     C_R   0.994920 0.437620 0.462282 -0.149826
C44   C     C_R   0.986045 0.440886 0.535605 -0.139356
C45   C     C_R   0.438810 0.816469 0.862515 0.564100
C46   C     C_R   0.526144 0.821571 0.146788 0.551677
C47   C     C_R   0.938810 0.316469 0.862515 0.564101
C48   C     C_R   0.026144 0.321570 0.146788 0.551678
C49   C     C_R   0.182713 0.586232 0.544694 -0.136786
C50   C     C_R   0.784560 0.698811 0.475518 -0.124772
C51   C     C_R   0.682713 0.086232 0.544694 -0.136787
C52   C     C_R   0.284560 0.198812 0.475518 -0.124772
C53   C     C_R   0.176424 0.579759 0.472142 -0.124716
C54   C     C_R   0.785701 0.686793 0.548037 -0.137991
C55   C     C_R   0.676424 0.079759 0.472142 -0.124716
C56   C     C_R   0.285700 0.186794 0.548037 -0.137991
C57   C     C_R   0.236849 0.562165 0.430728 0.039559
C58   C     C_R   0.747405 0.592250 0.578835 0.031210
C59   C     C_R   0.736849 0.062165 0.430728 0.039559
C60   C     C_R   0.247405 0.092250 0.578835 0.031210
C61   C     C_R   0.303038 0.543146 0.462609 -0.150532
C62   C     C_R   0.700547 0.520152 0.537814 -0.137923
C63   C     C_R   0.803038 0.043146 0.462609 -0.150532
C64   C     C_R   0.200547 0.020150 0.537814 -0.137922
C65   C     C_R   0.309554 0.551352 0.535663 -0.139652
C66   C     C_R   0.698865 0.533118 0.464797 -0.149734
C67   C     C_R   0.809554 0.051352 0.535663 -0.139652
C68   C     C_R   0.198865 0.033117 0.464797 -0.149734
C69   C     C_R   0.249732 0.579538 0.576145 0.030990
C70   C     C_R   0.743233 0.618924 0.433481 0.039114
C71   C     C_R   0.749732 0.079538 0.576145 0.030990
C72   C     C_R   0.243233 0.118924 0.433481 0.039114
C73   C     C_R   0.261307 0.639085 0.852750 0.534870
C74   C     C_R   0.738877 0.637534 0.147719 0.549301
C75   C     C_R   0.761307 0.139084 0.852750 0.534870
C76   C     C_R   0.238877 0.137534 0.147719 0.549300
C77   C     C_R   0.270231 0.047960 0.647248 0.553482
C78   C     C_R   0.726388 0.041073 0.356219 0.548830
C79   C     C_R   0.770231 0.547960 0.647248 0.553482
C80   C     C_R   0.226388 0.541073 0.356219 0.548830
C81   C     C_R   0.470756 0.824238 0.647421 0.559452
C82   C     C_R   0.533303 0.823004 0.355093 0.544757
C83   C     C_R   0.970756 0.324238 0.647421 0.559452
C84   C     C_R   0.033303 0.323004 0.355093 0.544756
C85   C     C_R   0.259658 0.633608 0.644959 0.555359
C86   C     C_R   0.738478 0.642906 0.358665 0.552999
C87   C     C_R   0.759658 0.133608 0.644959 0.555359
C88   C     C_R   0.238478 0.142906 0.358665 0.552999
C89   C     C_3   0.458579 0.931292 0.034649 -0.170321
C90   C     C_3   0.510663 0.913591 0.972491 -0.154125
C91   C     C_3   0.958579 0.431292 0.034649 -0.170321
C92   C     C_3   0.010663 0.413591 0.972491 -0.154125
C93   C     C_3   0.407235 0.836520 0.999789 -0.144020
C94   C     C_3   0.547318 0.807378 0.013400 -0.107469
C95   C     C_3   0.907235 0.336520 0.999789 -0.144020
C96   C     C_3   0.047318 0.307378 0.013400 -0.107469
C97   C     C_3   0.460025 0.819689 0.938367 0.011822
C98   C     C_3   0.494919 0.825608 0.075086 0.020980
C99   C     C_3   0.960025 0.319689 0.938367 0.011822
C100  C     C_3   0.994919 0.325608 0.075086 0.020981
Cr1   Cr    Cr6+3 0.229630 0.835900 0.747350 1.003134
Cr2   Cr    Cr6+3 0.770370 0.835900 0.252650 0.988757
Cr3   Cr    Cr6+3 0.729630 0.335900 0.747350 1.003134
Cr4   Cr    Cr6+3 0.270370 0.335900 0.252650 0.988756
Cr5   Cr    Cr6+3 0.387410 0.989850 0.750850 1.009302
Cr6   Cr    Cr6+3 0.612590 0.989850 0.249150 1.011816
Cr7   Cr    Cr6+3 0.887410 0.489850 0.750850 1.009302
Cr8   Cr    Cr6+3 0.112590 0.489850 0.249150 1.011816
Cr9   Cr    Cr6+3 0.385800 0.677120 0.749340 0.994735
Cr10  Cr    Cr6+3 0.614200 0.677120 0.250660 0.990208
Cr11  Cr    Cr6+3 0.885800 0.177120 0.749340 0.994735
Cr12  Cr    Cr6+3 0.114200 0.177120 0.250660 0.990208
H1    H     H_    0.349182 0.848444 0.993161 0.130032
H2    H     H_    0.605459 0.795116 0.019637 0.132249
H3    H     H_    0.849183 0.348444 0.993161 0.130032
H4    H     H_    0.105459 0.295116 0.019637 0.132249
H5    H     H_    0.136035 0.605618 0.575580 0.128352
H6    H     H_    0.816356 0.770886 0.452574 0.141402
H7    H     H_    0.636035 0.105618 0.575580 0.128352
H8    H     H_    0.316355 0.270888 0.452574 0.141402
H9    H     H_    0.123942 0.588043 0.448670 0.140203
H10   H     H_    0.820751 0.744859 0.579313 0.127294
H11   H     H_    0.623942 0.088042 0.448670 0.140203
H12   H     H_    0.320750 0.244861 0.579313 0.127293
H13   H     H_    0.349344 0.524165 0.431136 0.117777
H14   H     H_    0.669622 0.447329 0.561206 0.137845
H15   H     H_    0.849344 0.024165 0.431136 0.117777
H16   H     H_    0.169624 0.947327 0.561205 0.137846
H17   H     H_    0.361961 0.544968 0.559554 0.137677
H18   H     H_    0.664392 0.475031 0.432940 0.120019
H19   H     H_    0.861961 0.044968 0.559554 0.137677
H20   H     H_    0.164394 0.975029 0.432939 0.120019
H21   H     H_    0.443821 0.020291 0.058817 0.124449
H22   H     H_    0.538506 0.988090 0.943989 0.140092
H23   H     H_    0.943821 0.520290 0.058817 0.124449
H24   H     H_    0.038506 0.488090 0.943989 0.140092
H25   H     H_    0.309581 0.435258 0.924421 0.102797
H26   H     H_    0.643326 0.518001 0.060712 0.135464
H27   H     H_    0.809581 0.935258 0.924421 0.102797
H28   H     H_    0.143326 0.018001 0.060712 0.135464
H29   H     H_    0.298838 0.398971 0.052553 0.125573
H30   H     H_    0.654411 0.491225 0.931673 0.157522
H31   H     H_    0.798838 0.898971 0.052553 0.125573
H32   H     H_    0.154411 0.991225 0.931673 0.157522
H33   H     H_    0.189839 0.745720 0.075390 0.119780
H34   H     H_    0.861590 0.659366 0.943405 0.135783
H35   H     H_    0.689839 0.245720 0.075390 0.119780
H36   H     H_    0.361590 0.159366 0.943405 0.135783
H37   H     H_    0.198468 0.779576 0.948829 0.131110
H38   H     H_    0.852951 0.677567 0.068533 0.121153
H39   H     H_    0.698468 0.279576 0.948828 0.131110
H40   H     H_    0.352951 0.177567 0.068533 0.121153
H41   H     H_    0.538914 0.647905 0.575798 0.127180
H42   H     H_    0.554725 0.641857 0.449440 0.138577
H43   H     H_    0.038913 0.147904 0.575798 0.127181
H44   H     H_    0.054723 0.141855 0.449439 0.138577
H45   H     H_    0.483505 0.018774 0.430733 0.119139
H46   H     H_    0.464592 0.023350 0.559274 0.135911
H47   H     H_    0.983507 0.518775 0.430733 0.119138
H48   H     H_    0.964594 0.523351 0.559275 0.135910
O1    O     O_R   0.214270 0.709000 0.827470 -0.524741
O2    O     O_R   0.785730 0.709000 0.172530 -0.532954
O3    O     O_R   0.714270 0.209000 0.827470 -0.524741
O4    O     O_R   0.285730 0.209000 0.172530 -0.532954
O5    O     O_R   0.445950 0.919440 0.676520 -0.499875
O6    O     O_R   0.554050 0.919440 0.323480 -0.507297
O7    O     O_R   0.945950 0.419440 0.676520 -0.499875
O8    O     O_R   0.054050 0.419440 0.323480 -0.507297
O9    O     O_R   0.456730 0.717630 0.669840 -0.525296
O10   O     O_R   0.543270 0.717630 0.330160 -0.538060
O11   O     O_R   0.956730 0.217630 0.669840 -0.525296
O12   O     O_R   0.043270 0.217630 0.330160 -0.538060
O13   O     O_R   0.320620 0.625640 0.672920 -0.508604
O14   O     O_R   0.679380 0.625640 0.327080 -0.507569
O15   O     O_R   0.820620 0.125640 0.672920 -0.508604
O16   O     O_R   0.179380 0.125640 0.327080 -0.507569
O17   O     O_3   0.334280 0.834290 0.749180 -0.263382
O18   O     O_3   0.665720 0.834290 0.250820 -0.244762
O19   O     O_3   0.834280 0.334290 0.749180 -0.263382
O20   O     O_3   0.165720 0.334290 0.250820 -0.244762
O21   O     O_R   0.236160 0.958490 0.823130 -0.512703
O22   O     O_R   0.763840 0.958490 0.176870 -0.518658
O23   O     O_R   0.736160 0.458490 0.823130 -0.512703
O24   O     O_R   0.263840 0.458490 0.176870 -0.518658
O25   O     O_R   0.332080 0.075470 0.831280 -0.535283
O26   O     O_R   0.667920 0.075470 0.168720 -0.524170
O27   O     O_R   0.832080 0.575470 0.831280 -0.535283
O28   O     O_R   0.167920 0.575470 0.168720 -0.524171
O29   O     O_R   0.446300 0.918110 0.826620 -0.500226
O30   O     O_R   0.553700 0.918110 0.173380 -0.499469
O31   O     O_R   0.946300 0.418110 0.826620 -0.500226
O32   O     O_R   0.053700 0.418110 0.173380 -0.499469
O33   O     O_R   0.457110 0.716200 0.831760 -0.500966
O34   O     O_R   0.542890 0.716200 0.168240 -0.536975
O35   O     O_R   0.957110 0.216200 0.831760 -0.500966
O36   O     O_R   0.042890 0.216200 0.168240 -0.536975
O37   O     O_R   0.320980 0.624310 0.823030 -0.533965
O38   O     O_R   0.679020 0.624310 0.176970 -0.507250
O39   O     O_R   0.820980 0.124310 0.823030 -0.533965
O40   O     O_R   0.179020 0.124310 0.176970 -0.507250
O41   O     O_R   0.213890 0.710430 0.665540 -0.521321
O42   O     O_R   0.786110 0.710430 0.334460 -0.529620
O43   O     O_R   0.713890 0.210430 0.665540 -0.521321
O44   O     O_R   0.286110 0.210430 0.334460 -0.529620
O45   O     O_R   0.235810 0.959820 0.673020 -0.504466
O46   O     O_R   0.764190 0.959820 0.326980 -0.513594
O47   O     O_R   0.735810 0.459820 0.673020 -0.504466
O48   O     O_R   0.264190 0.459820 0.326980 -0.513594
O49   O     O_R   0.331700 0.076900 0.669350 -0.524835
O50   O     O_R   0.668300 0.076900 0.330650 -0.528815
O51   O     O_R   0.831700 0.576900 0.669350 -0.524835
O52   O     O_R   0.168300 0.576900 0.330650 -0.528815
O53   O     O_3   0.525276 0.605551 0.949811 -0.570901
C101  C     C_3   0.472716 0.517402 0.933990 0.017498
H49   H     H_    0.420236 0.558776 0.921393 0.167646
H50   H     H_    0.467472 0.453882 0.979317 0.106997
C102  C     C_3   0.495706 0.439524 0.871122 -0.349823
H51   H     H_    0.544924 0.388442 0.885073 0.133131
H52   H     H_    0.453582 0.372283 0.857416 0.084560
H53   H     H_    0.505638 0.497851 0.823939 0.184944
O54   O     O_3   0.402850 0.644247 0.077478 -0.573087
C103  C     C_3   0.443113 0.546549 0.107258 0.008313
H54   H     H_    0.500263 0.548617 0.093773 0.153409
H55   H     H_    0.422070 0.458807 0.086022 0.108564
C104  C     C_3   0.434339 0.541844 0.187995 -0.320842
H56   H     H_    0.389389 0.482427 0.202179 0.146625
H57   H     H_    0.482627 0.502196 0.213501 0.098427
H58   H     H_    0.424785 0.634845 0.210092 0.185811
O55   O     O_3   0.025276 0.105551 0.949811 -0.570901
C105  C     C_3   0.972717 0.017402 0.933990 0.017498
H59   H     H_    0.920237 0.058775 0.921393 0.167646
H60   H     H_    0.967473 0.953882 0.979316 0.106997
C106  C     C_3   0.995707 0.939525 0.871122 -0.349823
H61   H     H_    0.044924 0.888442 0.885072 0.133131
H62   H     H_    0.953583 0.872284 0.857416 0.084560
H63   H     H_    0.005639 0.997851 0.823939 0.184944
O56   O     O_3   0.902850 0.144247 0.077478 -0.573087
C107  C     C_3   0.943114 0.046548 0.107258 0.008312
H64   H     H_    0.000263 0.048616 0.093773 0.153409
H65   H     H_    0.922070 0.958807 0.086021 0.108564
C108  C     C_3   0.934339 0.041843 0.187994 -0.320842
H66   H     H_    0.889389 0.982426 0.202178 0.146626
H67   H     H_    0.982627 0.002192 0.213500 0.098424
H68   H     H_    0.924786 0.134843 0.210092 0.185811

loop_
_geom_bond_atom_site_label_1
_geom_bond_atom_site_label_2
_ccdc_geom_bond_type
C58   C62   A    
C82   O10   A    
C12   C32   A    
C55   C59   A    
Cr10  O38   S    
C34   C37   A    
C41   C42   A    
C14   C18   A    
Cr9   O37   S    
C35   C36   A    
C40   C83   S    
C81   O5    A    
C86   O42   A    
C14   H30   S    
C5    C94   S    
C94   H2    S    
Cr5   O49   S    
C7    C8    S    
C42   H46   S    
O53   C101  S    
C102  H53   S    
C79   O51   A    
C7    C96   S    
C107  C108  S    
C36   H44   S    
C50   C54   A    
C7    C99   S    
C51   H7    S    
C105  C106  S    
C37   C41   A    
Cr11  O15   S    
C64   C68   A    
C29   C73   S    
C75   O3    A    
C16   H32   S    
C35   H43   S    
C39   C84   S    
C38   C42   A    
C43   H47   S    
C71   C87   S    
C5    C6    S    
C30   C74   S    
C33   H41   S    
C79   O47   A    
Cr3   O19   S    
Cr7   O51   S    
C94   C98   S    
C95   C99   S    
C2    O26   A    
Cr6   O50   S    
Cr7   O27   S    
C92   C96   S    
C104  H58   S    
C47   C99   S    
Cr8   O20   S    
C3    C18   S    
C25   H37   S    
C108  H66   S    
C2    O22   A    
Cr5   O25   S    
C57   C61   A    
C68   H20   S    
C9    C13   A    
Cr12  O36   S    
C11   H27   S    
C75   O39   A    
Cr11  O39   S    
C9    H25   S    
C49   H5    S    
C22   H34   S    
C95   H3    S    
Cr11  O35   S    
C64   H16   S    
C83   O11   A    
Cr10  O34   S    
C85   O13   A    
C12   H28   S    
Cr9   O33   S    
C23   C27   A    
C91   C100  S    
C106  H61   S    
C78   O50   A    
C90   C97   S    
C67   C71   A    
C85   O41   A    
C80   O52   A    
C6    O54   S    
Cr7   O19   S    
Cr2   O42   S    
Cr10  O14   S    
Cr8   O8    S    
C11   C31   A    
C49   C69   A    
O56   C107  S    
C48   O36   A    
Cr11  O19   S    
C47   O35   A    
C57   C80   S    
C92   H24   S    
C8    C95   S    
C11   C15   A    
Cr2   O18   S    
C46   O30   A    
Cr3   O47   S    
C59   C78   S    
C87   O43   A    
Cr8   O52   S    
Cr9   O9    S    
C60   C64   A    
C90   C94   S    
Cr7   O7    S    
C34   H42   S    
C45   O33   A    
C48   C100  S    
C107  H65   S    
C60   C77   S    
C89   H21   S    
C62   C66   A    
C27   C31   A    
Cr2   O22   S    
C12   C16   A    
C104  H56   S    
C28   C32   A    
Cr6   O26   S    
C24   H36   S    
C91   C92   S    
C62   H14   S    
C53   C57   A    
C101  H49   S    
C39   C43   A    
C103  C104  S    
C102  H51   S    
C8    O56   S    
C23   H35   S    
C1    O21   A    
C89   C93   S    
C88   O44   A    
C74   O38   A    
C56   C60   A    
C46   O34   A    
C73   O37   A    
C68   C72   A    
C108  H67   S    
C21   H33   S    
Cr4   O20   S    
C15   C19   A    
C43   C44   A    
C78   O46   A    
C63   C67   A    
C32   C76   S    
O55   C105  S    
C52   C72   A    
C69   C85   S    
C77   O45   A    
O54   C103  S    
Cr2   O46   S    
C10   C30   A    
C93   C97   S    
C73   O1    A    
C26   H38   S    
C16   C20   A    
C6    C93   S    
C5    O53   S    
C33   C34   A    
C7    O55   S    
C93   H1    S    
C4    O24   A    
C105  H60   S    
Cr12  O12   S    
C106  H62   S    
Cr1   O45   S    
C58   C79   S    
C54   H10   S    
C15   H31   S    
C4    C17   S    
C52   H8    S    
Cr4   O44   S    
C6    C98   S    
C80   O48   A    
C5    C97   S    
C26   C30   A    
C81   O9    A    
C38   C81   S    
C76   O40   A    
C44   H48   S    
Cr3   O23   S    
C37   C82   S    
C76   O4    A    
C61   H13   S    
Cr6   O30   S    
C70   C86   S    
C55   H11   S    
C56   H12   S    
C31   C75   S    
Cr1   O21   S    
Cr2   O2    S    
C19   C23   A    
C74   O2    A    
C54   C58   A    
C45   O29   A    
C65   C69   A    
C21   C25   A    
C107  H64   S    
C103  H55   S    
C1    C20   S    
C27   H39   S    
Cr12  O16   S    
C2    C19   S    
C50   H6    S    
C59   C63   A    
C13   H29   S    
Cr8   O28   S    
C36   C39   A    
C67   H19   S    
C24   C28   A    
Cr5   O17   S    
C84   O12   A    
C101  C102  S    
C3    O27   A    
Cr4   O4    S    
C65   H17   S    
Cr11  O11   S    
C51   C71   A    
C47   O31   A    
C28   H40   S    
C77   O49   A    
C102  H52   S    
Cr12  O40   S    
C87   O15   A    
Cr3   O3    S    
C33   C38   A    
C88   O16   A    
Cr12  O20   S    
C89   C98   S    
C72   C88   S    
C82   O6    A    
C1    O25   A    
C108  H68   S    
C18   C22   A    
C35   C40   A    
C50   C70   A    
C101  H50   S    
Cr1   O41   S    
C9    C29   A    
C25   C29   A    
C8    C100  S    
C66   C70   A    
C83   O7    A    
Cr6   O6    S    
C90   H22   S    
C96   C100  S    
Cr1   O1    S    
C104  H57   S    
Cr5   O29   S    
Cr5   O5    S    
C41   H45   S    
Cr9   O13   S    
Cr4   O48   S    
C46   C98   S    
C105  H59   S    
C20   C24   A    
C106  H63   S    
Cr3   O43   S    
C48   O32   A    
C49   C53   A    
Cr1   O17   S    
C53   H9    S    
C13   C17   A    
C61   C65   A    
C40   C44   A    
C91   H23   S    
C84   O8    A    
Cr10  O10   S    
C91   C95   S    
C22   C26   A    
Cr7   O31   S    
C51   C55   A    
Cr9   O17   S    
Cr10  O18   S    
C96   H4    S    
Cr4   O24   S    
C45   C97   S    
C10   H26   S    
C86   O14   A    
C89   C90   S    
C3    O23   A    
C103  H54   S    
Cr6   O18   S    
C63   H15   S    
C4    O28   A    
C52   C56   A    
C92   C99   S    
C10   C14   A    
C66   H18   S    
Cr8   O32   S    
C17   C21   A    
