data_mof_unit_10937.cif
_audit_creation_date              2013-03-05T16:49:57-0500
_audit_creation_method            fapswitch 2.2
_symmetry_space_group_name_H-M    P1
_symmetry_Int_Tables_number       1
_space_group_crystal_system       triclinic
_cell_length_a                    27.71413
_cell_length_b                    10.912551
_cell_length_c                    26.463989
_cell_angle_alpha                 90.206473
_cell_angle_beta                  89.845974
_cell_angle_gamma                 90.038435
_cell_volume                      8003.4707016

loop_
_atom_site_label
_atom_site_type_symbol
_atom_site_description
_atom_site_fract_x
_atom_site_fract_y
_atom_site_fract_z
_atom_type_partial_charge
O1    O     O_R   0.500000 0.319660 0.542350 -0.565733
O2    O     O_R   0.500000 0.680340 0.457650 -0.489800
O3    O     O_R   0.500000 0.319630 0.457650 -0.588746
O4    O     O_R   0.500000 0.680370 0.542350 -0.560662
C1    C     C_R   0.498144 0.261871 0.500061 0.926017
C2    C     C_R   0.501261 0.737815 0.500102 0.854654
O5    O     O_R   0.430260 0.500030 0.542340 -0.566646
O6    O     O_R   0.569740 0.499970 0.457660 -0.565795
O7    O     O_R   0.430270 0.500010 0.457650 -0.593570
O8    O     O_R   0.569730 0.499990 0.542350 -0.594110
C3    C     C_R   0.407347 0.499402 0.500123 0.880041
C4    C     C_R   0.592777 0.497839 0.499976 0.837130
Cu1   Cu    Cu3+1 0.500000 0.500020 0.550150 0.987963
Cu2   Cu    Cu3+1 0.500000 0.499980 0.449850 1.005997
O9    O     O_2   0.420093 0.425410 0.785739 -0.527953
O10   O     O_2   0.581687 0.464672 0.213856 -0.508894
C5    C     C_R   0.411463 0.496313 0.053472 -0.205928
C6    C     C_R   0.585108 0.537378 0.946352 -0.196674
C7    C     C_R   0.179802 0.351890 0.505663 0.707217
C8    C     C_R   0.823665 0.563510 0.481268 0.675615
O11   O     O_2   0.205191 0.255428 0.522827 -0.450156
O12   O     O_2   0.799330 0.665176 0.467607 -0.441801
N1    N     N_R   0.202942 0.447788 0.482028 -0.462683
N2    N     N_R   0.798671 0.463596 0.497986 -0.452867
C9    C     C_R   0.177585 0.503186 0.443803 0.637560
C10   C     C_R   0.821680 0.359430 0.513279 0.628935
C11   C     C_R   0.278467 0.574549 0.466683 0.489193
C12   C     C_R   0.721069 0.465044 0.453278 0.476141
C13   C     C_R   0.329335 0.573466 0.467189 -0.389003
C14   C     C_R   0.670889 0.477145 0.453959 -0.312731
C15   C     C_R   0.328867 0.435527 0.537532 -0.305209
C16   C     C_R   0.671750 0.489395 0.545406 -0.287672
C17   C     C_R   0.277808 0.431492 0.536559 0.490642
C18   C     C_R   0.722254 0.480284 0.545088 0.472689
C19   C     C_R   0.253345 0.481580 0.493933 0.134978
C20   C     C_R   0.746884 0.468438 0.498870 0.146596
C21   C     C_R   0.102507 0.435644 0.480862 -0.206442
C22   C     C_R   0.898957 0.454241 0.494003 -0.200994
C23   C     C_R   0.128984 0.349201 0.508636 -0.247035
C24   C     C_R   0.874267 0.560505 0.478153 -0.245205
C25   C     C_R   0.104307 0.265440 0.539470 0.614587
C26   C     C_R   0.900726 0.661335 0.460255 0.616811
C27   C     C_R   0.127103 0.512676 0.446906 -0.077757
C28   C     C_R   0.872550 0.352687 0.512365 -0.080074
C29   C     C_R   0.354403 0.498768 0.500425 -0.080069
C30   C     C_R   0.645848 0.489524 0.499826 -0.182577
H1    H     H_    0.349202 0.391959 0.567264 0.145033
H2    H     H_    0.652963 0.495644 0.581267 0.191357
C31   C     C_R   0.975178 0.347363 0.510999 0.078859
C32   C     C_R   0.025865 0.531766 0.458445 0.086451
C33   C     C_R   0.975797 0.546228 0.467668 -0.132074
C34   C     C_R   0.026521 0.349536 0.512835 -0.129959
C35   C     C_R   0.950085 0.449495 0.491134 0.006343
C36   C     C_R   0.051522 0.439278 0.484305 0.009933
C37   C     C_R   0.948078 0.244903 0.526539 -0.194555
C38   C     C_R   0.050799 0.603312 0.422600 -0.202370
C39   C     C_R   0.897650 0.247306 0.528451 0.476562
C40   C     C_R   0.100796 0.595133 0.416834 0.477463
H3    H     H_    0.377610 0.510955 0.034461 0.227236
H4    H     H_    0.617738 0.564687 0.965378 0.226226
O13   O     O_2   0.795170 0.263045 0.529006 -0.481754
O14   O     O_2   0.200007 0.537560 0.400937 -0.472337
C41   C     C_R   0.054019 0.266423 0.542171 0.499005
C42   C     C_R   0.950596 0.654627 0.455153 0.496255
H5    H     H_    0.651656 0.474896 0.418472 0.182531
H6    H     H_    0.349889 0.634648 0.443710 0.138193
H7    H     H_    0.965092 0.158547 0.534911 0.232551
H8    H     H_    0.031943 0.662959 0.396897 0.223414
C43   C     C_R   0.374000 0.199377 0.383038 0.244465
C44   C     C_R   0.638926 0.839777 0.602563 0.251514
C45   C     C_R   0.403444 0.172873 0.425074 0.351284
C46   C     C_R   0.605952 0.879299 0.565431 0.365674
C47   C     C_R   0.449247 0.118769 0.417518 -0.079056
C48   C     C_R   0.556133 0.879754 0.576145 -0.046980
C49   C     C_R   0.465364 0.094923 0.368084 -0.287373
C50   C     C_R   0.539517 0.832412 0.622160 -0.335563
H9    H     H_    0.500306 0.052990 0.361799 0.235293
H10   H     H_    0.501280 0.830158 0.630383 0.229826
C51   C     C_R   0.435197 0.114569 0.326910 0.520820
C52   C     C_R   0.571926 0.787714 0.657859 0.497314
C53   C     C_R   0.388785 0.161751 0.334205 0.239083
C54   C     C_R   0.621888 0.793455 0.648824 0.304546
C55   C     C_R   0.477069 0.932764 0.460820 0.432769
C56   C     C_R   0.516336 0.064820 0.542319 0.448138
C57   C     C_R   0.500590 0.871309 0.500352 -0.261022
C58   C     C_R   0.495960 0.127806 0.500842 -0.238082
C59   C     C_R   0.521961 0.937640 0.540163 -0.025349
C60   C     C_R   0.475561 0.061096 0.460180 -0.045155
H11   H     H_    0.384201 0.401755 0.871128 0.217670
H12   H     H_    0.618664 0.457201 0.128485 0.218825
C61   C     C_R   0.454750 0.502440 0.187789 0.617655
C62   C     C_R   0.542623 0.517993 0.811983 0.624575
O15   O     O_2   0.413398 0.519048 0.213887 -0.479359
O16   O     O_2   0.582591 0.549056 0.785820 -0.441306
N3    N     N_R   0.497461 0.493054 0.213688 -0.427354
N4    N     N_R   0.501281 0.488882 0.786093 -0.434654
C63   C     C_R   0.540195 0.479217 0.187987 0.683561
C64   C     C_R   0.459987 0.457785 0.811710 0.647566
C65   C     C_R   0.525376 0.584546 0.294744 0.484478
C66   C     C_R   0.469038 0.570676 0.705504 0.547214
C67   C     C_R   0.527916 0.581566 0.348238 0.558670
C68   C     C_R   0.467829 0.570371 0.652067 0.530874
C69   C     C_R   0.471286 0.418649 0.349798 -0.089025
C70   C     C_R   0.531997 0.426306 0.649821 -0.061092
C71   C     C_R   0.470199 0.414103 0.296941 -0.300749
C72   C     C_R   0.532552 0.419918 0.702647 -0.315539
C73   C     C_R   0.497610 0.497313 0.268647 0.178773
C74   C     C_R   0.500871 0.492729 0.731202 0.224134
C75   C     C_R   0.497920 0.486771 0.107432 -0.118631
C76   C     C_R   0.500829 0.486922 0.892307 -0.119703
C77   C     C_R   0.453851 0.496361 0.134131 -0.106308
C78   C     C_R   0.543488 0.516700 0.865677 -0.132707
C79   C     C_R   0.410390 0.501084 0.106408 0.476361
C80   C     C_R   0.585228 0.547371 0.893559 0.481961
C81   C     C_R   0.541310 0.479080 0.134723 -0.115308
C82   C     C_R   0.458779 0.458418 0.864969 -0.105256
N5    N     N_R   0.500000 0.499970 0.374520 -0.233029
N6    N     N_R   0.500000 0.500030 0.625480 -0.239894
H13   H     H_    0.449177 0.357235 0.371393 0.151650
H14   H     H_    0.556954 0.370928 0.628124 0.202647
H15   H     H_    0.447880 0.346815 0.278068 0.232051
H16   H     H_    0.557624 0.358909 0.721201 0.191555
C83   C     C_R   0.455901 0.466807 0.972527 -0.038149
C84   C     C_R   0.543544 0.486749 0.027166 -0.040823
C85   C     C_R   0.543542 0.501905 0.973549 0.020087
C86   C     C_R   0.454862 0.481215 0.026196 0.024758
C87   C     C_R   0.500085 0.485407 0.946262 0.004328
C88   C     C_R   0.498761 0.484727 0.053469 0.008165
C89   C     C_R   0.414801 0.432262 0.943923 0.577596
C90   C     C_R   0.586399 0.471833 0.055724 0.580557
C91   C     C_R   0.416500 0.428761 0.891282 -0.173152
C92   C     C_R   0.584980 0.468559 0.108366 -0.170415
O17   O     O_3   0.437313 0.647858 0.625925 -0.564566
C93   C     C_3   0.388647 0.619672 0.636947 -0.214046
H17   H     H_    0.376427 0.668943 0.671403 0.226287
H18   H     H_    0.382019 0.519326 0.640787 0.123773
H19   H     H_    0.365996 0.652412 0.605245 0.174565
O18   O     O_3   0.555347 0.665679 0.375077 -0.541790
C94   C     C_3   0.603857 0.665207 0.358467 -0.185810
H20   H     H_    0.627266 0.689073 0.390922 0.147918
H21   H     H_    0.609471 0.736835 0.329387 0.234977
H22   H     H_    0.616140 0.574289 0.343987 0.141714
F1    F     F_    0.033389 0.192871 0.577360 -0.628951
F2    F     F_    0.973977 0.759193 0.442069 -0.627551
O19   O     O_3   0.358808 0.175736 0.293048 -0.538680
C95   C     C_3   0.328304 0.072489 0.290248 -0.178852
H23   H     H_    0.304664 0.065522 0.324219 0.157395
H24   H     H_    0.349447 0.986513 0.285125 0.174525
H25   H     H_    0.304553 0.082506 0.256848 0.185162
O20   O     O_3   0.654616 0.747197 0.683261 -0.541142
C96   C     C_3   0.654994 0.821307 0.727096 -0.162206
H26   H     H_    0.624244 0.798403 0.752298 0.227719
H27   H     H_    0.654913 0.921080 0.718268 0.106812
H28   H     H_    0.688564 0.802016 0.748354 0.168815
O21   O     O_3   0.329167 0.251924 0.390877 -0.544937
C97   C     C_3   0.329315 0.371775 0.371054 -0.183434
H29   H     H_    0.330178 0.371388 0.329109 0.206572
H30   H     H_    0.359940 0.427015 0.385996 0.148732
H31   H     H_    0.295293 0.417542 0.382481 0.194715
O22   O     O_3   0.687953 0.841334 0.592916 -0.577846
C98   C     C_3   0.705766 0.960005 0.602865 -0.161177
H32   H     H_    0.699692 0.986913 0.642955 0.135399
H33   H     H_    0.689591 0.029081 0.577168 0.205672
H34   H     H_    0.745288 0.960144 0.596101 0.192391
O23   O     O_3   0.388640 0.206767 0.473071 -0.570497
C99   C     C_3   0.359370 0.113330 0.493323 -0.263513
H35   H     H_    0.381104 0.030538 0.501930 0.134714
H36   H     H_    0.328659 0.089597 0.468065 0.195216
H37   H     H_    0.343921 0.146452 0.529522 0.179787
O24   O     O_3   0.622537 0.927423 0.520335 -0.556567
C100  C     C_3   0.633736 0.829869 0.487284 -0.213030
H38   H     H_    0.601685 0.771078 0.480067 0.135990
H39   H     H_    0.664069 0.773484 0.501795 0.196059
H40   H     H_    0.645300 0.868778 0.450540 0.194348
F3    F     F_    0.450490 0.083877 0.279803 -0.601823
F4    F     F_    0.554648 0.739404 0.701385 -0.639067
O25   O     O_3   0.459455 0.867323 0.419783 -0.525060
C101  C     C_3   0.410703 0.837175 0.428311 -0.289751
H41   H     H_    0.387167 0.917957 0.422531 0.130373
H42   H     H_    0.404526 0.797479 0.466513 0.127263
H43   H     H_    0.400058 0.767654 0.399797 0.188938
O26   O     O_3   0.535756 0.128128 0.582959 -0.565472
C102  C     C_3   0.501536 0.129532 0.622755 -0.285283
H44   H     H_    0.485125 0.038503 0.630100 0.154689
H45   H     H_    0.472132 0.195892 0.615056 0.179981
H46   H     H_    0.519939 0.158542 0.657973 0.183357
F5    F     F_    0.373741 0.390622 0.965962 -0.670223
F6    F     F_    0.629707 0.449135 0.033650 -0.657187
O27   O     O_3   0.366535 0.517885 0.130520 -0.535129
C103  C     C_3   0.341915 0.404735 0.131660 -0.174681
H47   H     H_    0.363677 0.332785 0.150778 0.172230
H48   H     H_    0.331689 0.374164 0.092993 0.165763
H49   H     H_    0.308131 0.416604 0.153705 0.198642
O28   O     O_3   0.627571 0.580888 0.869527 -0.523988
C104  C     C_3   0.631565 0.709721 0.871100 -0.221422
H50   H     H_    0.636016 0.743558 0.910520 0.147374
H51   H     H_    0.599966 0.754653 0.853013 0.161395
H52   H     H_    0.664191 0.737038 0.849527 0.187550
O29   O     O_3   0.250286 0.401052 0.579049 -0.551087
C105  C     C_3   0.273329 0.318489 0.612054 -0.153894
H53   H     H_    0.300463 0.366981 0.635636 0.127873
H54   H     H_    0.289582 0.239747 0.591359 0.147438
H55   H     H_    0.245787 0.280430 0.638133 0.219938
O30   O     O_3   0.747775 0.474064 0.589817 -0.572763
C106  C     C_3   0.749687 0.591802 0.611661 -0.210086
H56   H     H_    0.713648 0.619556 0.625986 0.229868
H57   H     H_    0.764091 0.661079 0.584694 0.185959
H58   H     H_    0.774487 0.589086 0.644460 0.189876
F7    F     F_    0.128687 0.185374 0.569153 -0.565380
F8    F     F_    0.878684 0.768005 0.447566 -0.551131
F9    F     F_    0.441117 0.649905 0.732285 -0.634934
F10   F     F_    0.548447 0.673533 0.268317 -0.627801
O31   O     O_3   0.745352 0.456288 0.407762 -0.554725
C107  C     C_3   0.744395 0.332956 0.391804 -0.236041
H59   H     H_    0.706876 0.301771 0.384084 0.160447
H60   H     H_    0.761880 0.271865 0.419957 0.182579
H61   H     H_    0.765103 0.324990 0.356019 0.207682
O32   O     O_3   0.252575 0.676107 0.449679 -0.551541
C108  C     C_3   0.274963 0.737875 0.409063 -0.221581
H62   H     H_    0.289444 0.673188 0.380129 0.159834
H63   H     H_    0.303459 0.800615 0.423274 0.125478
H64   H     H_    0.247487 0.795389 0.390121 0.192630
O33   O     O_3   0.873120 0.142294 0.542537 -0.517801
C109  C     C_3   0.875712 0.130211 0.595513 -0.176202
H65   H     H_    0.861356 0.213020 0.615161 0.159717
H66   H     H_    0.913238 0.111040 0.607999 0.169464
H67   H     H_    0.853010 0.051253 0.606994 0.187206
O34   O     O_3   0.123534 0.667869 0.381299 -0.537803
C110  C     C_3   0.130845 0.785185 0.402478 -0.193356
H68   H     H_    0.153012 0.780449 0.437461 0.182905
H69   H     H_    0.095925 0.831829 0.410403 0.174456
H70   H     H_    0.150894 0.841992 0.374795 0.183892

loop_
_geom_bond_atom_site_label_1
_geom_bond_atom_site_label_2
_geom_bond_distance
_ccdc_geom_bond_type
C100  H38   1.111921 S    
C103  H47   1.114143 S    
C76   C82   1.407360 A    
C11   C13   1.409925 A    
C47   C49   1.404724 A    
C90   C92   1.394137 A    
O33   C109  1.410639 S    
C56   C59   1.397630 A    
C102  H44   1.109821 S    
C109  H65   1.114119 S    
C6    C80   1.401747 A    
C93   H19   1.109454 S    
C70   C72   1.400080 A    
C98   H32   1.112223 S    
C10   C28   1.411932 A    
C23   C25   1.403780 A    
O2    C2    1.285250 A    
O31   C107  1.409363 S    
O5    C3    1.286548 A    
C100  H39   1.112162 S    
O23   C99   1.409050 S    
C2    C57   1.456889 S    
C48   C50   1.401075 A    
O1    C1    1.283724 A    
C97   H29   1.110227 S    
C7    O11   1.347456 S    
C10   O13   1.349000 S    
C56   C58   1.416141 A    
C110  H70   1.109206 S    
C102  H45   1.110289 S    
C6    C85   1.411338 A    
O19   C95   1.409992 S    
C99   H37   1.107785 S    
C8    C24   1.404972 A    
C94   H22   1.115392 S    
C107  H60   1.113679 S    
C5    C86   1.410526 A    
C108  H63   1.110340 S    
O24   C100  1.409571 S    
C17   O29   1.397961 S    
C62   N4    1.373059 A    
O10   C63   1.349601 S    
C96   H28   1.109191 S    
C61   C77   1.421620 A    
O4    Cu1   1.979613 S    
C43   C45   1.412266 A    
O26   C102  1.415375 S    
C27   C40   1.408445 A    
C83   C87   1.421229 A    
C69   C71   1.399912 A    
N3    C73   1.455045 S    
C8    N2    1.365705 A    
C18   O30   1.382449 S    
C105  H53   1.111121 S    
N4    C64   1.371651 A    
O6    Cu2   1.944355 S    
C96   H26   1.109695 S    
C15   C17   1.416015 A    
C48   C59   1.487494 S    
C63   C81   1.409803 A    
C70   N6    1.362474 A    
C68   N6    1.368523 A    
C76   C87   1.428121 A    
C81   C92   1.399823 A    
C104  H52   1.109260 S    
H12   C92   1.083357 S    
Cu2   N5    1.993532 S    
C24   C26   1.404837 A    
C55   C60   1.401252 A    
N4    C74   1.453465 S    
O29   C105  1.411347 S    
C15   H1    1.080817 S    
Cu1   Cu2   2.654339 S    
C83   C89   1.419369 A    
C99   H36   1.113484 S    
C16   H2    1.083197 S    
C9    C27   1.405124 A    
C69   N5    1.358859 A    
C65   C73   1.404427 A    
O2    Cu2   1.978243 S    
O8    C4    1.289185 A    
C62   O16   1.348448 S    
O34   C110  1.410395 S    
C98   H33   1.112377 S    
C34   C36   1.418025 A    
C34   C41   1.419604 A    
C101  H41   1.108261 S    
C95   H24   1.114185 S    
C65   F10   1.357410 S    
C106  H57   1.114504 S    
C100  H40   1.108915 S    
C66   C74   1.404531 A    
C108  H64   1.109070 S    
C55   O25   1.387230 S    
C58   C60   1.415825 A    
C5    C79   1.401932 A    
C101  H43   1.108484 S    
Cu1   N6    1.993532 S    
C12   C20   1.404737 A    
C43   C53   1.414252 A    
C52   F4    1.354655 S    
C4    C30   1.473676 S    
C102  H46   1.108702 S    
C108  H62   1.113772 S    
C45   C47   1.413759 A    
C107  H59   1.113074 S    
C62   C78   1.421332 A    
C83   C86   1.428613 A    
C93   H18   1.115165 S    
C42   F2    1.357391 S    
C11   C19   1.426783 A    
C31   C37   1.408505 A    
C107  H61   1.109183 S    
C32   C38   1.409974 A    
C104  H50   1.112533 S    
C13   C29   1.389237 A    
C33   C35   1.417422 A    
C16   C18   1.403268 A    
C21   C27   1.407171 A    
C7    N1    1.378157 A    
O7    Cu2   1.942950 S    
C47   C60   1.487538 S    
C22   C28   1.414470 A    
C110  H68   1.113836 S    
C51   F3    1.356561 S    
C61   O15   1.348466 S    
C95   H25   1.109232 S    
C71   C73   1.401133 A    
C75   C88   1.428293 A    
C64   C82   1.409748 A    
C28   C39   1.412007 A    
O6    C4    1.290844 A    
C31   C34   1.424065 A    
C72   H16   1.082568 S    
C66   C68   1.414638 A    
C32   C33   1.417066 A    
C71   H15   1.081490 S    
C101  H42   1.114062 S    
C77   C79   1.413060 A    
C37   C39   1.398593 A    
C43   O21   1.383611 S    
C86   C88   1.416685 A    
O7    C3    1.289673 A    
C22   C35   1.419764 A    
C54   O20   1.384343 S    
O3    Cu2   1.979615 S    
C7    C23   1.410639 A    
C5    H3    1.078049 S    
C1    C58   1.464422 S    
C46   C48   1.408780 A    
C65   C67   1.418093 A    
C8    O12   1.349671 S    
N1    C19   1.478961 S    
C89   F5    1.356173 S    
C15   C29   1.393535 A    
C99   H35   1.110804 S    
C104  H51   1.113987 S    
C103  H49   1.109243 S    
O4    C2    1.284136 A    
O1    Cu1   1.978243 S    
C25   C41   1.395366 A    
O9    C64   1.349598 S    
C109  H67   1.109378 S    
C26   C42   1.390262 A    
C32   C36   1.414611 A    
C98   H34   1.109388 S    
C40   O34   1.383112 S    
C94   H20   1.107935 S    
C51   C53   1.398462 A    
C95   H23   1.113770 S    
C39   O33   1.383848 S    
C106  H58   1.109089 S    
C6    H4    1.077547 S    
C12   O31   1.381233 S    
C106  H56   1.109312 S    
C103  H48   1.112525 S    
C80   O28   1.382921 S    
C55   C57   1.406591 A    
C16   C30   1.405334 A    
C14   C30   1.402724 A    
C97   H31   1.108125 S    
C69   H13   1.073081 S    
C33   C42   1.414904 A    
C50   C52   1.394887 A    
C50   H10   1.081528 S    
O3    C1    1.290114 A    
O8    Cu1   1.942948 S    
C109  H66   1.112271 S    
C90   F6    1.356026 S    
C37   H7    1.078022 S    
C67   O18   1.386454 S    
N3    C63   1.372327 A    
C93   H17   1.109187 S    
C21   C36   1.416290 A    
C79   O27   1.383207 S    
C66   F9    1.357242 S    
C53   O19   1.380596 S    
N2    C20   1.436361 S    
C84   C88   1.421562 A    
C67   N5    1.369602 A    
O22   C98   1.409760 S    
C97   H30   1.113330 S    
C26   F8    1.358589 S    
C68   O17   1.384633 S    
C25   F7    1.358526 S    
C12   C14   1.397104 A    
C21   C23   1.406187 A    
C38   H8    1.079366 S    
C84   C90   1.419238 A    
H11   C91   1.083360 S    
C22   C24   1.412437 A    
C94   H21   1.109476 S    
N2    C10   1.366825 A    
O32   C108  1.412700 S    
O17   C93   1.413069 S    
C82   C91   1.399741 A    
C72   C74   1.402265 A    
C105  H55   1.109159 S    
C31   C35   1.417513 A    
C75   C77   1.413096 A    
C56   O26   1.385964 S    
C17   C19   1.428255 A    
C52   C54   1.405908 A    
C38   C40   1.396460 A    
O28   C104  1.410643 S    
C44   O22   1.381949 S    
C9    O14   1.346373 S    
C96   H27   1.114385 S    
O27   C103  1.410725 S    
C44   C54   1.406523 A    
C76   C78   1.413022 A    
C14   H5    1.081289 S    
C3    C29   1.467315 S    
O18   C94   1.413334 S    
C75   C81   1.407136 A    
C61   N3    1.373459 A    
C13   H6    1.075585 S    
C78   C80   1.413139 A    
C57   C59   1.407832 A    
O5    Cu1   1.944355 S    
N1    C9    1.375293 A    
O30   C106  1.408000 S    
C18   C20   1.404702 A    
C11   O32   1.397159 S    
C110  H69   1.112855 S    
O25   C101  1.408198 S    
C45   O23   1.382944 S    
C49   H9    1.083528 S    
O21   C97   1.410918 S    
C85   C87   1.416973 A    
C41   F1    1.356559 S    
O20   C96   1.411781 S    
C44   C46   1.412484 A    
C70   H14   1.081307 S    
C49   C51   1.392492 A    
C105  H54   1.112205 S    
C46   O24   1.382957 S    
C84   C85   1.429123 A    
C89   C91   1.394139 A    
