data_mof_unit_49234.cif
_audit_creation_date              2012-12-11T14:08:26-0500
_audit_creation_method            fapswitch 2.2
_symmetry_space_group_name_H-M    P1
_symmetry_Int_Tables_number       1
_space_group_crystal_system       triclinic
_cell_length_a                    10.931682
_cell_length_b                    10.937089
_cell_length_c                    18.673342
_cell_angle_alpha                 90.414412
_cell_angle_beta                  89.653923
_cell_angle_gamma                 60.311451
_cell_volume                      1939.35744346

loop_
_atom_site_label
_atom_site_type_symbol
_atom_type_description
_atom_site_fract_x
_atom_site_fract_y
_atom_site_fract_z
_atom_type_partial_charge
C1    C     C_R   0.290972 0.622623 0.615170 0.552628
C2    C     C_2   0.782346 0.153493 0.706432 -0.174651
C3    C     C_2   0.245654 0.638217 0.689764 -0.122135
C4    C     C_R   0.653000 0.621918 0.601753 0.538811
C5    C     C_2   0.214200 0.652607 0.845598 -0.120808
C6    C     C_2   0.224246 0.545934 0.805269 -0.172356
C7    C     C_2   0.273461 0.526710 0.730360 -0.184119
C8    C     C_2   0.650214 0.645007 0.316906 -0.089181
C9    C     C_2   0.632232 0.662650 0.158753 -0.095405
C10   C     C_2   0.708043 0.544122 0.195059 -0.168658
C11   C     C_2   0.687481 0.535616 0.271526 -0.149377
C12   C     C_3   0.681634 0.544540 0.800803 -0.250991
C13   C     C_2   0.674426 0.135668 0.334452 -0.139244
C14   C     C_2   0.653323 0.139420 0.180847 -0.037132
C15   C     C_2   0.603933 0.073479 0.223455 0.215810
C16   C     C_R   0.627960 0.227777 0.601963 0.538521
C17   C     C_2   0.589378 0.101321 0.299987 -0.161454
C18   C     C_2   0.122047 0.680689 0.345238 -0.105841
C19   C     C_2   0.113012 0.691514 0.190823 -0.086323
C20   C     C_2   0.042333 0.804478 0.234553 -0.140119
C21   C     C_2   0.074637 0.800081 0.309831 -0.166566
C22   C     C_R   0.703533 0.102109 0.897571 0.543510
C23   C     C_3   0.699244 0.674128 0.812820 0.056744
C24   C     C_R   0.723636 0.687985 0.888548 0.538829
C25   C     C_R   0.122195 0.704532 0.908607 0.548278
C26   C     C_R   0.676381 0.102571 0.106009 0.576308
C27   C     C_R   0.691919 0.688211 0.094554 0.575645
C28   C     C_R   0.215460 0.651265 0.404659 0.566805
C29   C     C_R   0.086298 0.713532 0.115381 0.554148
C30   C     C_R   0.641436 0.620691 0.392473 0.552957
C31   C     C_R   0.621563 0.222133 0.397814 0.558198
C32   C     C_3   0.565580 0.807180 0.785022 -0.233003
C33   C     C_3   0.545656 0.789945 0.705151 -0.240423
C34   C     C_3   0.668532 0.647714 0.677145 0.056332
C35   C     C_3   0.829324 0.657088 0.769464 -0.219891
C36   C     C_3   0.808974 0.645957 0.688981 -0.247012
C37   C     C_3   0.667787 0.526380 0.720487 -0.214402
C38   C     C_2   0.674714 0.156428 0.670601 -0.121144
C39   C     C_2   0.689670 0.166783 0.827856 -0.120916
C40   C     C_2   0.801218 0.121050 0.783310 -0.175664
Cr1   Cr    Cr6+3 0.393010 0.398050 0.501480 1.018902
Cr2   Cr    Cr6+3 0.398820 0.707980 0.501630 1.013878
Cr3   Cr    Cr6+3 0.708140 0.393940 0.496850 1.010945
Cr4   Cr    Cr6+3 0.937950 0.938450 0.008940 1.020551
Cr5   Cr    Cr6+3 0.626180 0.937030 0.994750 1.046474
Cr6   Cr    Cr6+3 0.937790 0.625760 0.001410 1.022550
H1    H     H_    0.576225 0.902583 0.792654 0.144044
H2    H     H_    0.323332 0.421462 0.707040 0.150241
H3    H     H_    0.259961 0.715239 0.826952 0.098747
H4    H     H_    0.470543 0.824079 0.815577 0.119459
H5    H     H_    0.190619 0.744245 0.712173 0.110752
H6    H     H_    0.797988 0.453819 0.170369 0.155641
H7    H     H_    0.717841 0.431583 0.291881 0.151135
H8    H     H_    0.536895 0.748789 0.181975 0.125315
H9    H     H_    0.619554 0.749931 0.298516 0.090925
H10   H     H_    0.496718 0.108561 0.326005 0.146421
H11   H     H_    0.688678 0.209350 0.201878 0.025233
H12   H     H_    0.757467 0.423347 0.703085 0.143131
H13   H     H_    0.771827 0.120340 0.310289 0.087253
H14   H     H_    0.970245 0.907655 0.213194 0.153922
H15   H     H_    0.442935 0.793404 0.697946 0.137378
H16   H     H_    0.077790 0.890127 0.332696 0.152587
H17   H     H_    0.186529 0.587056 0.209916 0.091742
H18   H     H_    0.110091 0.594525 0.323767 0.113858
H19   H     H_    0.542085 0.878833 0.674749 0.119990
H20   H     H_    0.845488 0.748486 0.779928 0.123598
H21   H     H_    0.808279 0.735457 0.660599 0.120463
H22   H     H_    0.773924 0.448058 0.821726 0.137273
H23   H     H_    0.926607 0.560680 0.786261 0.137356
H24   H     H_    0.586154 0.558339 0.829729 0.114418
H25   H     H_    0.569137 0.523012 0.710556 0.113789
H26   H     H_    0.514537 0.958786 0.233312 0.300499
H27   H     H_    0.899149 0.547018 0.667258 0.140933
H28   H     H_    0.907557 0.055139 0.802651 0.152975
H29   H     H_    0.855695 0.178536 0.679891 0.147051
H30   H     H_    0.583812 0.233756 0.808054 0.107308
H31   H     H_    0.607412 0.122627 0.696655 0.102923
H32   H     H_    0.185081 0.478386 0.824934 0.147664
O1    O     O_R   0.507110 0.256280 0.580300 -0.529110
O2    O     O_R   0.837080 0.593860 0.915300 -0.530580
O3    O     O_R   0.064770 0.636080 0.932550 -0.499968
O4    O     O_R   0.280830 0.527190 0.577940 -0.491226
O5    O     O_R   0.068250 0.829200 0.092940 -0.515438
O6    O     O_R   0.799650 0.057040 0.080330 -0.520273
O7    O     O_R   0.586130 0.079760 0.077080 -0.446861
O8    O     O_R   0.627700 0.809630 0.066580 -0.457113
O9    O     O_R   0.816140 0.597180 0.075920 -0.517245
O10   O     O_R   0.045360 0.639170 0.081440 -0.490928
O11   O     O_3   0.833980 0.833750 0.001700 -0.254497
O12   O     O_R   0.524640 0.695370 0.425100 -0.493607
O13   O     O_R   0.261360 0.738990 0.584270 -0.519574
O14   O     O_R   0.532590 0.694780 0.574370 -0.520840
O15   O     O_R   0.744470 0.503750 0.577000 -0.527219
O16   O     O_R   0.698520 0.277230 0.571620 -0.500792
O17   O     O_R   0.498530 0.256920 0.419280 -0.512147
O18   O     O_R   0.272880 0.527780 0.428680 -0.495197
O19   O     O_R   0.252780 0.739630 0.423250 -0.508156
O20   O     O_3   0.558122 0.986451 0.194657 -0.667740
O21   O     O_R   0.735890 0.504390 0.415980 -0.509599
O22   O     O_R   0.690560 0.277820 0.422350 -0.502800
O23   O     O_3   0.499990 0.499990 0.499980 -0.264863
O24   O     O_R   0.089190 0.825870 0.932320 -0.519199
O25   O     O_R   0.819070 0.053960 0.931440 -0.496506
O26   O     O_R   0.607070 0.076440 0.916460 -0.525932
O27   O     O_R   0.647110 0.806550 0.917690 -0.516625

loop_
_geom_bond_atom_site_label_1
_geom_bond_atom_site_label_2
_ccdc_geom_bond_type
C28   O19   A    
C18   C21   D    
C35   C36   S    
C30   O12   A    
Cr4   O5    S    
C10   H6    S    
C36   H21   S    
C33   H19   S    
Cr6   O11   S    
H26   O20   S    
C12   H22   S    
C12   C23   S    
Cr3   O21   S    
C29   O5    A    
C3    C7    D    
C8    C11   D    
C5    C6    D    
C25   O24   A    
C6    H32   S    
Cr1   O18   S    
C7    H2    S    
C34   C37   S    
Cr3   O16   S    
C22   O26   A    
Cr2   O13   S    
C12   C37   S    
C29   O10   A    
C24   O2    A    
C19   C20   D    
C19   H17   S    
C26   O6    A    
C23   C24   S    
C20   H14   S    
Cr5   O11   S    
C9    C10   D    
Cr2   O14   S    
C37   H12   S    
C11   H7    S    
C1    O13   A    
C25   O3    A    
C5    H3    S    
C8    H9    S    
Cr4   O25   S    
Cr5   O27   S    
Cr6   O10   S    
C4    C34   S    
C18   C28   S    
Cr3   O22   S    
C10   C11   S    
Cr2   O19   S    
C39   C40   D    
Cr4   O24   S    
C35   H20   S    
C1    O4    A    
C39   H30   S    
C30   O21   A    
C22   O25   A    
C1    C3    S    
C27   O8    A    
Cr5   O7    S    
Cr3   O23   S    
Cr5   O26   S    
Cr6   O3    S    
C2    C38   D    
C33   C34   S    
C31   O22   A    
C14   C26   S    
C27   O9    A    
C17   H10   S    
C32   H4    S    
C21   H16   S    
C5    C25   S    
C9    H8    S    
C23   C35   S    
C37   H25   S    
C32   H1    S    
C15   O20   S    
C19   C29   S    
Cr2   O23   S    
C9    C27   S    
Cr6   O9    S    
Cr1   O23   S    
C15   C17   S    
C14   H11   S    
C12   H24   S    
C3    H5    S    
C13   C31   S    
Cr4   O6    S    
Cr1   O1    S    
C6    C7    S    
C13   H13   S    
C38   H31   S    
C16   O16   A    
C13   C17   D    
C28   O18   A    
C16   O1    A    
C8    C30   S    
C32   C33   S    
Cr5   O8    S    
Cr1   O4    S    
C23   C32   S    
Cr6   O2    S    
C18   H18   S    
Cr1   O17   S    
C26   O7    A    
C31   O17   A    
C22   C39   S    
Cr3   O15   S    
C40   H28   S    
C34   C36   S    
C36   H27   S    
C2    H29   S    
C4    O15   A    
C2    C40   S    
C20   C21   S    
C35   H23   S    
C33   H15   S    
C14   C15   D    
C24   O27   A    
Cr2   O12   S    
Cr4   O11   S    
C16   C38   S    
C4    O14   A    
