data_mof_unit_61126.cif
_audit_creation_date              2012-12-10T18:48:18-0500
_audit_creation_method            fapswitch 2.2
_symmetry_space_group_name_H-M    P1
_symmetry_Int_Tables_number       1
_space_group_crystal_system       triclinic
_cell_length_a                    13.909002
_cell_length_b                    18.127055
_cell_length_c                    19.417528
_cell_angle_alpha                 89.348821
_cell_angle_beta                  90.152587
_cell_angle_gamma                 84.775416
_cell_volume                      4875.03848055

loop_
_atom_site_label
_atom_site_type_symbol
_atom_type_description
_atom_site_fract_x
_atom_site_fract_y
_atom_site_fract_z
_atom_type_partial_charge
C1    C     C_R   0.502743 0.499323 0.632467 0.858013
C2    C     C_R   0.497257 0.500676 0.367533 0.858016
C3    C     C_R   0.543319 0.443982 0.256038 -0.207957
C4    C     C_R   0.456691 0.556019 0.743963 -0.207961
C5    C     C_R   0.493260 0.502001 0.291932 -0.183612
C6    C     C_R   0.506743 0.497998 0.708068 -0.183616
C7    C     C_R   0.461370 0.442401 0.036151 -0.134344
C8    C     C_R   0.538642 0.557597 0.963849 -0.134347
C9    C     C_R   0.464445 0.441479 0.964463 -0.072528
C10   C     C_R   0.535566 0.558519 0.035537 -0.072529
C11   C     C_R   0.503625 0.498850 0.928070 0.127526
C12   C     C_R   0.496387 0.501148 0.071930 0.127525
C13   C     C_R   0.568143 0.274005 0.537162 0.068826
C14   C     C_R   0.431873 0.725993 0.462823 0.068818
C15   C     C_R   0.570091 0.196274 0.538324 0.356204
C16   C     C_R   0.429925 0.803725 0.461661 0.356202
C17   C     C_R   0.500888 0.161340 0.500468 0.127531
C18   C     C_R   0.499111 0.838660 0.499534 0.127526
C19   C     C_R   0.431903 0.206162 0.462270 -0.219832
C20   C     C_R   0.568078 0.793839 0.537747 -0.219827
C21   C     C_R   0.432688 0.283626 0.462685 0.085894
C22   C     C_R   0.567294 0.716375 0.537331 0.085892
C23   C     C_R   0.683150 0.488049 0.500077 0.832385
C24   C     C_R   0.316850 0.511951 0.499923 0.832389
C25   C     C_R   0.541007 0.036882 0.444795 0.321510
C26   C     C_R   0.458993 0.963118 0.555208 0.321495
C27   C     C_R   0.540998 0.958873 0.444712 0.346553
C28   C     C_R   0.459003 0.041128 0.555291 0.346544
C29   C     C_R   0.499888 0.921388 0.499886 -0.172459
C30   C     C_R   0.500110 0.078612 0.500116 -0.172461
C31   C     C_1   0.213954 0.519322 0.499752 -0.093507
C32   C     C_1   0.786045 0.480678 0.500248 -0.093508
C33   C     C_2   0.023752 0.530672 0.499480 0.194846
C34   C     C_2   0.976248 0.469327 0.500520 0.194845
C35   C     C_1   0.872716 0.474929 0.500388 0.084929
C36   C     C_1   0.127284 0.525071 0.499612 0.084928
C37   C     C_R   0.439795 0.559768 0.255051 0.334068
C38   C     C_R   0.560206 0.440229 0.744948 0.334072
C39   C     C_R   0.439902 0.559777 0.182691 0.365665
C40   C     C_R   0.560102 0.440219 0.817308 0.365658
C41   C     C_R   0.492973 0.502097 0.147460 -0.070399
C42   C     C_R   0.507037 0.497901 0.852540 -0.070395
C43   C     C_R   0.543253 0.444083 0.184475 -0.179380
C44   C     C_R   0.456760 0.555917 0.815526 -0.179381
Cu1   Cu    Cu3+1 0.500030 0.426640 0.500000 1.015216
Cu2   Cu    Cu3+1 0.499970 0.573360 0.500000 1.015214
H1    H     H_    0.377770 0.181307 0.432351 0.193750
H2    H     H_    0.622196 0.818695 0.567679 0.193752
H3    H     H_    0.379364 0.317568 0.432899 0.157948
H4    H     H_    0.620606 0.682433 0.567128 0.157942
H5    H     H_    0.583707 0.399251 0.157751 0.191082
H6    H     H_    0.416311 0.600751 0.842251 0.191081
H7    H     H_    0.584051 0.399010 0.283489 0.193604
H8    H     H_    0.415961 0.600994 0.716513 0.193605
H9    H     H_    0.430926 0.397812 0.063751 0.165166
H10   H     H_    0.569086 0.602186 0.936249 0.165164
H11   H     H_    0.436177 0.396231 0.937274 0.177072
H12   H     H_    0.563834 0.603767 0.062726 0.177071
H13   H     H_    0.621595 0.300626 0.565961 0.202428
H14   H     H_    0.378434 0.699371 0.434012 0.202440
N1    N     N_R   0.500010 0.316380 0.499980 -0.215987
N2    N     N_R   0.499990 0.683620 0.500020 -0.215990
O1    O     O_R   0.500040 0.438020 0.599820 -0.536439
O2    O     O_R   0.499960 0.561980 0.400180 -0.536453
O3    O     O_R   0.500000 0.561930 0.599810 -0.591593
O4    O     O_R   0.500000 0.438070 0.400190 -0.591584
O5    O     O_R   0.637870 0.429290 0.499990 -0.572143
O6    O     O_R   0.362130 0.570710 0.500010 -0.572132
O7    O     O_R   0.637830 0.553200 0.499980 -0.575551
O8    O     O_R   0.362170 0.446800 0.500020 -0.575563
Br1   Br    Br    0.042215 0.371389 0.502206 -0.385320
Br2   Br    Br    0.957785 0.628611 0.497794 -0.385312
Cl1   Cl    Cl    0.593890 0.082454 0.375556 -0.430687
Cl2   Cl    Cl    0.406112 0.917546 0.624448 -0.430700
Cl3   Cl    Cl    0.593885 0.907766 0.375362 -0.391444
Cl4   Cl    Cl    0.406122 0.092235 0.624643 -0.391452
Cl5   Cl    Cl    0.367455 0.629867 0.298272 -0.478686
Cl6   Cl    Cl    0.632537 0.370125 0.701725 -0.478672
Cl7   Cl    Cl    0.369688 0.630179 0.136474 -0.454025
Cl8   Cl    Cl    0.630314 0.369814 0.863523 -0.454028
Cl9   Cl    Cl    0.660239 0.144516 0.586721 -0.434301
Cl10  Cl    Cl    0.339798 0.855481 0.413244 -0.434293

loop_
_geom_bond_atom_site_label_1
_geom_bond_atom_site_label_2
_ccdc_geom_bond_type
C5    C37   A    
C27   C29   A    
C23   O7    A    
C7    H9    S    
C8    H10   S    
C21   H3    S    
C24   O8    A    
C39   C41   A    
Cu1   Cu2   S    
C3    C43   A    
Cu2   N2    S    
C19   C21   A    
C25   Cl1   S    
C19   H1    S    
C14   N2    A    
C33   C36   S    
C11   C42   S    
C15   C17   A    
C34   C35   S    
C23   O5    A    
Cu2   O7    S    
C33   Br2   S    
C26   Cl2   S    
C10   H12   S    
Cu1   O5    S    
C1    O3    A    
C6    C38   A    
C9    H11   S    
C22   H4    S    
C44   H6    S    
C40   C42   A    
C17   C30   S    
C41   C43   A    
C42   C44   A    
C27   Cl3   S    
C1    O1    A    
C16   Cl10  S    
C2    O2    A    
C7    C12   A    
C15   Cl9   S    
C1    C6    S    
C32   C35   T    
Cu2   O3    S    
C4    C6    A    
C4    C44   A    
C3    C5    A    
C37   Cl5   S    
Cu1   O1    S    
Cu2   O2    S    
C39   Cl7   S    
Cu2   O6    S    
C12   C41   S    
C22   N2    A    
C40   Cl8   S    
C33   C34   D    
C18   C29   S    
C9    C11   A    
C20   H2    S    
C10   C12   A    
C16   C18   A    
C20   C22   A    
C13   C15   A    
C14   C16   A    
C2    C5    S    
C28   Cl4   S    
C25   C30   A    
C7    C9    A    
C4    H8    S    
Cu1   O8    S    
C21   N1    A    
C2    O4    A    
C13   H13   S    
C25   C27   A    
C38   Cl6   S    
C14   H14   S    
C26   C28   A    
C23   C32   S    
C28   C30   A    
C24   C31   S    
C37   C39   A    
C38   C40   A    
C3    H7    S    
C43   H5    S    
C8    C11   A    
Cu1   N1    S    
C17   C19   A    
C18   C20   A    
C24   O6    A    
C13   N1    A    
C26   C29   A    
C8    C10   A    
Cu1   O4    S    
C31   C36   T    
C34   Br1   S    
