data_mof_unit_51022.cif
_audit_creation_date              2012-12-10T18:43:47-0500
_audit_creation_method            fapswitch 2.2
_symmetry_space_group_name_H-M    P1
_symmetry_Int_Tables_number       1
_space_group_crystal_system       triclinic
_cell_length_a                    10.441562
_cell_length_b                    10.64108
_cell_length_c                    9.878497
_cell_angle_alpha                 90.636765
_cell_angle_beta                  102.746453
_cell_angle_gamma                 90.602518
_cell_volume                      1070.38493937

loop_
_atom_site_label
_atom_site_type_symbol
_atom_type_description
_atom_site_fract_x
_atom_site_fract_y
_atom_site_fract_z
_atom_type_partial_charge
Br1   Br    Br    0.706319 0.687810 0.892807 -0.465594
Br2   Br    Br    0.295187 0.310716 0.107131 -0.478736
Br3   Br    Br    0.268143 0.851718 0.264436 -0.456033
Br4   Br    Br    0.732110 0.147782 0.733970 -0.463969
C1    C     C_R   0.502656 0.260272 0.500080 0.933706
C2    C     C_2   0.884590 0.529555 0.584625 -0.014845
C3    C     C_2   0.072742 0.615904 0.505077 0.188650
C4    C     C_2   0.933482 0.617242 0.509367 0.171152
C5    C     C_R   0.409176 0.064568 0.400177 -0.212681
C6    C     C_R   0.590317 0.935202 0.599284 -0.219357
C7    C     C_R   0.404123 0.935500 0.399468 0.268395
C8    C     C_R   0.595453 0.064227 0.599858 0.279161
C9    C     C_R   0.495427 0.871956 0.499938 -0.154619
C10   C     C_R   0.503958 0.127866 0.499699 -0.153194
C11   C     C_3   0.852824 0.719839 0.428007 -0.807999
C12   C     C_R   0.496800 0.739666 0.499764 0.886679
C13   C     C_3   0.161809 0.706412 0.603352 -0.787026
C14   C     C_3   0.973085 0.447232 0.687900 -0.828059
C15   C     C_3   0.023332 0.458938 0.307396 -0.839603
C16   C     C_R   0.257041 0.507218 0.444055 0.932848
C17   C     C_R   0.743153 0.506152 0.556641 0.933153
C18   C     C_R   0.582837 0.577298 0.092999 -0.136389
C19   C     C_R   0.416425 0.423299 0.906691 -0.147458
C20   C     C_R   0.583747 0.577195 0.950070 0.341354
C21   C     C_R   0.416296 0.422747 0.049834 0.347134
C22   C     C_2   0.116531 0.532825 0.419582 -0.014980
H1    H     H_    0.648282 0.639430 0.164002 0.169893
H2    H     H_    0.229119 0.755769 0.548599 0.239175
H3    H     H_    0.915011 0.383200 0.739865 0.282924
H4    H     H_    0.035137 0.388827 0.634826 0.240728
H5    H     H_    0.037088 0.506706 0.769008 0.265104
H6    H     H_    0.077413 0.395072 0.250918 0.276960
H7    H     H_    0.955529 0.400527 0.353311 0.245308
H8    H     H_    0.965441 0.524263 0.231411 0.269223
H9    H     H_    0.349685 0.362147 0.835188 0.181132
H10   H     H_    0.337519 0.115531 0.325506 0.217521
H11   H     H_    0.662107 0.884198 0.673810 0.218731
H12   H     H_    0.903148 0.812034 0.455448 0.252576
H13   H     H_    0.843478 0.702572 0.315396 0.246864
H14   H     H_    0.754346 0.728372 0.451004 0.223616
H15   H     H_    0.103655 0.778986 0.643703 0.247157
H16   H     H_    0.218724 0.656428 0.694636 0.253563
N1    N     N_R   0.499970 0.499970 0.857200 -0.120364
N2    N     N_R   0.500030 0.500030 0.142800 -0.114772
O1    O     O_R   0.499990 0.316750 0.614620 -0.585744
O2    O     O_R   0.500010 0.683250 0.385380 -0.592594
O3    O     O_R   0.499990 0.316780 0.385290 -0.581547
O4    O     O_R   0.500010 0.683220 0.614710 -0.590516
O5    O     O_R   0.317810 0.500000 0.571850 -0.640665
O6    O     O_R   0.682190 0.500000 0.428150 -0.626253
O7    O     O_R   0.317810 0.500030 0.342520 -0.551024
O8    O     O_R   0.682190 0.499970 0.657480 -0.552166
Zn1   Zn    Zn3+2 0.500000 0.499980 0.653120 1.006391
Zn2   Zn    Zn3+2 0.500000 0.500020 0.346880 1.017091

loop_
_geom_bond_atom_site_label_1
_geom_bond_atom_site_label_2
_ccdc_geom_bond_type
C5    H10   S    
C5    C10   A    
C15   H8    S    
C11   H12   S    
C16   O5    A    
C14   H4    S    
Br4   C8    S    
C5    C7    A    
C12   O4    A    
O7    Zn2   S    
O2    Zn2   S    
O1    Zn1   S    
C3    C4    S    
C14   H3    S    
C7    C9    A    
C11   H13   S    
C1    C10   S    
O6    Zn2   S    
C3    C22   D    
C6    C8    A    
C6    H11   S    
O5    Zn1   S    
C15   H6    S    
C21   N2    A    
C17   O6    A    
C1    O3    A    
C8    C10   A    
C4    C11   S    
C19   H9    S    
C18   H1    S    
C19   C21   A    
O4    Zn1   S    
C2    C14   S    
C18   C20   A    
C11   H14   S    
C13   H15   S    
Br3   C7    S    
N2    Zn2   S    
Br2   C21   S    
C19   N1    A    
O8    Zn1   S    
Br1   C20   S    
C15   H7    S    
C9    C12   S    
C12   O2    A    
C20   N1    A    
C15   C22   S    
C16   O7    A    
C2    C4    D    
C14   H5    S    
O3    Zn2   S    
C13   H16   S    
C2    C17   S    
C1    O1    A    
N1    Zn1   S    
C17   O8    A    
C18   N2    A    
C13   H2    S    
C16   C22   S    
C6    C9    A    
C3    C13   S    
