data_mof_unit_44407.cif
_audit_creation_date              2012-12-10T17:18:58-0500
_audit_creation_method            fapswitch 2.2
_symmetry_space_group_name_H-M    P1
_symmetry_Int_Tables_number       1
_space_group_crystal_system       triclinic
_cell_length_a                    9.705515
_cell_length_b                    10.797858
_cell_length_c                    13.47599
_cell_angle_alpha                 95.328121
_cell_angle_beta                  72.49399
_cell_angle_gamma                 91.479553
_cell_volume                      1341.03585948

loop_
_atom_site_label
_atom_site_type_symbol
_atom_type_description
_atom_site_fract_x
_atom_site_fract_y
_atom_site_fract_z
_atom_type_partial_charge
C1    C     C_R   0.502491 0.737674 0.497113 0.841959
C2    C     C_R   0.377848 0.514946 0.815105 -0.108304
C3    C     C_R   0.307218 0.875120 0.413744 0.599813
C4    C     C_R   0.422122 0.498771 0.699811 0.782442
C5    C     C_R   0.165945 0.918004 0.431170 0.210258
C6    C     C_R   0.120801 0.028355 0.498417 0.172902
C7    C     C_R   0.222423 0.099829 0.533569 0.597579
C8    C     C_R   0.365819 0.059541 0.506672 -0.202541
C9    C     C_R   0.396064 0.935351 0.468670 -0.192023
C10   C     C_R   0.502596 0.873668 0.498357 -0.112756
C11   C     C_R   0.583249 0.942906 0.554939 -0.139947
C12   C     C_R   0.450191 0.552458 0.975234 0.005670
C13   C     C_R   0.571117 0.072563 0.569728 0.684075
C14   C     C_R   0.474563 0.132000 0.532159 -0.144688
C15   C     C_R   0.915646 0.365347 0.339852 -0.209355
C16   C     C_R   0.491638 0.264928 0.513830 0.911821
C17   C     C_R   0.012904 0.354493 0.240831 0.659556
C18   C     C_R   0.152126 0.396624 0.227643 -0.176853
C19   C     C_R   0.206154 0.394289 0.313036 0.433869
C20   C     C_R   0.106893 0.435766 0.415789 0.022898
C21   C     C_R   0.955208 0.431903 0.421360 0.073708
C22   C     C_R   0.896399 0.562925 0.576607 -0.035901
C23   C     C_R   0.476639 0.495564 0.871704 -0.004702
C24   C     C_R   0.042875 0.561547 0.577540 0.727250
C25   C     C_R   0.577972 0.511732 0.301642 0.989049
C26   C     C_R   0.801202 0.487417 0.020282 0.580474
C27   C     C_R   0.622942 0.527804 0.188530 -0.377082
C28   C     C_R   0.246682 0.576134 0.866429 -0.156523
C29   C     C_R   0.222576 0.634480 0.966252 -0.147723
C30   C     C_R   0.326883 0.630407 0.017534 0.672856
C31   C     C_R   0.552648 0.533949 0.029344 -0.097961
C32   C     C_R   0.691171 0.485428 0.972507 -0.174358
C33   C     C_R   0.714736 0.429515 0.871511 -0.040152
C34   C     C_R   0.604083 0.424743 0.826013 -0.112831
C35   C     C_R   0.518435 0.549231 0.138985 0.613494
C36   C     C_R   0.767742 0.516255 0.127672 0.511898
Cu1   Cu    Cu3+1 0.359340 0.500010 0.500010 1.148593
Cu2   Cu    Cu3+1 0.640660 0.499990 0.499990 1.037605
F1    F     F_    0.875755 0.531687 0.171730 -0.620779
F2    F     F_    0.359685 0.777048 0.342852 -0.543196
F3    F     F_    0.178087 0.198738 0.605546 -0.594864
F4    F     F_    0.639281 0.140120 0.630469 -0.602673
F5    F     F_    0.972696 0.303192 0.158011 -0.565734
F6    F     F_    0.078748 0.627728 0.656536 -0.667766
F7    F     F_    0.939272 0.457215 0.963896 -0.603847
F8    F     F_    0.381294 0.572854 0.198478 -0.571082
F9    F     F_    0.314579 0.715857 0.100114 -0.549198
H1    H     H_    0.817650 0.615999 0.639271 0.155830
H2    H     H_    0.930071 0.121782 0.388153 0.364446
H3    H     H_    0.414378 0.137860 0.138047 0.410307
H4    H     H_    0.809329 0.329386 0.348531 0.225521
H5    H     H_    0.223808 0.391326 0.148385 0.231638
H6    H     H_    0.815795 0.382624 0.829891 0.226836
H7    H     H_    0.168743 0.590647 0.825591 0.250625
H8    H     H_    0.127326 0.691946 0.000633 0.215046
H9    H     H_    0.621716 0.366705 0.753579 0.221148
H10   H     H_    0.651016 0.895893 0.590200 0.217260
H11   H     H_    0.056259 0.654586 0.279653 0.394074
N1    N     N_R   0.852480 0.498790 0.499000 -0.191817
N2    N     N_R   0.148360 0.498710 0.498970 -0.209422
O1    O     O_R   0.381190 0.680360 0.500010 -0.535197
O2    O     O_2   0.031911 0.899557 0.283597 -0.188792
O3    O     O_3   0.120227 0.689745 0.320157 -0.418867
O4    O     O_2   0.860559 0.002667 0.623950 -0.210985
O5    O     O_2   0.929842 0.215482 0.583158 -0.208214
O6    O     O_3   0.869936 0.067816 0.439844 -0.461782
O7    O     O_2   0.453946 0.263284 0.311479 -0.310211
O8    O     O_2   0.228323 0.150887 0.324669 -0.352316
O9    O     O_3   0.374940 0.223454 0.148956 -0.522215
O10   O     O_R   0.618760 0.680340 0.500000 -0.565117
O11   O     O_R   0.323240 0.499990 0.650990 -0.520467
O12   O     O_R   0.560820 0.499960 0.650980 -0.615681
O13   O     O_R   0.381240 0.319660 0.500000 -0.498118
O14   O     O_R   0.618810 0.319640 0.499990 -0.572983
O15   O     O_R   0.439180 0.500040 0.349020 -0.500322
O16   O     O_R   0.676760 0.500010 0.349010 -0.570314
O17   O     O_2   0.905746 0.812511 0.448615 -0.268852
S1    S     S_3+6 0.050560 0.830563 0.370587 0.137820
S2    S     S_3+6 0.941685 0.081604 0.539283 0.135867
S3    S     S_3+6 0.319089 0.257454 0.279600 0.010325

loop_
_geom_bond_atom_site_label_1
_geom_bond_atom_site_label_2
_ccdc_geom_bond_type
O8    S3    D    
C22   H1    S    
Cu2   O10   S    
C26   C32   A    
O5    S2    D    
C19   C20   A    
C18   H5    S    
C7    C8    A    
Cu2   O16   S    
O17   S1    D    
C34   H9    S    
O6    S2    S    
C12   C23   A    
C29   C30   A    
C16   O14   A    
C22   C24   A    
C28   C29   A    
H3    O9    S    
C21   N1    A    
C5    C6    A    
C18   C19   A    
C26   F7    S    
C8    C9    A    
C15   H4    S    
C20   N2    A    
C9    C10   A    
Cu1   O15   S    
C13   C14   A    
C13   F4    S    
C33   C34   A    
C33   H6    S    
Cu2   O12   S    
H2    O6    S    
O7    S3    D    
C16   O13   A    
C30   F9    S    
C22   N1    A    
C28   H7    S    
C29   H8    S    
C27   C35   A    
C25   O15   A    
C2    C4    S    
C17   F5    S    
Cu1   Cu2   S    
C3    C9    A    
C31   C32   A    
C24   N2    A    
C23   C34   A    
C17   C18   A    
C26   C36   A    
C3    F2    S    
Cu1   O11   S    
C12   C31   A    
C24   F6    S    
O4    S2    D    
C14   C16   S    
C4    O12   A    
Cu2   O14   S    
H11   O3    S    
C15   C17   A    
Cu1   O13   S    
C8    C14   A    
C12   C30   A    
O2    S1    D    
C36   F1    S    
C1    C10   S    
C3    C5    A    
C1    O1    A    
Cu1   O1    S    
C6    C7    A    
C27   C36   A    
C25   C27   S    
C1    O10   A    
C25   O16   A    
C32   C33   A    
C11   C13   A    
C6    S2    S    
C31   C35   A    
C7    F3    S    
C19   S3    S    
Cu1   N2    S    
C10   C11   A    
Cu2   N1    S    
C15   C21   A    
C20   C21   A    
C2    C23   A    
O9    S3    S    
C2    C28   A    
C5    S1    S    
C11   H10   S    
C35   F8    S    
C4    O11   A    
O3    S1    S    
