data_mof_unit_6069.cif
_audit_creation_date              2012-12-10T19:11:22-0500
_audit_creation_method            fapswitch 2.2
_symmetry_space_group_name_H-M    P1
_symmetry_Int_Tables_number       1
_space_group_crystal_system       triclinic
_cell_length_a                    10.625788
_cell_length_b                    9.712895
_cell_length_c                    10.494553
_cell_angle_alpha                 89.626838
_cell_angle_beta                  90.021967
_cell_angle_gamma                 89.994608
_cell_volume                      1083.08998723

loop_
_atom_site_label
_atom_site_type_symbol
_atom_type_description
_atom_site_fract_x
_atom_site_fract_y
_atom_site_fract_z
_atom_type_partial_charge
C1    C     C_R   0.257660 0.499721 0.500020 0.841733
C2    C     C_3   0.499898 0.501660 0.122178 0.027087
C3    C     C_3   0.072390 0.572277 0.620821 -0.376839
C4    C     C_3   0.071567 0.348228 0.499697 -0.371192
C5    C     C_3   0.927923 0.572420 0.620746 -0.422777
C6    C     C_3   0.928700 0.348224 0.499919 -0.408178
C7    C     C_3   0.072297 0.574437 0.379416 -0.411754
C8    C     C_3   0.121344 0.498723 0.499996 0.159949
C9    C     C_3   0.878891 0.498715 0.500000 0.197084
C10   C     C_3   0.927831 0.574300 0.379350 -0.397856
C11   C     C_3   0.409475 0.081841 0.402608 -0.264782
C12   C     C_3   0.409454 0.919428 0.402633 -0.263756
C13   C     C_3   0.625564 0.081397 0.464811 -0.416758
C14   C     C_3   0.625546 0.919009 0.464723 -0.417424
C15   C     C_3   0.464870 0.080465 0.623987 0.567473
C16   C     C_3   0.464903 0.917899 0.624008 0.566136
C17   C     C_R   0.499986 0.500536 0.257121 0.854859
C18   C     C_R   0.742572 0.499713 0.500002 0.823183
C19   C     C_R   0.500059 0.499473 0.742760 0.876885
C20   C     C_3   0.500114 0.631602 0.039144 -0.132614
C21   C     C_3   0.396185 0.435366 0.042757 -0.189148
C22   C     C_3   0.396410 0.565126 0.956983 -0.157118
C23   C     C_3   0.499932 0.498393 0.877688 0.028117
C24   C     C_3   0.603629 0.564700 0.957111 -0.193602
C25   C     C_3   0.499696 0.368460 0.960720 -0.123417
C26   C     C_3   0.603406 0.434940 0.042862 -0.197560
H1    H     H_    0.312334 0.617767 0.916917 0.150167
H2    H     H_    0.893124 0.682464 0.376819 0.173404
H3    H     H_    0.892576 0.522368 0.292042 0.149862
H4    H     H_    0.433572 0.120381 0.305625 0.157331
H5    H     H_    0.433515 0.882112 0.305678 0.151091
H6    H     H_    0.312924 0.120001 0.422766 0.193760
H7    H     H_    0.312898 0.881014 0.422853 0.196191
H8    H     H_    0.655750 0.120828 0.369852 0.196513
H9    H     H_    0.655582 0.881038 0.369663 0.196316
H10   H     H_    0.533725 0.116309 0.696455 -0.007921
H11   H     H_    0.533828 0.881208 0.696494 0.004288
H12   H     H_    0.696731 0.118343 0.534390 0.161847
H13   H     H_    0.696819 0.880897 0.534142 0.162579
H14   H     H_    0.500277 0.738808 0.075253 0.133041
H15   H     H_    0.311915 0.383076 0.082697 0.126952
H16   H     H_    0.687911 0.616978 0.917176 0.123425
H17   H     H_    0.499478 0.261246 0.924637 0.151472
H18   H     H_    0.687511 0.382319 0.082871 0.123849
H19   H     H_    0.107077 0.680390 0.623611 0.215635
H20   H     H_    0.105788 0.292935 0.413708 0.165695
H21   H     H_    0.107656 0.518897 0.708014 0.159841
H22   H     H_    0.106123 0.291145 0.585248 0.217749
H23   H     H_    0.892567 0.519303 0.708005 0.152717
H24   H     H_    0.894510 0.291484 0.585778 0.173142
H25   H     H_    0.893387 0.680607 0.623289 0.175410
H26   H     H_    0.894138 0.292585 0.414233 0.170402
H27   H     H_    0.106813 0.682666 0.377100 0.178237
H28   H     H_    0.107656 0.522751 0.292048 0.149757
N1    N     N_3   0.499750 0.138610 0.497240 -0.089086
N2    N     N_3   0.499750 0.861390 0.497240 -0.090638
O1    O     O_R   0.314910 0.616040 0.499970 -0.591763
O2    O     O_R   0.314910 0.383960 0.499970 -0.594899
O3    O     O_R   0.500080 0.616020 0.313900 -0.636236
O4    O     O_R   0.500080 0.383980 0.313900 -0.631085
O5    O     O_R   0.685320 0.616040 0.499930 -0.640563
O6    O     O_R   0.685320 0.383960 0.499930 -0.642080
O7    O     O_R   0.500150 0.616060 0.686000 -0.596720
O8    O     O_R   0.500150 0.383940 0.686000 -0.602326
Zn1   Zn    Zn3+2 0.500150 0.654960 0.499940 0.946849
Zn2   Zn    Zn3+2 0.500150 0.345040 0.499940 0.946431
F1    F     F_    0.348162 0.130193 0.660804 -0.639208
F2    F     F_    0.348221 0.867670 0.660935 -0.639157

loop_
_geom_bond_atom_site_label_1
_geom_bond_atom_site_label_2
_ccdc_geom_bond_type
C7    C10   S    
C19   C23   S    
C23   C24   S    
O7    Zn1   S    
C18   O5    A    
C5    C9    S    
C16   F2    S    
C1    O1    A    
C1    C8    S    
C24   H16   S    
C9    C10   S    
C19   O8    A    
C14   N2    S    
C16   H11   S    
C4    C8    S    
C15   F1    S    
C20   C24   S    
C25   H17   S    
C2    C21   S    
C16   N2    S    
C25   C26   S    
C26   H18   S    
C7    C8    S    
C2    C26   S    
C19   O7    A    
C4    H20   S    
C21   C22   S    
O3    Zn1   S    
C2    C17   S    
C12   H7    S    
C10   H3    S    
C5    H23   S    
C13   H12   S    
C12   N2    S    
C1    O2    A    
C9    C18   S    
C17   O3    A    
C21   H15   S    
C5    H25   S    
C3    H21   S    
C24   C26   S    
C11   H6    S    
C3    H19   S    
C22   H1    S    
C23   C25   S    
C12   H5    S    
C20   H14   S    
C13   N1    S    
C20   C22   S    
C17   O4    A    
O4    Zn2   S    
C15   C16   S    
O5    Zn1   S    
C15   H10   S    
C13   H8    S    
C6    C9    S    
C11   N1    S    
C11   H4    S    
C4    C6    S    
C3    C8    S    
C4    H22   S    
C15   N1    S    
C10   H2    S    
C14   H9    S    
O6    Zn2   S    
C7    H27   S    
C22   C23   S    
C18   O6    A    
C21   C25   S    
C7    H28   S    
C6    H26   S    
C14   H13   S    
C13   C14   S    
C2    C20   S    
O2    Zn2   S    
C6    H24   S    
N2    Zn1   S    
C11   C12   S    
O1    Zn1   S    
N1    Zn2   S    
C3    C5    S    
O8    Zn2   S    
