data_mof_unit_23627.cif
_audit_creation_date              2012-12-10T16:37:58-0500
_audit_creation_method            fapswitch 2.2
_symmetry_space_group_name_H-M    P1
_symmetry_Int_Tables_number       1
_space_group_crystal_system       triclinic
_cell_length_a                    28.214981
_cell_length_b                    18.61202
_cell_length_c                    16.991204
_cell_angle_alpha                 90.243145
_cell_angle_beta                  61.518528
_cell_angle_gamma                 90.438234
_cell_volume                      7842.58711701

loop_
_atom_site_label
_atom_site_type_symbol
_atom_type_description
_atom_site_fract_x
_atom_site_fract_y
_atom_site_fract_z
_atom_type_partial_charge
C1    C     C_R   0.702363 0.269868 0.676074 0.904461
C2    C     C_R   0.297644 0.730125 0.323920 0.907931
C3    C     C_R   0.297764 0.269782 0.323776 0.924133
C4    C     C_R   0.702308 0.730036 0.676170 0.886732
C5    C     C_R   0.202363 0.769868 0.676074 0.904463
C6    C     C_R   0.797644 0.230126 0.323920 0.907933
C7    C     C_R   0.797764 0.769783 0.323777 0.924129
C8    C     C_R   0.202308 0.230035 0.676170 0.886730
C9    C     C_R   0.900911 0.499450 0.500740 0.072096
C10   C     C_R   0.080523 0.498884 0.561656 0.077425
C11   C     C_R   0.400911 0.999449 0.500741 0.072096
C12   C     C_R   0.580522 0.998884 0.561657 0.077425
C13   C     C_R   0.077983 0.369244 0.562258 -0.150673
C14   C     C_R   0.880318 0.620721 0.559050 -0.145814
C15   C     C_R   0.919872 0.375569 0.451838 -0.145804
C16   C     C_R   0.070836 0.626709 0.590466 -0.154169
C17   C     C_R   0.577983 0.869244 0.562258 -0.150673
C18   C     C_R   0.380317 0.120721 0.559051 -0.145815
C19   C     C_R   0.419873 0.875569 0.451837 -0.145804
C20   C     C_R   0.570836 0.126709 0.590466 -0.154170
C21   C     C_R   0.722255 0.271505 0.952755 0.035382
C22   C     C_R   0.277894 0.728407 0.047087 0.035358
C23   C     C_R   0.277844 0.271529 0.047305 0.034383
C24   C     C_R   0.723166 0.726988 0.951566 0.033899
C25   C     C_R   0.222253 0.771500 0.952756 0.035383
C26   C     C_R   0.777896 0.228412 0.047085 0.035360
C27   C     C_R   0.777843 0.771536 0.047308 0.034384
C28   C     C_R   0.223167 0.226981 0.951564 0.033898
C29   C     C_R   0.754203 0.208885 0.925683 0.042385
C30   C     C_R   0.245998 0.791067 0.074085 0.043808
C31   C     C_R   0.246694 0.207668 0.072824 0.045229
C32   C     C_R   0.754386 0.790786 0.925985 0.045516
C33   C     C_R   0.254203 0.708880 0.925684 0.042384
C34   C     C_R   0.745999 0.291071 0.074085 0.043807
C35   C     C_R   0.746694 0.707674 0.072823 0.045230
C36   C     C_R   0.254388 0.290779 0.925983 0.045517
C37   C     C_R   0.782812 0.187975 0.972197 0.046822
C38   C     C_R   0.217317 0.811896 0.027677 0.048296
C39   C     C_R   0.218637 0.185867 0.025455 0.049506
C40   C     C_R   0.782450 0.812551 0.973301 0.048657
C41   C     C_R   0.282811 0.687969 0.972199 0.046820
C42   C     C_R   0.717319 0.311902 0.027675 0.048294
C43   C     C_R   0.718636 0.685875 0.025457 0.049507
C44   C     C_R   0.282453 0.312542 0.973297 0.048658
C45   C     C_R   0.659377 0.352506 0.935029 0.024259
C46   C     C_R   0.340571 0.647252 0.065090 0.022842
C47   C     C_R   0.339364 0.354618 0.067248 0.020427
C48   C     C_R   0.661191 0.644374 0.932105 0.022123
C49   C     C_R   0.159375 0.852500 0.935033 0.024262
C50   C     C_R   0.840573 0.147258 0.065086 0.022846
C51   C     C_R   0.839361 0.854627 0.067253 0.020425
C52   C     C_R   0.161194 0.144367 0.932101 0.022120
C53   C     C_R   0.630923 0.371671 0.887693 -0.228675
C54   C     C_R   0.369009 0.628103 0.112430 -0.226924
C55   C     C_R   0.368023 0.374015 0.114068 -0.222952
C56   C     C_R   0.632279 0.625304 0.885568 -0.225238
C57   C     C_R   0.130922 0.871667 0.887695 -0.228677
C58   C     C_R   0.869011 0.128108 0.112427 -0.226924
C59   C     C_R   0.868020 0.874023 0.114072 -0.222949
C60   C     C_R   0.132281 0.125298 0.885564 -0.225236
C61   C     C_R   0.651004 0.351532 0.799755 0.307367
C62   C     C_R   0.348986 0.648355 0.200320 0.304251
C63   C     C_R   0.348703 0.352868 0.201399 0.303353
C64   C     C_R   0.651455 0.646662 0.798319 0.302953
C65   C     C_R   0.151004 0.851529 0.799757 0.307361
C66   C     C_R   0.848987 0.148358 0.200318 0.304245
C67   C     C_R   0.848702 0.852873 0.201402 0.303364
C68   C     C_R   0.151456 0.146659 0.798316 0.302960
C69   C     C_R   0.683059 0.290448 0.769755 -0.222019
C70   C     C_R   0.316967 0.709485 0.230241 -0.224383
C71   C     C_R   0.316906 0.290987 0.230546 -0.228254
C72   C     C_R   0.683335 0.708481 0.769205 -0.220958
C73   C     C_R   0.183058 0.790446 0.769756 -0.222018
C74   C     C_R   0.816967 0.209487 0.230240 -0.224381
C75   C     C_R   0.816906 0.790990 0.230547 -0.228256
C76   C     C_R   0.183335 0.208477 0.769204 -0.220960
C77   C     C_R   0.702333 0.257932 0.825934 0.012615
C78   C     C_R   0.297762 0.742004 0.173970 0.014902
C79   C     C_R   0.297657 0.258195 0.174057 0.013999
C80   C     C_R   0.702885 0.740885 0.825435 0.008056
C81   C     C_R   0.202333 0.757929 0.825934 0.012615
C82   C     C_R   0.797762 0.242007 0.173970 0.014903
C83   C     C_R   0.797657 0.758200 0.174057 0.013998
C84   C     C_R   0.202885 0.240880 0.825435 0.008055
C85   C     C_R   0.691270 0.129406 0.535136 0.872303
C86   C     C_R   0.308121 0.871044 0.467930 0.872414
C87   C     C_R   0.303368 0.128007 0.482913 0.882061
C88   C     C_R   0.691901 0.870891 0.533137 0.880549
C89   C     C_R   0.191270 0.629406 0.535136 0.872302
C90   C     C_R   0.808121 0.371044 0.467930 0.872412
C91   C     C_R   0.803368 0.628007 0.482912 0.882064
C92   C     C_R   0.191901 0.370891 0.533137 0.880553
C93   C     C_R   0.694896 0.294072 0.904451 0.080969
C94   C     C_R   0.305179 0.705810 0.095489 0.081447
C95   C     C_R   0.304707 0.294824 0.096330 0.082205
C96   C     C_R   0.696039 0.703985 0.902857 0.078872
C97   C     C_R   0.194894 0.794067 0.904453 0.080969
C98   C     C_R   0.805181 0.205815 0.095488 0.081446
C99   C     C_R   0.804705 0.794831 0.096333 0.082206
C100  C     C_R   0.196040 0.203978 0.902855 0.078874
C101  C     C_R   0.655058 0.391192 0.009440 -0.150865
C102  C     C_R   0.344788 0.608403 0.990862 -0.148897
C103  C     C_R   0.342941 0.394456 0.994632 -0.138074
C104  C     C_R   0.657668 0.604422 0.004599 -0.143871
C105  C     C_R   0.155054 0.891184 0.009446 -0.150870
C106  C     C_R   0.844792 0.108412 0.990855 -0.148904
C107  C     C_R   0.842935 0.894467 0.994640 -0.138068
C108  C     C_R   0.157672 0.104413 0.004593 -0.143868
C109  C     C_R   0.683051 0.371737 0.054307 -0.206422
C110  C     C_R   0.316904 0.627941 0.945830 -0.202276
C111  C     C_R   0.315491 0.374216 0.948881 -0.174942
C112  C     C_R   0.685489 0.624282 0.049933 -0.194493
C113  C     C_R   0.183048 0.871729 0.054312 -0.206428
C114  C     C_R   0.816908 0.127950 0.945823 -0.202283
C115  C     C_R   0.815485 0.874228 0.948890 -0.174938
C116  C     C_R   0.185492 0.124272 0.049927 -0.194488
C117  C     C_R   0.729858 0.192285 0.805770 -0.146438
C118  C     C_R   0.270342 0.807721 0.193996 -0.150881
C119  C     C_R   0.270532 0.191832 0.193227 -0.142808
C120  C     C_R   0.730088 0.807176 0.806275 -0.128777
C121  C     C_R   0.229859 0.692283 0.805768 -0.146438
C122  C     C_R   0.770340 0.307723 0.193998 -0.150883
C123  C     C_R   0.770535 0.691835 0.193223 -0.142804
C124  C     C_R   0.230087 0.307172 0.806276 -0.128777
C125  C     C_R   0.755141 0.168404 0.854098 -0.191189
C126  C     C_R   0.245136 0.831634 0.145558 -0.195827
C127  C     C_R   0.245730 0.167174 0.144085 -0.184002
C128  C     C_R   0.755220 0.831471 0.854977 -0.153454
C129  C     C_R   0.255142 0.668402 0.854096 -0.191189
C130  C     C_R   0.745135 0.331637 0.145560 -0.195828
C131  C     C_R   0.745734 0.667176 0.144080 -0.184001
C132  C     C_R   0.255221 0.331465 0.854976 -0.153451
C133  C     C_R   0.082101 0.084605 0.926668 0.937342
C134  C     C_R   0.918076 0.914905 0.073144 0.939330
C135  C     C_R   0.918917 0.087323 0.072195 0.934849
C136  C     C_R   0.081001 0.912451 0.927898 0.935754
C137  C     C_R   0.582099 0.584611 0.926670 0.937340
C138  C     C_R   0.418079 0.414897 0.073141 0.939330
C139  C     C_R   0.418915 0.587318 0.072197 0.934863
C140  C     C_R   0.581003 0.412455 0.927896 0.935759
C141  C     C_R   0.521289 0.126218 0.588577 -0.063333
C142  C     C_R   0.458936 0.871803 0.480219 -0.066943
C143  C     C_R   0.426154 0.123328 0.571410 -0.066894
C144  C     C_R   0.538075 0.868467 0.535988 -0.069091
C145  C     C_R   0.021289 0.626218 0.588576 -0.063333
C146  C     C_R   0.958935 0.371803 0.480219 -0.066943
C147  C     C_R   0.926154 0.623328 0.571408 -0.066894
C148  C     C_R   0.038075 0.368467 0.535988 -0.069091
C149  C     C_R   0.488318 0.187798 0.610136 0.333877
C150  C     C_R   0.483945 0.806190 0.479754 0.329145
C151  C     C_R   0.440276 0.185824 0.603640 0.331039
C152  C     C_R   0.521873 0.804056 0.511148 0.331630
C153  C     C_R   0.988319 0.687798 0.610134 0.333877
C154  C     C_R   0.983944 0.306190 0.479756 0.329145
C155  C     C_R   0.940277 0.685824 0.603638 0.331039
C156  C     C_R   0.021872 0.304057 0.511149 0.331630
C157  C     C_R   0.458520 0.061856 0.551230 -0.023268
C158  C     C_R   0.514643 0.933934 0.533215 -0.023071
C159  C     C_R   0.504525 0.062483 0.563667 -0.025760
C160  C     C_R   0.472577 0.934850 0.511266 -0.024385
C161  C     C_R   0.958521 0.561856 0.551229 -0.023268
C162  C     C_R   0.014643 0.433934 0.533215 -0.023071
C163  C     C_R   0.004525 0.562483 0.563666 -0.025760
C164  C     C_R   0.972578 0.434850 0.511266 -0.024385
C165  C     C_R   0.944334 0.498938 0.520201 0.044344
C166  C     C_R   0.032916 0.498485 0.553694 0.043430
C167  C     C_R   0.444334 0.998938 0.520202 0.044344
C168  C     C_R   0.532916 0.998485 0.553695 0.043430
C169  C     C_R   0.887084 0.436638 0.469162 0.032901
C170  C     C_R   0.103195 0.564501 0.569557 0.029510
C171  C     C_R   0.105722 0.433485 0.560070 0.028179
C172  C     C_R   0.870241 0.562055 0.515379 0.025830
C173  C     C_R   0.387084 0.936638 0.469162 0.032901
C174  C     C_R   0.603195 0.064501 0.569557 0.029510
C175  C     C_R   0.605722 0.933485 0.560070 0.028179
C176  C     C_R   0.370241 0.062054 0.515379 0.025830
C177  C     C_R   0.839430 0.436398 0.459664 -0.123307
C178  C     C_R   0.156976 0.564629 0.557475 -0.121767
C179  C     C_R   0.157961 0.434894 0.554018 -0.118863
C180  C     C_R   0.830078 0.562905 0.486756 -0.092781
C181  C     C_R   0.339431 0.936398 0.459664 -0.123307
C182  C     C_R   0.656976 0.064629 0.557475 -0.121767
C183  C     C_R   0.657961 0.934894 0.554018 -0.118862
C184  C     C_R   0.330077 0.062905 0.486757 -0.092781
C185  C     C_R   0.815031 0.500308 0.460624 -0.255438
C186  C     C_R   0.182004 0.500007 0.554115 -0.255362
C187  C     C_R   0.315031 0.000308 0.460624 -0.255439
C188  C     C_R   0.682004 0.000007 0.554115 -0.255363
H1    H     H_    0.781695 0.500565 0.445694 0.198654
H2    H     H_    0.222648 0.500408 0.545382 0.210288
H3    H     H_    0.281695 0.000565 0.445694 0.198653
H4    H     H_    0.722648 0.000408 0.545382 0.210288
H5    H     H_    0.086302 0.319384 0.584694 0.221545
H6    H     H_    0.851946 0.663942 0.586252 0.220351
H7    H     H_    0.915778 0.330891 0.414962 0.215724
H8    H     H_    0.083130 0.674898 0.611315 0.216857
H9    H     H_    0.586302 0.819384 0.584694 0.221544
H10   H     H_    0.351946 0.163942 0.586253 0.220351
H11   H     H_    0.415779 0.830892 0.414962 0.215723
H12   H     H_    0.583130 0.174898 0.611314 0.216858
H13   H     H_    0.632134 0.439451 0.032797 0.158770
H14   H     H_    0.367531 0.559950 0.967877 0.158879
H15   H     H_    0.365007 0.443987 0.973879 0.152909
H16   H     H_    0.635275 0.555157 0.025594 0.153324
H17   H     H_    0.132129 0.939442 0.032806 0.158776
H18   H     H_    0.867537 0.059960 0.967865 0.158888
H19   H     H_    0.865001 0.944000 0.973891 0.152898
H20   H     H_    0.135280 0.055148 0.025584 0.153317
H21   H     H_    0.676243 0.404985 0.110674 0.139615
H22   H     H_    0.323596 0.594540 0.889645 0.142889
H23   H     H_    0.321636 0.408461 0.893908 0.145021
H24   H     H_    0.679471 0.589925 0.104753 0.139782
H25   H     H_    0.176237 0.904974 0.110682 0.139618
H26   H     H_    0.823602 0.094552 0.889636 0.142894
H27   H     H_    0.821626 0.908477 0.893922 0.145013
H28   H     H_    0.179477 0.089913 0.104743 0.139777
H29   H     H_    0.731333 0.157408 0.753667 0.163614
H30   H     H_    0.268889 0.842606 0.246077 0.162626
H31   H     H_    0.269003 0.157083 0.245183 0.163610
H32   H     H_    0.731377 0.842227 0.754750 0.163488
H33   H     H_    0.231336 0.657407 0.753664 0.163615
H34   H     H_    0.768887 0.342607 0.246081 0.162628
H35   H     H_    0.769009 0.657084 0.245177 0.163605
H36   H     H_    0.231375 0.342224 0.754754 0.163486
H37   H     H_    0.774908 0.117283 0.833453 0.141125
H38   H     H_    0.225498 0.882855 0.166002 0.138996
H39   H     H_    0.226200 0.115563 0.164027 0.139737
H40   H     H_    0.774778 0.883054 0.835007 0.141732
H41   H     H_    0.274912 0.617283 0.833446 0.141127
H42   H     H_    0.725494 0.382856 0.166008 0.138997
H43   H     H_    0.726209 0.615563 0.164015 0.139734
H44   H     H_    0.274783 0.383047 0.835002 0.141733
O1    O     O_R   0.746490 0.236330 0.638080 -0.642942
O2    O     O_R   0.253510 0.763670 0.361920 -0.645901
O3    O     O_R   0.253510 0.236330 0.361920 -0.634766
O4    O     O_R   0.746490 0.763670 0.638080 -0.643781
O5    O     O_R   0.246490 0.736330 0.638080 -0.642944
O6    O     O_R   0.753510 0.263670 0.361920 -0.645903
O7    O     O_R   0.753510 0.736330 0.361920 -0.634762
O8    O     O_R   0.246490 0.263670 0.638080 -0.643780
O9    O     O_R   0.674170 0.186160 0.516270 -0.628199
O10   O     O_R   0.325830 0.813840 0.483730 -0.625231
O11   O     O_R   0.325830 0.186160 0.483730 -0.637626
O12   O     O_R   0.674170 0.813840 0.516270 -0.626708
O13   O     O_R   0.174170 0.686160 0.516270 -0.628199
O14   O     O_R   0.825830 0.313840 0.483730 -0.625232
O15   O     O_R   0.825830 0.686160 0.483730 -0.637626
O16   O     O_R   0.174170 0.313840 0.516270 -0.626708
O17   O     O_R   0.739960 0.127620 0.525000 -0.607195
O18   O     O_R   0.260040 0.872380 0.475000 -0.606455
O19   O     O_R   0.260040 0.127620 0.475000 -0.613248
O20   O     O_R   0.739960 0.872380 0.525000 -0.609530
O21   O     O_R   0.239960 0.627620 0.525000 -0.607196
O22   O     O_R   0.760040 0.372380 0.475000 -0.606455
O23   O     O_R   0.760040 0.627620 0.475000 -0.613247
O24   O     O_R   0.239960 0.372380 0.525000 -0.609529
O25   O     O_R   0.680700 0.294870 0.629350 -0.545839
O26   O     O_R   0.319300 0.705130 0.370650 -0.543945
O27   O     O_R   0.319300 0.294870 0.370650 -0.546821
O28   O     O_R   0.680700 0.705130 0.629350 -0.553391
O29   O     O_R   0.180700 0.794870 0.629350 -0.545838
O30   O     O_R   0.819300 0.205130 0.370650 -0.543945
O31   O     O_R   0.819300 0.794870 0.370650 -0.546821
O32   O     O_R   0.180700 0.205130 0.629350 -0.553392
O33   O     O_R   0.062020 0.072840 0.007170 -0.654597
O34   O     O_R   0.937980 0.927160 0.992830 -0.648992
O35   O     O_R   0.937980 0.072840 0.992830 -0.660711
O36   O     O_R   0.062020 0.927160 0.007170 -0.663550
O37   O     O_R   0.562020 0.572840 0.007170 -0.654605
O38   O     O_R   0.437980 0.427160 0.992830 -0.649004
O39   O     O_R   0.437980 0.572840 0.992830 -0.660701
O40   O     O_R   0.562020 0.427160 0.007170 -0.663544
O41   O     O_R   0.947860 0.073950 0.109290 -0.545254
O42   O     O_R   0.052140 0.926050 0.890710 -0.539406
O43   O     O_R   0.052140 0.073950 0.890710 -0.546776
O44   O     O_R   0.947860 0.926050 0.109290 -0.549908
O45   O     O_R   0.447860 0.573950 0.109290 -0.545252
O46   O     O_R   0.552140 0.426050 0.890710 -0.539407
O47   O     O_R   0.552140 0.573950 0.890710 -0.546777
O48   O     O_R   0.447860 0.426050 0.109290 -0.549910
Zn1   Zn    Zn3+2 0.792340 0.208750 0.507670 1.093557
Zn2   Zn    Zn3+2 0.207660 0.791250 0.492330 1.077367
Zn3   Zn    Zn3+2 0.207660 0.208750 0.492330 1.099185
Zn4   Zn    Zn3+2 0.792340 0.791250 0.507670 1.088198
Zn5   Zn    Zn3+2 0.292340 0.708750 0.507670 1.093556
Zn6   Zn    Zn3+2 0.707660 0.291250 0.492330 1.077366
Zn7   Zn    Zn3+2 0.707660 0.708750 0.492330 1.099187
Zn8   Zn    Zn3+2 0.292340 0.291250 0.507670 1.088196
Zn9   Zn    Zn3+2 0.505960 0.500000 0.080520 1.066814
Zn10  Zn    Zn3+2 0.494040 0.500000 0.919480 1.088311
Zn11  Zn    Zn3+2 0.005960 0.000000 0.080520 1.066815
Zn12  Zn    Zn3+2 0.994040 0.000000 0.919480 1.088313
Cl1   Cl    Cl    0.051825 0.220956 0.512071 -0.525939
Cl2   Cl    Cl    0.899401 0.763522 0.632908 -0.551486
Cl3   Cl    Cl    0.966086 0.225256 0.444896 -0.525287
Cl4   Cl    Cl    0.006297 0.768089 0.645981 -0.520522
Cl5   Cl    Cl    0.551827 0.720956 0.512068 -0.525940
Cl6   Cl    Cl    0.399399 0.263521 0.632913 -0.551492
Cl7   Cl    Cl    0.466087 0.725257 0.444893 -0.525287
Cl8   Cl    Cl    0.506296 0.268088 0.645984 -0.520524
Cl9   Cl    Cl    0.642875 0.412431 0.726297 -0.473615
Cl10  Cl    Cl    0.357202 0.587569 0.273799 -0.479506
Cl11  Cl    Cl    0.357992 0.413004 0.275090 -0.488688
Cl12  Cl    Cl    0.641790 0.586941 0.724654 -0.484957
Cl13  Cl    Cl    0.142876 0.912431 0.726299 -0.473620
Cl14  Cl    Cl    0.857201 0.087569 0.273796 -0.479513
Cl15  Cl    Cl    0.857994 0.913004 0.275093 -0.488685
Cl16  Cl    Cl    0.141788 0.086941 0.724652 -0.484952

loop_
_geom_bond_atom_site_label_1
_geom_bond_atom_site_label_2
_ccdc_geom_bond_type
C135  O35   A    
C85   C182  S    
C4    O4    A    
C9    C169  A    
C34   C42   A    
C116  H28   S    
C181  C187  A    
C6    O6    A    
C27   C99   A    
C170  C178  A    
C104  H16   S    
C12   C174  A    
C42   C109  A    
C24   C96   A    
C61   Cl9   S    
C62   C70   A    
C3    O3    A    
C1    O1    A    
C117  H29   S    
C8    O32   A    
C147  C155  A    
C107  H19   S    
O11   Zn8   S    
C88   O20   A    
C143  C151  A    
C14   H6    S    
C90   C177  S    
C4    O28   A    
C5    O29   A    
C82   C98   A    
C76   C84   A    
C126  H38   S    
C109  H21   S    
C73   C81   A    
C161  C163  A    
C162  C164  A    
O22   Zn6   S    
C84   C100  A    
C140  O46   A    
C57   C65   A    
C137  O37   A    
C37   C114  A    
C27   C35   A    
C10   C171  A    
C21   C29   A    
O3    Zn3   S    
C81   C121  A    
C23   C31   A    
C186  H2    S    
C24   C32   A    
O10   Zn5   S    
O38   Zn10  S    
O15   Zn4   S    
C146  C154  A    
C86   O10   A    
C115  H27   S    
C152  Cl5   S    
C5    O5    A    
C63   C71   A    
C36   C44   A    
C175  C183  A    
C138  O38   A    
C176  C184  A    
O7    Zn7   S    
C48   C96   A    
C138  O48   A    
C139  O45   A    
C106  H18   S    
C133  O33   A    
C149  Cl8   S    
O48   Zn9   S    
C148  C162  A    
C101  H13   S    
C183  C188  A    
C66   Cl14  S    
C108  C116  A    
C21   C93   A    
C78   C94   A    
C3    O27   A    
C9    C165  A    
O25   Zn6   S    
C89   O13   A    
O27   Zn8   S    
C49   C97   A    
C21   C42   A    
C40   C115  A    
C51   C107  A    
C122  H34   S    
O33   Zn11  S    
O32   Zn3   S    
O34   Zn12  S    
O41   Zn11  S    
O42   Zn12  S    
C82   C122  A    
C161  C165  A    
C17   C175  A    
C18   C176  A    
O1    Zn1   S    
C85   O17   A    
C29   C125  A    
C114  H26   S    
C69   C77   A    
C31   C127  A    
C108  H20   S    
C45   C93   A    
C174  C182  A    
C71   C79   A    
C92   O16   A    
C179  C186  A    
C67   Cl15  S    
C87   O19   A    
C30   C38   A    
C11   C176  A    
C91   O23   A    
C156  Cl1   S    
C17   C144  A    
C105  C113  A    
O35   Zn12  S    
C78   C118  A    
O43   Zn12  S    
C36   C132  A    
C25   C38   A    
O30   Zn1   S    
O45   Zn9   S    
C66   C74   A    
C8    C76   S    
C49   C57   A    
C124  C132  A    
O14   Zn1   S    
C20   H12   S    
C52   C60   A    
C59   C67   A    
C53   C61   A    
C141  C159  A    
C20   C174  A    
C124  H36   S    
C23   C95   A    
C55   C63   A    
C86   C181  S    
C56   C64   A    
C7    O31   A    
C35   C43   A    
C10   C166  A    
C90   O22   A    
C45   C53   A    
C22   C94   A    
C171  C179  A    
C169  C177  A    
C8    O8    A    
C50   C98   A    
C155  Cl2   S    
C104  C112  A    
O19   Zn3   S    
C145  C163  A    
C146  C164  A    
C14   C147  A    
C52   C100  A    
O31   Zn4   S    
C16   C145  A    
C135  O41   A    
C178  C186  A    
C18   H10   S    
O40   Zn9   S    
C54   C139  S    
C46   C94   A    
C27   C40   A    
C128  H40   S    
C91   C180  S    
C6    O30   A    
C182  C188  A    
C89   C178  S    
C17   H9    S    
C28   C36   A    
C25   C97   A    
C67   C75   A    
C131  H43   S    
C24   C43   A    
C137  O47   A    
C22   C30   A    
C20   C141  A    
C68   Cl16  S    
C15   C146  A    
C185  H1    S    
C58   C135  S    
C68   C76   A    
C59   C134  S    
C19   H11   S    
C150  Cl7   S    
C184  C187  A    
C136  O36   A    
C32   C128  A    
C72   C80   A    
C56   C137  S    
C5    C73   S    
C13   C171  A    
C83   C99   A    
C117  C125  A    
C25   C33   A    
C119  C127  A    
C11   C167  A    
C134  O34   A    
C133  O43   A    
O4    Zn4   S    
O5    Zn5   S    
C157  C167  A    
C80   C120  A    
C158  C168  A    
O17   Zn1   S    
O26   Zn5   S    
C164  C165  A    
C22   C41   A    
C64   Cl12  S    
C130  H42   S    
C101  C109  A    
O23   Zn7   S    
C177  C185  A    
O24   Zn8   S    
C103  C111  A    
C162  C166  A    
O44   Zn11  S    
C2    O2    A    
O2    Zn2   S    
C79   C119  A    
C118  H30   S    
C153  C155  A    
C154  C156  A    
C15   H7    S    
C172  C180  A    
C173  C181  A    
C157  C159  A    
C13   H5    S    
C158  C160  A    
C110  H22   S    
C74   C82   A    
C125  H37   S    
C6    C74   S    
C1    O25   A    
C153  Cl4   S    
O46   Zn10  S    
C91   O15   A    
C154  Cl3   S    
C47   C103  A    
C50   C58   A    
O8    Zn8   S    
C163  C166  A    
C147  C161  A    
C38   C113  A    
C49   C105  A    
C54   C62   A    
C28   C39   A    
C1    C69   S    
C23   C44   A    
C62   Cl10  S    
C3    C71   S    
C19   C173  A    
C79   C95   A    
C16   H8    S    
C92   C179  S    
C120  H32   S    
O47   Zn10  S    
C46   C54   A    
C85   O9    A    
O36   Zn11  S    
C45   C101  A    
C127  H39   S    
C92   O24   A    
C19   C142  A    
C102  C110  A    
C35   C131  A    
C4    C72   S    
C33   C129  A    
C18   C143  A    
C123  C131  A    
C136  O42   A    
C121  C129  A    
C88   O12   A    
C120  C128  A    
C26   C37   A    
C105  H17   S    
C10   C170  A    
C188  H4    S    
C33   C41   A    
C142  C150  A    
C149  C151  A    
C102  H14   S    
C75   C83   A    
C123  H35   S    
C90   O14   A    
C77   C93   A    
C111  H23   S    
C44   C111  A    
C16   C170  A    
C60   C68   A    
C144  C152  A    
C39   C116  A    
C29   C37   A    
C50   C106  A    
C121  H33   S    
C9    C172  A    
C148  C156  A    
C83   C123  A    
C2    C70   S    
C60   C133  S    
O16   Zn3   S    
C86   O18   A    
C30   C126  A    
C63   Cl11  S    
C70   C78   A    
C53   C140  S    
C134  O44   A    
C113  H25   S    
C141  C149  A    
C46   C102  A    
C55   C138  S    
C106  C114  A    
C112  H24   S    
C77   C117  A    
O20   Zn4   S    
O21   Zn5   S    
C48   C104  A    
C129  H41   S    
C65   C73   A    
C159  C168  A    
C15   C169  A    
C160  C167  A    
C26   C34   A    
C57   C136  S    
O9    Zn6   S    
C80   C96   A    
O39   Zn10  S    
C187  H3    S    
O6    Zn6   S    
C145  C153  A    
C28   C100  A    
C32   C40   A    
C52   C108  A    
C89   O21   A    
C119  H31   S    
O18   Zn2   S    
C151  Cl6   S    
C132  H44   S    
C58   C66   A    
C143  C157  A    
C51   C99   A    
C11   C173  A    
C14   C172  A    
C87   C184  S    
C88   C183  S    
C7    C75   S    
C139  O39   A    
C140  O40   A    
C87   O11   A    
C107  C115  A    
C65   Cl13  S    
C26   C98   A    
C12   C175  A    
C2    O26   A    
C7    O7    A    
C41   C110  A    
C150  C152  A    
C51   C59   A    
C43   C112  A    
C144  C158  A    
C47   C55   A    
C61   C69   A    
C48   C56   A    
C142  C160  A    
C12   C168  A    
C84   C124  A    
O37   Zn9   S    
C81   C97   A    
C31   C39   A    
C64   C72   A    
C103  H15   S    
O28   Zn7   S    
C180  C185  A    
O29   Zn2   S    
C34   C130  A    
O12   Zn7   S    
O13   Zn2   S    
C47   C95   A    
C118  C126  A    
C13   C148  A    
C122  C130  A    
