data_mof_unit_41124.cif
_audit_creation_date              2013-03-05T16:00:44-0500
_audit_creation_method            fapswitch 2.2
_symmetry_space_group_name_H-M    P1
_symmetry_Int_Tables_number       1
_space_group_crystal_system       triclinic
_cell_length_a                    20.998434
_cell_length_b                    21.193101
_cell_length_c                    14.154828
_cell_angle_alpha                 89.93607
_cell_angle_beta                  89.385209
_cell_angle_gamma                 90.147868
_cell_volume                      6298.82118897

loop_
_atom_site_label
_atom_site_type_symbol
_atom_site_description
_atom_site_fract_x
_atom_site_fract_y
_atom_site_fract_z
_atom_type_partial_charge
O1    O     O_R   0.066090 0.433930 0.580280 -0.628488
O2    O     O_R   0.933910 0.566070 0.419720 -0.624961
O3    O     O_R   0.933910 0.566070 0.580280 -0.634668
O4    O     O_R   0.066090 0.433930 0.419720 -0.542086
O5    O     O_R   0.933910 0.433930 0.419720 -0.575215
O6    O     O_R   0.066090 0.566070 0.580280 -0.565644
O7    O     O_R   0.066090 0.566070 0.419720 -0.580688
O8    O     O_R   0.933910 0.433930 0.580280 -0.587360
O9    O     O_R   0.566090 0.933930 0.580280 -0.614755
O10   O     O_R   0.433910 0.066070 0.419720 -0.603653
O11   O     O_R   0.433910 0.066070 0.580280 -0.559700
O12   O     O_R   0.566090 0.933930 0.419720 -0.628758
O13   O     O_R   0.433910 0.933930 0.419720 -0.589503
O14   O     O_R   0.566090 0.066070 0.580280 -0.541342
O15   O     O_R   0.566090 0.066070 0.419720 -0.621591
O16   O     O_R   0.433910 0.933930 0.580280 -0.559071
C1    C     C_R   0.087153 0.413436 0.499753 0.924193
C2    C     C_R   0.913438 0.586571 0.500743 0.826361
C3    C     C_R   0.913642 0.413532 0.500332 0.943299
C4    C     C_R   0.085801 0.587089 0.499283 0.845323
C5    C     C_R   0.586837 0.913846 0.499896 0.854199
C6    C     C_R   0.418404 0.091353 0.500190 0.916396
C7    C     C_R   0.413188 0.913995 0.500295 0.946121
C8    C     C_R   0.588245 0.084613 0.499305 0.914639
Zn1   Zn    Zn3+2 0.000000 0.500000 0.607200 1.002968
Zn2   Zn    Zn3+2 0.000000 0.500000 0.392800 1.025756
Zn3   Zn    Zn3+2 0.500000 0.000000 0.607200 1.049904
Zn4   Zn    Zn3+2 0.500000 0.000000 0.392800 1.000369
C9    C     C_R   0.116906 0.695867 0.463733 0.377816
C10   C     C_R   0.883666 0.305140 0.475018 0.351413
C11   C     C_R   0.882547 0.694748 0.541832 0.383224
C12   C     C_R   0.147976 0.327630 0.575815 0.369675
C13   C     C_R   0.621878 0.191485 0.527449 0.363005
C14   C     C_R   0.381221 0.805303 0.515646 0.356440
C15   C     C_R   0.371488 0.185924 0.418520 0.367303
C16   C     C_R   0.617752 0.803230 0.490743 0.397626
C17   C     C_R   0.133984 0.634875 0.494587 -0.277118
C18   C     C_R   0.865287 0.366118 0.499786 -0.220202
C19   C     C_R   0.865572 0.634931 0.505754 -0.298307
C20   C     C_R   0.140360 0.369753 0.499677 -0.281576
C21   C     C_R   0.637425 0.131350 0.495454 -0.233362
C22   C     C_R   0.363873 0.867585 0.499318 -0.237417
C23   C     C_R   0.383667 0.151314 0.501898 -0.236881
C24   C     C_R   0.635745 0.866691 0.501786 -0.306020
C25   C     C_R   0.197942 0.617417 0.507703 0.431110
C26   C     C_R   0.801282 0.382966 0.513873 0.361733
C27   C     C_R   0.801423 0.618548 0.490439 0.372167
C28   C     C_R   0.187658 0.376029 0.429529 0.422041
C29   C     C_R   0.696719 0.117762 0.452177 0.368268
C30   C     C_R   0.302595 0.884431 0.469558 0.379677
C31   C     C_R   0.364372 0.176300 0.589292 0.419209
C32   C     C_R   0.697747 0.883874 0.530140 0.390864
C33   C     C_R   0.245730 0.662403 0.491160 -0.096457
C34   C     C_R   0.754168 0.337764 0.497678 -0.089657
C35   C     C_R   0.753989 0.662185 0.513742 -0.085998
C36   C     C_R   0.239103 0.333753 0.427843 -0.141933
C37   C     C_R   0.742527 0.165848 0.445296 -0.095760
C38   C     C_R   0.258172 0.836404 0.452264 -0.098711
C39   C     C_R   0.313664 0.218785 0.591629 -0.151018
C40   C     C_R   0.743150 0.836433 0.544768 -0.079526
C41   C     C_R   0.228422 0.725471 0.469561 -0.185805
C42   C     C_R   0.772155 0.275318 0.474241 -0.151219
C43   C     C_R   0.771446 0.725056 0.534911 -0.186627
C44   C     C_R   0.249376 0.295635 0.508533 -0.151067
C45   C     C_R   0.725817 0.227672 0.474132 -0.153274
C46   C     C_R   0.275116 0.772893 0.470407 -0.145291
C47   C     C_R   0.299869 0.252817 0.508663 -0.143061
C48   C     C_R   0.725031 0.772541 0.532928 -0.188817
C49   C     C_R   0.164327 0.741827 0.451997 -0.088631
C50   C     C_R   0.836657 0.259889 0.455391 -0.148619
C51   C     C_R   0.835400 0.740809 0.553878 -0.086500
C52   C     C_R   0.206450 0.296799 0.586554 -0.081092
C53   C     C_R   0.663442 0.241586 0.507126 -0.165292
C54   C     C_R   0.338356 0.756954 0.493326 -0.157335
C55   C     C_R   0.334251 0.240909 0.424079 -0.091834
C56   C     C_R   0.661179 0.756028 0.513676 -0.098364
C57   C     C_R   0.311035 0.645826 0.493513 0.488422
C58   C     C_R   0.688892 0.353203 0.505404 0.481021
C59   C     C_R   0.688911 0.645081 0.514989 0.439553
C60   C     C_R   0.279274 0.327959 0.347229 0.421794
C61   C     C_R   0.804441 0.154204 0.408490 0.475609
C62   C     C_R   0.196733 0.850148 0.418403 0.442966
C63   C     C_R   0.274645 0.224083 0.672929 0.405160
C64   C     C_R   0.805841 0.850973 0.574050 0.441545
C65   C     C_R   0.851647 0.200438 0.415599 0.411192
C66   C     C_R   0.149471 0.803738 0.421071 0.457890
C67   C     C_R   0.220860 0.263077 0.670419 0.494229
C68   C     C_R   0.850528 0.802669 0.584201 0.456669
C69   C     C_R   0.357220 0.693121 0.490739 0.374958
C70   C     C_R   0.643873 0.305206 0.514805 0.401825
C71   C     C_R   0.642570 0.691937 0.516692 0.438494
C72   C     C_R   0.327127 0.281696 0.345664 0.486622
C73   C     C_R   0.944820 0.487498 0.798675 0.547213
C74   C     C_R   0.048770 0.528454 0.199713 0.557479
C75   C     C_R   0.054439 0.515479 0.797038 0.528595
C76   C     C_R   0.950205 0.473441 0.201164 0.522594
C77   C     C_R   0.444328 0.988310 0.798362 0.530957
C78   C     C_R   0.550922 0.024520 0.199879 0.535304
C79   C     C_R   0.555472 0.010172 0.797424 0.557279
C80   C     C_R   0.448639 0.976409 0.201480 0.557785
N1    N     N_R   1.000000 0.500000 0.750030 -0.198976
N2    N     N_R   1.000000 0.500000 0.249970 -0.200114
N3    N     N_R   0.500000 0.000000 0.750030 -0.189890
N4    N     N_R   0.500000 0.000000 0.249970 -0.200787
C81   C     C_R   0.053883 0.521388 0.897335 -0.240586
C82   C     C_R   0.946370 0.478612 0.100709 -0.232533
C83   C     C_R   0.944941 0.481829 0.899045 -0.240175
C84   C     C_R   0.052461 0.524239 0.099040 -0.234372
C85   C     C_R   0.555014 0.017159 0.897590 -0.244090
C86   C     C_R   0.445022 0.982061 0.101120 -0.236293
C87   C     C_R   0.443933 0.983834 0.899152 -0.245401
C88   C     C_R   0.554120 0.019894 0.099233 -0.236067
C89   C     C_R   0.999645 0.500947 0.948655 -0.120690
C90   C     C_R   0.999652 0.500895 0.049443 -0.123116
C91   C     C_R   0.499298 0.001182 0.948820 -0.119096
C92   C     C_R   0.499436 0.001183 0.049692 -0.123036
C93   C     C_R   0.105722 0.547215 0.947385 0.421760
C94   C     C_R   0.890979 0.460954 0.050356 0.429759
C95   C     C_R   0.891581 0.459248 0.950863 0.421233
C96   C     C_R   0.106478 0.545524 0.046784 0.425411
C97   C     C_R   0.609237 0.037661 0.947687 0.422038
C98   C     C_R   0.389019 0.966937 0.050907 0.431100
C99   C     C_R   0.390068 0.962966 0.951620 0.428301
C100  C     C_R   0.610139 0.034930 0.047023 0.430970
O17   O     O_3   0.054321 0.712404 0.446889 -0.681127
H1    H     H_    0.027801 0.674938 0.434562 0.330168
O18   O     O_3   0.947872 0.291276 0.474193 -0.778520
H2    H     H_    0.953150 0.250182 0.506616 0.380001
O19   O     O_3   0.945231 0.711047 0.558304 -0.675393
H3    H     H_    0.969447 0.673842 0.579357 0.335013
O20   O     O_3   0.098661 0.314736 0.638533 -0.708393
H4    H     H_    0.057594 0.319719 0.605540 0.352264
O21   O     O_3   0.565122 0.199720 0.576126 -0.736529
H5    H     H_    0.573336 0.229280 0.628849 0.369411
O22   O     O_3   0.439582 0.793669 0.556015 -0.729429
H6    H     H_    0.434259 0.757734 0.600226 0.354335
O23   O     O_3   0.392971 0.165541 0.331489 -0.692654
H7    H     H_    0.439678 0.160235 0.336349 0.324219
O24   O     O_3   0.558629 0.785732 0.456967 -0.707589
H8    H     H_    0.538108 0.821375 0.424288 0.338258
O25   O     O_3   0.215280 0.557578 0.537804 -0.718858
H9    H     H_    0.179504 0.527423 0.534087 0.330313
O26   O     O_3   0.783401 0.441617 0.547785 -0.718071
H10   H     H_    0.820712 0.465981 0.568947 0.347930
O27   O     O_3   0.783410 0.561430 0.451303 -0.724223
H11   H     H_    0.820327 0.539820 0.422317 0.348210
O28   O     O_3   0.183256 0.424787 0.365360 -0.699169
H12   H     H_    0.225057 0.446574 0.364631 0.336058
O29   O     O_3   0.712532 0.057755 0.421439 -0.673214
H13   H     H_    0.674186 0.031886 0.411043 0.357356
O30   O     O_3   0.284137 0.946987 0.461737 -0.693354
H14   H     H_    0.315010 0.975133 0.493175 0.324421
O31   O     O_3   0.396083 0.159601 0.670362 -0.735258
H15   H     H_    0.397814 0.197273 0.711652 0.339026
O32   O     O_3   0.715795 0.946287 0.541210 -0.684061
H16   H     H_    0.678340 0.973864 0.548729 0.335711
O33   O     O_3   0.330797 0.583970 0.504390 -0.520116
C101  C     C_3   0.331913 0.554028 0.415348 -0.224465
H17   H     H_    0.287485 0.561784 0.374630 0.143592
H18   H     H_    0.336408 0.502489 0.426926 0.174521
H19   H     H_    0.373975 0.569454 0.373225 0.145378
O34   O     O_3   0.667719 0.414971 0.505404 -0.547843
C102  C     C_3   0.670882 0.438433 0.411863 -0.131528
H20   H     H_    0.651514 0.404662 0.359170 0.060910
H21   H     H_    0.720549 0.450995 0.391610 0.211124
H22   H     H_    0.641817 0.481915 0.407811 0.220540
O35   O     O_3   0.668979 0.582798 0.514465 -0.550145
C103  C     C_3   0.676943 0.556839 0.605578 -0.100646
H23   H     H_    0.664729 0.590035 0.663773 0.052819
H24   H     H_    0.726483 0.540579 0.614597 0.202571
H25   H     H_    0.645064 0.515349 0.613290 0.226541
O36   O     O_3   0.264052 0.359161 0.264221 -0.547863
C104  C     C_3   0.311902 0.403510 0.239994 -0.293234
H26   H     H_    0.344853 0.383227 0.186443 0.209943
H27   H     H_    0.338746 0.421879 0.301698 0.096912
H28   H     H_    0.289038 0.444661 0.206673 0.158422
O37   O     O_3   0.821630 0.095934 0.372456 -0.495306
C105  C     C_3   0.807087 0.094447 0.275315 -0.139286
H29   H     H_    0.755405 0.101809 0.262736 0.178591
H30   H     H_    0.819927 0.047270 0.247393 0.183702
H31   H     H_    0.835151 0.129815 0.234643 0.106355
O38   O     O_3   0.180557 0.909594 0.386176 -0.515555
C106  C     C_3   0.203740 0.916671 0.292610 -0.176160
H32   H     H_    0.256064 0.924446 0.291160 0.225444
H33   H     H_    0.180956 0.958790 0.261217 0.180405
H34   H     H_    0.192143 0.875548 0.246962 0.085998
O39   O     O_3   0.280712 0.180110 0.745133 -0.577999
C107  C     C_3   0.298313 0.209453 0.830571 -0.273298
H35   H     H_    0.256683 0.210529 0.879389 0.212684
H36   H     H_    0.318896 0.257736 0.821794 0.116060
H37   H     H_    0.335086 0.180031 0.864867 0.169720
O40   O     O_3   0.825890 0.912916 0.584379 -0.493912
C108  C     C_3   0.823326 0.930590 0.680582 -0.127186
H38   H     H_    0.871830 0.928695 0.710700 0.171364
H39   H     H_    0.789909 0.901750 0.724824 0.055600
H40   H     H_    0.807238 0.980330 0.685041 0.203589
O41   O     O_3   0.912583 0.185224 0.384891 -0.555054
C109  C     C_3   0.925344 0.213061 0.295745 -0.236004
H41   H     H_    0.883043 0.233659 0.260014 0.085234
H42   H     H_    0.945523 0.176476 0.248187 0.184154
H43   H     H_    0.962139 0.250200 0.303475 0.204176
O42   O     O_3   0.087635 0.821273 0.400453 -0.485800
C110  C     C_3   0.075966 0.811855 0.303285 -0.154910
H44   H     H_    0.106012 0.774560 0.269746 0.072664
H45   H     H_    0.082163 0.857014 0.264606 0.157468
H46   H     H_    0.025569 0.797193 0.295135 0.196691
O43   O     O_3   0.180250 0.263708 0.748221 -0.523336
C111  C     C_3   0.188727 0.320334 0.799666 -0.250675
H47   H     H_    0.141379 0.336994 0.824355 0.201644
H48   H     H_    0.212048 0.359262 0.758961 0.100351
H49   H     H_    0.217253 0.311344 0.863591 0.142157
O44   O     O_3   0.910185 0.818218 0.617905 -0.491633
C112  C     C_3   0.913523 0.799402 0.713656 -0.233429
H50   H     H_    0.959334 0.816268 0.742780 0.196388
H51   H     H_    0.912268 0.747222 0.721317 0.158105
H52   H     H_    0.874511 0.820080 0.757304 0.084630
O45   O     O_3   0.420571 0.675581 0.484287 -0.574008
C113  C     C_3   0.443231 0.688918 0.391966 -0.134415
H53   H     H_    0.411230 0.669960 0.336529 0.067161
H54   H     H_    0.490328 0.666198 0.382134 0.229460
H55   H     H_    0.449681 0.740424 0.380992 0.178343
O46   O     O_3   0.581361 0.321781 0.534513 -0.566983
C114  C     C_3   0.545245 0.317571 0.451306 -0.245886
H56   H     H_    0.556177 0.357596 0.403243 0.146910
H57   H     H_    0.494087 0.320773 0.471060 0.185615
H58   H     H_    0.552178 0.272042 0.413461 0.137743
O47   O     O_3   0.579241 0.673632 0.519496 -0.529461
C115  C     C_3   0.555050 0.683389 0.611868 -0.144439
H59   H     H_    0.550445 0.734461 0.628057 0.174704
H60   H     H_    0.584753 0.660539 0.666485 0.080302
H61   H     H_    0.507004 0.661857 0.617237 0.217745
O48   O     O_3   0.363003 0.274154 0.263760 -0.528519
C116  C     C_3   0.424404 0.299962 0.277555 -0.344726
H62   H     H_    0.453920 0.268639 0.321619 0.159451
H63   H     H_    0.423079 0.347716 0.310092 0.117089
H64   H     H_    0.448549 0.304467 0.207794 0.188473
O49   O     O_3   0.888922 0.483105 0.748694 -0.541643
C117  C     C_3   0.856503 0.541303 0.756756 -0.212046
H65   H     H_    0.819378 0.543280 0.702018 0.163522
H66   H     H_    0.888376 0.582840 0.745449 0.125847
H67   H     H_    0.832368 0.545629 0.826612 0.161935
O50   O     O_3   0.093847 0.562999 0.247193 -0.531466
C118  C     C_3   0.077442 0.627551 0.240088 -0.194619
H68   H     H_    0.114188 0.655726 0.276636 0.177217
H69   H     H_    0.030497 0.637067 0.274309 0.140487
H70   H     H_    0.076480 0.644383 0.165690 0.137433
O51   O     O_3   0.109107 0.527464 0.745022 -0.533477
C119  C     C_3   0.148237 0.473570 0.748360 -0.193587
H71   H     H_    0.187116 0.478863 0.695342 0.198596
H72   H     H_    0.121588 0.429800 0.731308 0.164312
H73   H     H_    0.170544 0.468217 0.818681 0.152949
O52   O     O_3   0.902865 0.441968 0.250183 -0.551660
C120  C     C_3   0.914477 0.376470 0.242457 -0.176638
H74   H     H_    0.876462 0.351014 0.281959 0.172966
H75   H     H_    0.961067 0.363717 0.273958 0.160096
H76   H     H_    0.913028 0.359675 0.168125 0.136398
O53   O     O_3   0.389560 0.977954 0.747065 -0.580634
C121  C     C_3   0.348709 0.030909 0.753565 -0.040733
H77   H     H_    0.335393 0.045735 0.681363 0.195478
H78   H     H_    0.368983 0.072439 0.791256 0.147016
H79   H     H_    0.303640 0.017268 0.789632 0.190923
O54   O     O_3   0.599338 0.054167 0.247823 -0.547744
C122  C     C_3   0.591009 0.120203 0.239141 -0.194070
H80   H     H_    0.629261 0.144362 0.278703 0.161082
H81   H     H_    0.544582 0.135448 0.269918 0.130063
H82   H     H_    0.594696 0.136464 0.164603 0.146421
O55   O     O_3   0.611892 0.011457 0.746529 -0.540988
C123  C     C_3   0.643192 0.953182 0.760150 -0.236710
H83   H     H_    0.687430 0.953199 0.717385 0.200459
H84   H     H_    0.613440 0.912523 0.737618 0.143180
H85   H     H_    0.657510 0.945954 0.834686 0.147409
O56   O     O_3   0.400219 0.946473 0.250661 -0.531522
C124  C     C_3   0.408712 0.880478 0.241363 -0.220396
H86   H     H_    0.371070 0.856112 0.283271 0.165204
H87   H     H_    0.455639 0.865250 0.269269 0.132316
H88   H     H_    0.404033 0.864485 0.167006 0.143022
O57   O     O_3   0.157037 0.574116 0.900165 -0.570479
C125  C     C_3   0.144652 0.638958 0.887834 -0.181469
H89   H     H_    0.140226 0.663611 0.956986 0.143014
H90   H     H_    0.101132 0.646687 0.845120 0.149151
H91   H     H_    0.185329 0.660471 0.848774 0.187440
O58   O     O_3   0.835657 0.443335 0.097406 -0.572439
C126  C     C_3   0.798098 0.497645 0.111441 -0.208917
H92   H     H_    0.783492 0.518647 0.042911 0.148520
H93   H     H_    0.823324 0.533427 0.154902 0.154084
H94   H     H_    0.754144 0.483835 0.150510 0.178096
O59   O     O_3   0.838353 0.436491 0.905218 -0.572741
C127  C     C_3   0.845798 0.370978 0.892047 -0.185085
H95   H     H_    0.848603 0.345742 0.960895 0.145551
H96   H     H_    0.888457 0.360300 0.847532 0.155740
H97   H     H_    0.803498 0.352688 0.854500 0.184967
O60   O     O_3   0.159770 0.568514 0.091854 -0.577283
C128  C     C_3   0.203284 0.518678 0.102628 -0.203064
H98   H     H_    0.218814 0.499264 0.033082 0.153102
H99   H     H_    0.182894 0.480522 0.147952 0.194000
H100  H     H_    0.246157 0.537487 0.138088 0.162747
O61   O     O_3   0.663308 0.058512 0.900406 -0.571437
C129  C     C_3   0.657982 0.124170 0.886641 -0.197238
H101  H     H_    0.655451 0.149692 0.955287 0.142386
H102  H     H_    0.616005 0.135975 0.842640 0.158202
H103  H     H_    0.701103 0.141052 0.848261 0.184293
O62   O     O_3   0.332312 0.954577 0.097958 -0.584076
C130  C     C_3   0.298647 0.011833 0.106424 -0.192443
H104  H     H_    0.289143 0.033267 0.036097 0.154483
H105  H     H_    0.324537 0.045900 0.151995 0.184421
H106  H     H_    0.251874 0.002129 0.140320 0.166153
O63   O     O_3   0.337008 0.938964 0.907195 -0.582091
C131  C     C_3   0.344015 0.873011 0.899498 -0.209511
H107  H     H_    0.345905 0.850274 0.970351 0.145430
H108  H     H_    0.387013 0.860440 0.856870 0.153245
H109  H     H_    0.301940 0.853701 0.862536 0.187844
O64   O     O_3   0.666779 0.047851 0.092103 -0.576752
C132  C     C_3   0.700483 0.990765 0.101643 -0.214198
H110  H     H_    0.711321 0.969169 0.031630 0.145579
H111  H     H_    0.673954 0.956711 0.147382 0.158659
H112  H     H_    0.746544 0.000823 0.135961 0.171897

loop_
_geom_bond_atom_site_label_1
_geom_bond_atom_site_label_2
_geom_bond_distance
_ccdc_geom_bond_type
C79   N3    1.367167 A    
O33   C101  1.411726 S    
C76   N2    1.378667 A    
C84   C96   1.419777 A    
C114  H56   1.108796 S    
C14   C22   1.389963 A    
O27   H11   0.987150 S    
C114  H58   1.113292 S    
C130  H105  1.113304 S    
C110  H45   1.108742 S    
C57   C69   1.393132 A    
O58   C126  1.410000 S    
C107  H37   1.109332 S    
C102  H21   1.110279 S    
C94   O58   1.383123 S    
C38   C62   1.412055 A    
O6    Zn1   2.002302 S    
C72   O48   1.385440 S    
O26   H10   0.986640 S    
C80   N4    1.377719 A    
C124  H88   1.111375 S    
C42   C50   1.416806 A    
C122  H81   1.112388 S    
O38   C106  1.413818 S    
C83   C89   1.411499 A    
O56   C124  1.416510 S    
C66   O42   1.385510 S    
C131  H109  1.109201 S    
C82   C94   1.420226 A    
C8    C21   1.429677 S    
C21   C29   1.412185 A    
C115  H59   1.110856 S    
C119  H72   1.110234 S    
C9    C49   1.399639 A    
C112  H51   1.111263 S    
C117  H66   1.114820 S    
O42   C110  1.413924 S    
C127  H97   1.109263 S    
C122  H80   1.108642 S    
C73   N1    1.366679 A    
O10   C6    1.298014 A    
C60   C72   1.405748 A    
C106  H32   1.110546 S    
Zn4   N4    2.021735 S    
C105  H30   1.108397 S    
C130  H104  1.113940 S    
O11   Zn3   2.012952 S    
O2    Zn2   2.007899 S    
C77   N3    1.370037 A    
C13   C53   1.400385 A    
C103  H23   1.112186 S    
C123  H84   1.112056 S    
C101  H17   1.114291 S    
C16   C24   1.405407 A    
C129  H101  1.113437 S    
C60   O36   1.388307 S    
C17   C25   1.408127 A    
O36   C104  1.413363 S    
C86   C92   1.406696 A    
C19   C27   1.409286 A    
C20   C28   1.402802 A    
C10   O18   1.380530 S    
C98   O62   1.382411 S    
C64   C68   1.398805 A    
O24   H8    0.987636 S    
C88   C100  1.417842 A    
C25   O25   1.388120 S    
Zn2   N2    2.021735 S    
C85   C97   1.415449 A    
C51   C68   1.416298 A    
O44   C112  1.414865 S    
C74   N2    1.377925 A    
C108  H38   1.109151 S    
C68   O44   1.384380 S    
O32   H16   0.986006 S    
C109  H42   1.109332 S    
C59   O35   1.383755 S    
C115  H61   1.108039 S    
C86   C98   1.416799 A    
O52   C120  1.414133 S    
C9    O17   1.384089 S    
O28   H12   0.990693 S    
O9    C5    1.287243 A    
C105  H29   1.112992 S    
O15   Zn4   2.008554 S    
C10   C18   1.393780 A    
O7    Zn2   2.008554 S    
C81   C89   1.411202 A    
C53   C70   1.414499 A    
C120  H74   1.108344 S    
C132  H111  1.113318 S    
C91   C92   1.427858 A    
C46   C54   1.412109 A    
C29   C37   1.402139 A    
O64   C132  1.410291 S    
O13   C7    1.286833 A    
C107  H36   1.116059 S    
O53   C121  1.416797 S    
O14   C8    1.292747 A    
C32   C40   1.404076 A    
C39   C47   1.410579 A    
C33   C41   1.419873 A    
C30   O30   1.386848 S    
C103  H25   1.108320 S    
C73   O49   1.379970 S    
C35   C43   1.414293 A    
C36   C44   1.416967 A    
C15   C23   1.414860 A    
C116  H62   1.106051 S    
C59   C71   1.392167 A    
C118  H70   1.111890 S    
O16   Zn3   2.008557 S    
C11   C51   1.401385 A    
C25   C33   1.400098 A    
O49   C117  1.414454 S    
C126  H94   1.109346 S    
C131  H108  1.113635 S    
C104  H27   1.114582 S    
O8    C3    1.288073 A    
C78   C88   1.428981 A    
C106  H34   1.113504 S    
O45   C113  1.413909 S    
C127  H96   1.113519 S    
C128  H98   1.113282 S    
C5    C24   1.435266 S    
C78   O54   1.378899 S    
C113  H54   1.108564 S    
C6    C23   1.466949 S    
C108  H40   1.109440 S    
C22   C30   1.405094 A    
O15   C8    1.284987 A    
O37   C105  1.412086 S    
O16   C7    1.288534 A    
C47   C55   1.414722 A    
C88   C92   1.408228 A    
C52   C67   1.420721 A    
C113  H55   1.110138 S    
C95   O59   1.383006 S    
O19   H3    0.986861 S    
C43   C48   1.403219 A    
C31   O31   1.379202 S    
C120  H76   1.111806 S    
O55   C123  1.414502 S    
C114  H57   1.109390 S    
O54   C122  1.416221 S    
C48   C56   1.414260 A    
C62   O38   1.383807 S    
O1    C1    1.294136 A    
C36   C60   1.417351 A    
C121  H77   1.107826 S    
C61   O37   1.383935 S    
C11   O19   1.382256 S    
C4    C17   1.430685 S    
C124  H87   1.113969 S    
C37   C61   1.417731 A    
O41   C109  1.415047 S    
C16   O24   1.384977 S    
C18   C26   1.403746 A    
C56   C71   1.412862 A    
C126  H92   1.113218 S    
C125  H89   1.113182 S    
C50   C65   1.415496 A    
C12   O20   1.383255 S    
C61   C65   1.396474 A    
C75   N1    1.368214 A    
C63   C67   1.401912 A    
C27   O27   1.385248 S    
C80   C86   1.428340 A    
C115  H60   1.110090 S    
O22   H6    0.990510 S    
C12   C52   1.401999 A    
C112  H50   1.109112 S    
C58   C70   1.392146 A    
C32   O32   1.384527 S    
C117  H67   1.110266 S    
O12   Zn4   2.012952 S    
C39   C63   1.410229 A    
C128  H100  1.108876 S    
C77   C87   1.429643 A    
O2    C2    1.296297 A    
C118  H68   1.107444 S    
C79   C85   1.425635 A    
C28   O28   1.378962 S    
C15   O23   1.377661 S    
C84   C90   1.407812 A    
C101  H19   1.108736 S    
C111  H47   1.109027 S    
C125  H91   1.109242 S    
C97   O61   1.383033 S    
O30   H14   0.989391 S    
O13   Zn4   2.002305 S    
O14   Zn3   2.002302 S    
C103  H24   1.105350 S    
C101  H18   1.108741 S    
O8    Zn1   2.008557 S    
C81   C93   1.414489 A    
C129  H102  1.113577 S    
C83   C95   1.414663 A    
C10   C50   1.404583 A    
C130  H106  1.107125 S    
C110  H46   1.109404 S    
C87   C99   1.416041 A    
O63   C131  1.410053 S    
C30   C38   1.402355 A    
O3    Zn1   2.012952 S    
C102  H22   1.108381 S    
C93   C96   1.407646 A    
O35   C103  1.413314 S    
C34   C42   1.416000 A    
C62   C66   1.395646 A    
O43   C111  1.416259 S    
C1    C20   1.452807 S    
C33   C57   1.417198 A    
C2    C19   1.438611 S    
C3    C18   1.426781 S    
C35   C59   1.412828 A    
O59   C127  1.409969 S    
C79   O55   1.380133 S    
C26   C34   1.396232 A    
O50   C118  1.415354 S    
C14   C54   1.400706 A    
O4    C1    1.295487 A    
C65   O41   1.385880 S    
O17   H1    0.985463 S    
C76   O52   1.376682 S    
O18   H2    0.991014 S    
C119  H71   1.108362 S    
O9    Zn3   2.007900 S    
O34   C102  1.414656 S    
C80   O56   1.378900 S    
C112  H52   1.111953 S    
O10   Zn4   2.007899 S    
C117  H65   1.105840 S    
C71   O47   1.384440 S    
C37   C45   1.416660 A    
O4    Zn2   2.012952 S    
O5    C3    1.287445 A    
O6    C4    1.293034 A    
C13   C21   1.391447 A    
O39   C107  1.412781 S    
O29   H13   0.985395 S    
O40   C108  1.413223 S    
Zn1   N1    2.021734 S    
C132  H110  1.113607 S    
C14   O22   1.380363 S    
C23   C31   1.402366 A    
C111  H49   1.107112 S    
Zn3   N3    2.021734 S    
O48   C116  1.414789 S    
C100  O64   1.382636 S    
C105  H31   1.109068 S    
O5    Zn2   2.002305 S    
C123  H83   1.103291 S    
C40   C48   1.416177 A    
O7    C4    1.283841 A    
C9    C17   1.412320 A    
C129  H103  1.109216 S    
C34   C58   1.413150 A    
C122  H82   1.111416 S    
C110  H44   1.115858 S    
C126  H93   1.113582 S    
O61   C129  1.409763 S    
C102  H20   1.113626 S    
C77   O53   1.383820 S    
C104  H26   1.108666 S    
C74   C84   1.429189 A    
C7    C22   1.426562 S    
C82   C90   1.407305 A    
C54   C69   1.411008 A    
O60   C128  1.407577 S    
C70   O46   1.385275 S    
C106  H33   1.108609 S    
C45   C53   1.417670 A    
O3    C2    1.285040 A    
C99   O63   1.381443 S    
C94   C95   1.408735 A    
C97   C100  1.407540 A    
C93   O57   1.383246 S    
C75   C81   1.425269 A    
C89   C90   1.426631 A    
C41   C46   1.402418 A    
C38   C46   1.417023 A    
O47   C115  1.413250 S    
C108  H39   1.116066 S    
C109  H41   1.116472 S    
C16   C56   1.395699 A    
C119  H73   1.110447 S    
C75   O51   1.379961 S    
C12   C20   1.409357 A    
O31   H15   0.990794 S    
O1    Zn1   2.007900 S    
C63   O39   1.389437 S    
C116  H64   1.109063 S    
C44   C47   1.397368 A    
C120  H75   1.113302 S    
C132  H112  1.107319 S    
C118  H69   1.112675 S    
O12   C5    1.292051 A    
C107  H35   1.108758 S    
C121  H78   1.115575 S    
C123  H85   1.110702 S    
C109  H43   1.107853 S    
C124  H86   1.109263 S    
C116  H63   1.112672 S    
C67   O43   1.385666 S    
C55   C72   1.415501 A    
C58   O34   1.383577 S    
C125  H90   1.113525 S    
C121  H79   1.108042 S    
C31   C39   1.396377 A    
C131  H107  1.113311 S    
C27   C35   1.398031 A    
C104  H28   1.104387 S    
C41   C49   1.415197 A    
C28   C36   1.405281 A    
C76   C82   1.429168 A    
O62   C130  1.410464 S    
C42   C45   1.400501 A    
C15   C55   1.406807 A    
C43   C51   1.411610 A    
O51   C119  1.409799 S    
C26   O26   1.384303 S    
O23   H7    0.990607 S    
O11   C6    1.298381 A    
C29   O29   1.384640 S    
C127  H95   1.113301 S    
C74   O50   1.376528 S    
C128  H99   1.113538 S    
O25   H9    0.986919 S    
C73   C83   1.425685 A    
C40   C64   1.417589 A    
C24   C32   1.413459 A    
C113  H53   1.113272 S    
O21   H5    0.991174 S    
C78   N4    1.377026 A    
C11   C19   1.413490 A    
C64   O40   1.385966 S    
C44   C52   1.418292 A    
O46   C114  1.410431 S    
C85   C91   1.410132 A    
C69   O45   1.384252 S    
C13   O21   1.381767 S    
C111  H48   1.114997 S    
C96   O60   1.381987 S    
C87   C91   1.413133 A    
C98   C99   1.407934 A    
O57   C125  1.410251 S    
C49   C66   1.419238 A    
O20   H4    0.990911 S    
C57   O33   1.384952 S    
