data_mof_unit_35823.cif
_audit_creation_date              2012-12-10T18:04:30-0500
_audit_creation_method            fapswitch 2.2
_symmetry_space_group_name_H-M    P1
_symmetry_Int_Tables_number       1
_space_group_crystal_system       triclinic
_cell_length_a                    10.906128
_cell_length_b                    9.603073
_cell_length_c                    9.091022
_cell_angle_alpha                 90.000012
_cell_angle_beta                  92.050691
_cell_angle_gamma                 89.999904
_cell_volume                      951.514258484

loop_
_atom_site_label
_atom_site_type_symbol
_atom_type_description
_atom_site_fract_x
_atom_site_fract_y
_atom_site_fract_z
_atom_type_partial_charge
C1    C     C_R   0.262807 0.500447 0.510754 0.779018
C2    C     C_R   0.063306 0.630235 0.513689 -0.073122
C3    C     C_R   0.871881 0.502717 0.479953 -0.145943
C4    C     C_R   0.128119 0.502718 0.520046 -0.145944
C5    C     C_R   0.427976 0.075845 0.399860 0.409630
C6    C     C_R   0.566835 0.925899 0.604890 0.406390
C7    C     C_R   0.572024 0.075844 0.600140 0.409630
C8    C     C_R   0.433165 0.925899 0.395110 0.406392
C9    C     C_1   0.114919 0.252702 0.586046 0.245631
C10   C     C_1   0.877031 0.761019 0.448957 0.304445
C11   C     C_1   0.885082 0.252701 0.413956 0.245631
C12   C     C_R   0.737193 0.500447 0.489245 0.779019
C13   C     C_1   0.122967 0.761020 0.551036 0.304448
C14   C     C_3   0.235709 0.113000 0.286907 -0.197252
C15   C     C_3   0.575382 0.871237 0.848265 -0.284409
C16   C     C_3   0.764292 0.112997 0.713092 -0.197252
C17   C     C_3   0.424618 0.871237 0.151735 -0.284408
C18   C     C_R   0.499706 0.499981 0.220815 0.840409
C19   C     C_R   0.500293 0.499981 0.779184 0.840408
C20   C     C_1   0.499912 0.499904 0.065555 -0.184217
C21   C     C_1   0.500088 0.499904 0.934445 -0.184218
C22   C     C_R   0.062136 0.376895 0.519790 -0.077583
C23   C     C_R   0.936694 0.630234 0.486308 -0.073121
C24   C     C_R   0.937865 0.376895 0.480211 -0.077583
Cu1   Cu    Cu3+1 0.500000 0.640660 0.500000 1.033405
Cu2   Cu    Cu3+1 0.500000 0.359340 0.500000 1.053727
H1    H     H_    0.178959 0.208691 0.278589 0.166628
H2    H     H_    0.385710 0.793364 0.073020 0.177331
H3    H     H_    0.406482 0.975598 0.103614 0.178104
H4    H     H_    0.525592 0.853833 0.161786 0.155527
H5    H     H_    0.205125 0.052711 0.382963 0.177941
H6    H     H_    0.216215 0.052020 0.185199 0.176161
H7    H     H_    0.614290 0.793364 0.926980 0.177332
H8    H     H_    0.593518 0.975598 0.896386 0.178104
H9    H     H_    0.474409 0.853833 0.838214 0.155527
H10   H     H_    0.821042 0.208688 0.721407 0.166629
H11   H     H_    0.794874 0.052705 0.617038 0.177941
H12   H     H_    0.783786 0.052020 0.814802 0.176160
N1    N     N_R   0.500000 0.852070 0.500000 -0.264102
N2    N     N_R   0.500000 0.147930 0.500000 -0.263442
N3    N     N_1   0.157138 0.155266 0.642767 -0.277551
N4    N     N_1   0.828809 0.864346 0.417002 -0.285795
N5    N     N_1   0.842863 0.155265 0.357236 -0.277550
N6    N     N_1   0.171189 0.864348 0.582989 -0.285795
O1    O     O_R   0.319640 0.618740 0.499990 -0.548408
O2    O     O_3   0.632614 0.853550 0.712600 -0.538012
O3    O     O_3   0.639324 0.152445 0.704471 -0.549650
O4    O     O_3   0.367386 0.853551 0.287400 -0.538012
O5    O     O_R   0.680360 0.381260 0.500010 -0.551785
O6    O     O_R   0.680360 0.618740 0.500010 -0.548408
O7    O     O_R   0.319640 0.381260 0.499990 -0.551786
O8    O     O_R   0.500000 0.618760 0.288390 -0.558691
O9    O     O_R   0.500000 0.381240 0.711610 -0.524596
O10   O     O_R   0.500000 0.618760 0.711610 -0.558690
O11   O     O_R   0.500000 0.381240 0.288390 -0.524596
O12   O     O_3   0.360677 0.152445 0.295528 -0.549650

loop_
_geom_bond_atom_site_label_1
_geom_bond_atom_site_label_2
_ccdc_geom_bond_type
C5    C8    A    
C14   O12   S    
C7    N2    A    
C8    O4    S    
C11   N5    T    
C6    C7    A    
C8    N1    A    
C10   C23   S    
C10   N4    T    
C17   H3    S    
C14   H5    S    
C15   H8    S    
C12   O6    A    
C17   O4    S    
C16   H11   S    
C1    C4    S    
Cu2   N2    S    
Cu2   O11   S    
C19   O9    A    
C12   O5    A    
Cu1   Cu2   S    
Cu1   O8    S    
C18   O8    A    
Cu2   O7    S    
C16   H10   S    
C17   H4    S    
C1    O7    A    
C1    O1    A    
C3    C24   A    
C18   O11   A    
C2    C4    A    
C16   O3    S    
C15   H9    S    
C3    C23   A    
C19   C21   S    
C18   C20   S    
C6    O2    S    
C14   H1    S    
C22   C24   A    
C9    C22   S    
C5    N2    A    
Cu2   O9    S    
Cu1   O1    S    
C11   C24   S    
C4    C22   A    
Cu1   O10   S    
C19   O10   A    
Cu2   O5    S    
C14   H6    S    
C2    C23   A    
C2    C13   S    
Cu1   O6    S    
C3    C12   S    
C5    O12   S    
C15   O2    S    
C20   C21   T    
C6    N1    A    
C17   H2    S    
C9    N3    T    
C15   H7    S    
C13   N6    T    
Cu1   N1    S    
C16   H12   S    
C7    O3    S    
