data_mof_unit_15319.cif
_audit_creation_date              2012-12-10T17:51:28-0500
_audit_creation_method            fapswitch 2.2
_symmetry_space_group_name_H-M    P1
_symmetry_Int_Tables_number       1
_space_group_crystal_system       triclinic
_cell_length_a                    14.761371
_cell_length_b                    14.824773
_cell_length_c                    17.358123
_cell_angle_alpha                 106.353169
_cell_angle_beta                  72.631208
_cell_angle_gamma                 115.481576
_cell_volume                      3220.57997295

loop_
_atom_site_label
_atom_site_type_symbol
_atom_type_description
_atom_site_fract_x
_atom_site_fract_y
_atom_site_fract_z
_atom_type_partial_charge
C1    C     C_R   0.118859 0.687299 0.508517 0.792863
C2    C     C_R   0.716778 0.172218 0.474165 -0.268357
C3    C     C_R   0.363818 0.915597 0.485642 0.092497
C4    C     C_R   0.643416 0.073785 0.481488 0.090043
C5    C     C_R   0.334785 0.979196 0.458873 0.144979
C6    C     C_R   0.672594 0.006470 0.503356 0.143777
C7    C     C_R   0.468413 0.944203 0.487818 0.068351
C8    C     C_R   0.540950 0.041615 0.471281 0.068992
C9    C     C_R   0.508085 0.103484 0.445976 -0.219953
C10   C     C_R   0.503179 0.877479 0.504058 -0.222975
C11   C     C_R   0.407268 0.072010 0.439023 -0.226816
C12   C     C_R   0.881113 0.312477 0.490235 0.793635
C13   C     C_R   0.603310 0.908360 0.511710 -0.229659
C14   C     C_R   0.300846 0.333765 0.359884 -0.352804
C15   C     C_R   0.700303 0.667789 0.638771 -0.356127
C16   C     C_R   0.989751 0.503986 0.652268 0.784158
C17   C     C_R   0.010595 0.496560 0.347726 0.788437
C18   C     C_R   0.217898 0.363365 0.379289 0.196278
C19   C     C_R   0.780552 0.634778 0.621894 0.202792
C20   C     C_R   0.284322 0.488500 0.490099 -0.009362
C21   C     C_R   0.718561 0.515183 0.507115 -0.007634
C22   C     C_R   0.374366 0.465318 0.468945 -0.021959
C23   C     C_R   0.186946 0.792421 0.498475 -0.099282
C24   C     C_R   0.629912 0.540248 0.526602 -0.025907
C25   C     C_R   0.378724 0.383818 0.403962 0.154701
C26   C     C_R   0.625172 0.621241 0.591969 0.149275
C27   C     C_R   0.459762 0.519227 0.509196 0.083933
C28   C     C_R   0.545656 0.487833 0.485038 0.083166
C29   C     C_R   0.543282 0.403799 0.421492 -0.239213
C30   C     C_R   0.462769 0.604069 0.572017 -0.243726
C31   C     C_R   0.461777 0.353548 0.381574 -0.206841
C32   C     C_R   0.543612 0.653451 0.612711 -0.210440
C33   C     C_R   0.983429 0.502828 0.736976 -0.002233
C34   C     C_R   0.813509 0.205381 0.492462 -0.097605
C35   C     C_R   0.017657 0.498672 0.262999 -0.004697
C36   C     C_R   0.073884 0.536162 0.765264 -0.226070
C37   C     C_R   0.927833 0.470639 0.235289 -0.226073
C38   C     C_R   0.069405 0.526735 0.843686 -0.158187
C39   C     C_R   0.933615 0.480641 0.156742 -0.157659
C40   C     C_R   0.973950 0.484870 0.895110 0.193496
C41   C     C_R   0.029633 0.517721 0.104603 0.194952
C42   C     C_R   0.883526 0.451469 0.866458 -0.187061
C43   C     C_R   0.119463 0.545871 0.132551 -0.185344
C44   C     C_R   0.888180 0.460527 0.787635 -0.210359
C45   C     C_R   0.233634 0.948665 0.450707 -0.247413
C46   C     C_R   0.113562 0.536083 0.211464 -0.218384
C47   C     C_2   0.966126 0.471800 0.977822 -0.233568
C48   C     C_2   0.038433 0.531049 0.021817 -0.234834
C49   C     C_R   0.841394 0.671476 0.686115 0.163246
C50   C     C_R   0.932918 0.757432 0.683056 -0.125011
C51   C     C_R   0.985195 0.795358 0.747582 -0.175712
C52   C     C_R   0.944118 0.750342 0.817399 -0.103485
C53   C     C_R   0.850334 0.667923 0.822940 -0.126707
C54   C     C_R   0.799073 0.628547 0.757670 -0.158897
C55   C     C_R   0.148587 0.317085 0.320644 0.163394
C56   C     C_R   0.770039 0.038438 0.519556 -0.236118
C57   C     C_R   0.177608 0.354500 0.247378 -0.146015
C58   C     C_R   0.117331 0.306336 0.187816 -0.131721
C59   C     C_R   0.028901 0.219431 0.200196 -0.118419
C60   C     C_R   0.002308 0.178985 0.271060 -0.165390
C61   C     C_R   0.063351 0.226335 0.330011 -0.128603
C62   C     C_R   0.933920 0.170498 0.549267 0.117968
C63   C     C_R   0.001485 0.118949 0.515299 -0.194071
C64   C     C_R   0.088540 0.148078 0.547090 -0.138190
C65   C     C_R   0.106987 0.226224 0.614709 -0.114116
C66   C     C_R   0.037988 0.274901 0.651013 -0.115447
C67   C     C_R   0.159803 0.854778 0.468289 -0.014483
C68   C     C_R   0.951729 0.247287 0.618550 -0.082969
C69   C     C_R   0.058079 0.821756 0.448957 0.122291
C70   C     C_R   0.032685 0.749932 0.378464 -0.099664
C71   C     C_R   0.935074 0.716277 0.361792 -0.109318
C72   C     C_R   0.862073 0.752946 0.415925 -0.109199
C73   C     C_R   0.887707 0.825802 0.485353 -0.136067
C74   C     C_R   0.986335 0.862416 0.500592 -0.182173
C75   C     C_R   0.840012 0.138064 0.517102 -0.013685
C76   C     C_R   0.286935 0.825345 0.509472 -0.266265
Cu1   Cu    Cu3+1 0.916740 0.524770 0.521640 0.949212
Cu2   Cu    Cu3+1 0.083260 0.475230 0.478360 0.949245
H1    H     H_    0.148067 0.567328 0.725930 0.138791
H2    H     H_    0.403242 0.634156 0.591617 0.125295
H3    H     H_    0.183584 0.560081 0.232950 0.142072
H4    H     H_    0.817860 0.432484 0.765564 0.140749
H5    H     H_    0.106976 0.590566 0.996757 0.142982
H6    H     H_    0.897868 0.412215 0.003224 0.143405
H7    H     H_    0.809394 0.418046 0.905013 0.122553
H8    H     H_    0.194055 0.575638 0.093349 0.123944
H9    H     H_    0.862979 0.462086 0.138215 0.123270
H10   H     H_    0.140830 0.549419 0.862430 0.123530
H11   H     H_    0.385759 0.121237 0.418377 0.144883
H12   H     H_    0.853221 0.443044 0.275083 0.137607
H13   H     H_    0.626069 0.855439 0.526057 0.146491
H14   H     H_    0.699943 0.226699 0.456929 0.145087
H15   H     H_    0.302628 0.777943 0.536588 0.141321
H16   H     H_    0.213191 0.995954 0.426795 0.130064
H17   H     H_    0.789238 0.987441 0.539821 0.129761
H18   H     H_    0.463950 0.290057 0.332228 0.134684
H19   H     H_    0.541518 0.717029 0.661978 0.139049
H20   H     H_    0.963628 0.795599 0.631387 0.139004
H21   H     H_    0.056785 0.860612 0.743929 0.131839
H22   H     H_    0.984222 0.780110 0.867603 0.127526
H23   H     H_    0.558549 0.176207 0.429251 0.137656
H24   H     H_    0.817567 0.634154 0.877644 0.133989
H25   H     H_    0.726249 0.564754 0.762874 0.117014
H26   H     H_    0.246538 0.421270 0.236760 0.116066
H27   H     H_    0.139210 0.336377 0.132070 0.139565
H28   H     H_    0.982001 0.182529 0.154299 0.127947
H29   H     H_    0.935207 0.110249 0.279867 0.137102
H30   H     H_    0.044304 0.192374 0.382777 0.140153
H31   H     H_    0.987495 0.057273 0.463467 0.134786
H32   H     H_    0.141331 0.109637 0.519821 0.129314
H33   H     H_    0.174021 0.248152 0.639625 0.127173
H34   H     H_    0.455311 0.799780 0.510035 0.144268
H35   H     H_    0.051070 0.333415 0.704715 0.143575
H36   H     H_    0.898000 0.284555 0.647961 0.095016
H37   H     H_    0.088292 0.719955 0.336875 0.107157
H38   H     H_    0.915575 0.661073 0.307413 0.136705
H39   H     H_    0.785779 0.725070 0.404053 0.125962
H40   H     H_    0.830835 0.852991 0.527830 0.122238
H41   H     H_    0.005708 0.919962 0.554023 0.126627
H42   H     H_    0.730796 0.458323 0.455392 0.123044
H43   H     H_    0.273022 0.546416 0.541190 0.123389
H44   H     H_    0.306251 0.273593 0.307997 0.139469
H45   H     H_    0.693698 0.726576 0.691573 0.140522
H46   H     H_    0.603553 0.374661 0.400954 0.122940
N1    N     N_R   0.208390 0.438070 0.445820 -0.189354
N2    N     N_R   0.791610 0.561930 0.554180 -0.187579
O1    O     O_R   0.020090 0.662480 0.528530 -0.573406
O2    O     O_R   0.979910 0.337520 0.471470 -0.571206
O3    O     O_R   0.160710 0.620650 0.491980 -0.590285
O4    O     O_R   0.839290 0.379350 0.508020 -0.591101
O5    O     O_R   0.921540 0.523360 0.633990 -0.575026
O6    O     O_R   0.078460 0.476640 0.366010 -0.577629
O7    O     O_R   0.062170 0.481520 0.597440 -0.589537
O8    O     O_R   0.937830 0.518480 0.402560 -0.589869

loop_
_geom_bond_atom_site_label_1
_geom_bond_atom_site_label_2
_ccdc_geom_bond_type
C25   C31   A    
C40   C47   S    
C66   C68   A    
C26   C32   A    
C14   H44   S    
C66   H35   S    
C56   H17   S    
C73   C74   A    
C14   C18   A    
C39   H9    S    
C23   C76   A    
C4    C8    A    
Cu2   O2    S    
C7    C8    A    
C39   C41   A    
C53   C54   A    
C15   C19   A    
C74   H41   S    
C15   H45   S    
C37   H12   S    
C28   C29   A    
C35   C37   A    
Cu2   O3    S    
C24   C26   A    
C5    C11   A    
C21   H42   S    
C44   H4    S    
C18   N1    A    
C16   C33   S    
C16   O7    A    
C49   C54   A    
C29   H46   S    
C33   C36   A    
C32   H19   S    
Cu1   O5    S    
C7    C10   A    
C23   C67   A    
C61   H30   S    
C16   O5    A    
C19   C49   S    
C65   H33   S    
Cu2   O6    S    
C8    C9    A    
C33   C44   A    
C22   C25   A    
C72   H39   S    
C45   C67   A    
C10   H34   S    
C70   C71   A    
Cu1   O1    S    
C34   C75   A    
C30   H2    S    
C2    C34   A    
C40   C42   A    
C1    O3    A    
C59   C60   A    
C56   C75   A    
C13   H13   S    
C27   C30   A    
C41   C43   A    
C42   C44   A    
C45   H16   S    
C43   C46   A    
C51   H21   S    
C50   H20   S    
C59   H28   S    
C51   C52   A    
C1    O1    A    
C54   H25   S    
C4    C6    A    
C15   C26   A    
C58   C59   A    
Cu1   Cu2   S    
C5    C45   A    
C10   C13   A    
C38   H10   S    
C60   C61   A    
C67   C69   S    
C63   H31   S    
C2    C4    A    
C62   C63   A    
C76   H15   S    
C46   H3    S    
C11   H11   S    
C64   H32   S    
C47   C48   D    
C53   H24   S    
C50   C51   A    
C69   C74   A    
C42   H7    S    
C47   H6    S    
C2    H14   S    
C3    C76   A    
C9    C11   A    
C20   H43   S    
C60   H29   S    
C12   O4    A    
C18   C55   S    
C9    H23   S    
C20   C22   A    
C1    C23   S    
C22   C27   A    
C55   C57   A    
C49   C50   A    
C62   C75   S    
Cu1   O8    S    
C12   C34   S    
C17   O8    A    
C52   C53   A    
C57   H26   S    
C73   H40   S    
C43   H8    S    
C24   C28   A    
C6    C56   A    
C72   C73   A    
C3    C5    A    
C36   H1    S    
C12   O2    A    
C70   H37   S    
C19   N2    A    
C3    C7    A    
C48   H5    S    
C62   C68   A    
C58   H27   S    
C64   C65   A    
C36   C38   A    
C71   C72   A    
C29   C31   A    
C6    C13   A    
C30   C32   A    
Cu2   N1    S    
C57   C58   A    
C38   C40   A    
C55   C61   A    
C41   C48   S    
C52   H22   S    
C71   H38   S    
Cu1   O4    S    
C14   C25   A    
C69   C70   A    
Cu2   O7    S    
C63   C64   A    
C20   N1    A    
C37   C39   A    
C65   C66   A    
C21   C24   A    
C27   C28   A    
C17   C35   S    
C21   N2    A    
C35   C46   A    
Cu1   N2    S    
C31   H18   S    
C68   H36   S    
C17   O6    A    
