data_mof_unit_23841.cif
_audit_creation_date              2012-12-11T17:12:50-0500
_audit_creation_method            fapswitch 2.2
_symmetry_space_group_name_H-M    P1
_symmetry_Int_Tables_number       1
_space_group_crystal_system       triclinic
_cell_length_a                    17.267327
_cell_length_b                    6.891113
_cell_length_c                    14.362302
_cell_angle_alpha                 90.005041
_cell_angle_beta                  110.206312
_cell_angle_gamma                 89.993882
_cell_volume                      1603.80653381

loop_
_atom_site_label
_atom_site_type_symbol
_atom_type_description
_atom_site_fract_x
_atom_site_fract_y
_atom_site_fract_z
_atom_type_partial_charge
O1    O     O_R   0.314130 0.635770 0.168990 -0.528876
O2    O     O_R   0.685870 0.364230 0.831010 -0.528932
O3    O     O_R   0.185870 0.135770 0.331010 -0.529038
O4    O     O_R   0.814130 0.864230 0.668990 -0.528933
O5    O     O_R   0.146800 0.302460 0.139760 -0.532018
O6    O     O_R   0.853200 0.697540 0.860240 -0.531518
O7    O     O_R   0.353200 0.802460 0.360240 -0.531830
O8    O     O_R   0.646800 0.197540 0.639760 -0.532069
C1    C     C_R   0.114015 0.475816 0.112815 0.751510
C2    C     C_R   0.885985 0.524184 0.887184 0.751795
C3    C     C_R   0.385985 0.975812 0.387185 0.751936
C4    C     C_R   0.614016 0.024188 0.612815 0.751768
O9    O     O_R   0.311100 0.305780 0.157130 -0.542662
O10   O     O_R   0.688900 0.694220 0.842870 -0.542642
O11   O     O_R   0.188900 0.805780 0.342870 -0.542581
O12   O     O_R   0.811100 0.194220 0.657130 -0.542645
O13   O     O_R   0.351340 0.139640 0.348510 -0.533004
O14   O     O_R   0.648660 0.860360 0.651490 -0.532903
O15   O     O_R   0.148660 0.639640 0.151490 -0.532865
O16   O     O_R   0.851340 0.360360 0.848510 -0.533137
C5    C     C_R   0.334825 0.473928 0.138609 0.823271
C6    C     C_R   0.665176 0.526072 0.861393 0.823175
C7    C     C_R   0.165177 0.973958 0.361391 0.823252
C8    C     C_R   0.834823 0.026041 0.638609 0.823329
C9    C     C_1   0.533575 0.008935 0.533057 -0.098754
C10   C     C_1   0.466425 0.991064 0.466942 -0.098515
C11   C     C_1   0.966425 0.508932 0.966941 -0.098155
C12   C     C_1   0.033576 0.491069 0.033058 -0.098733
O17   O     O_3   0.263010 0.470920 0.312770 -0.370884
O18   O     O_3   0.736990 0.529080 0.687230 -0.370963
O19   O     O_3   0.236990 0.970920 0.187230 -0.370864
O20   O     O_3   0.763010 0.029080 0.812770 -0.370782
V1    V     V_3+5 0.247590 0.194450 0.238360 1.593608
V2    V     V_3+5 0.752410 0.805550 0.761640 1.594288
V3    V     V_3+5 0.252410 0.694450 0.261640 1.594027
V4    V     V_3+5 0.747590 0.305550 0.738360 1.593571
C13   C     C_R   0.112489 0.978376 0.422722 -0.179912
C14   C     C_R   0.887514 0.021618 0.577284 -0.179977
C15   C     C_R   0.387530 0.478211 0.077292 -0.179902
C16   C     C_R   0.612471 0.521789 0.922709 -0.179842
C17   C     C_R   0.898948 0.095062 0.417649 -0.033476
C18   C     C_R   0.101060 0.904948 0.582362 -0.033488
C19   C     C_R   0.600804 0.596843 0.082074 -0.033707
C20   C     C_R   0.399201 0.403133 0.917931 -0.033719
C21   C     C_R   0.852750 0.086590 0.479672 -0.245854
C22   C     C_R   0.147257 0.913432 0.520337 -0.245845
C23   C     C_R   0.647056 0.588052 0.020120 -0.245606
C24   C     C_R   0.352949 0.411923 0.979885 -0.245604
C25   C     C_R   0.972234 0.970622 0.615835 0.411494
C26   C     C_R   0.027768 0.029340 0.384172 0.411505
C27   C     C_R   0.527853 0.469885 0.884268 0.411578
C28   C     C_R   0.472146 0.530132 0.115730 0.411576
C29   C     C_R   0.018552 0.968673 0.550263 -0.029441
C30   C     C_R   0.981452 0.031303 0.449747 -0.029462
C31   C     C_R   0.481535 0.468043 0.949837 -0.029506
C32   C     C_R   0.518465 0.531963 0.050162 -0.029480
H1    H     H_    0.211039 0.865983 0.548657 0.165539
H2    H     H_    0.788971 0.134071 0.451354 0.165525
H3    H     H_    0.289284 0.363597 0.951694 0.165719
H4    H     H_    0.710724 0.636352 0.048315 0.165749
H5    H     H_    0.868617 0.154548 0.344618 0.219323
H6    H     H_    0.131396 0.845497 0.655398 0.219342
H7    H     H_    0.630947 0.657479 0.154892 0.219213
H8    H     H_    0.369064 0.342459 0.845121 0.219189
S1    S     S_3+6 0.978461 0.076313 0.254171 -0.026044
O21   O     O_2   0.898054 0.967715 0.216508 -0.337675
O22   O     O_2   0.961555 0.290262 0.239946 -0.344936
O23   O     O_3   0.035294 0.007060 0.185582 -0.512985
H9    H     H_    0.001790 0.042113 0.116472 0.350938
S2    S     S_3+6 0.021538 0.923618 0.745836 -0.026168
O24   O     O_2   0.038512 0.709699 0.760059 -0.344597
O25   O     O_2   0.101910 0.032360 0.783499 -0.338128
O26   O     O_3   0.964671 0.992670 0.814423 -0.513029
H10   H     H_    0.998669 0.959918 0.883698 0.350983
S3    S     S_3+6 0.521351 0.578206 0.245640 -0.026005
O27   O     O_2   0.602167 0.471247 0.283460 -0.337738
O28   O     O_2   0.537448 0.792510 0.259507 -0.345100
O29   O     O_3   0.464799 0.507803 0.314363 -0.512990
H11   H     H_    0.498291 0.543010 0.383447 0.351033
S4    S     S_3+6 0.478653 0.421813 0.754357 -0.025957
O30   O     O_2   0.462635 0.207477 0.740491 -0.345261
O31   O     O_2   0.397798 0.528614 0.716530 -0.337537
O32   O     O_3   0.535178 0.492406 0.685634 -0.513034
H12   H     H_    0.501938 0.456136 0.616655 0.351071

loop_
_geom_bond_atom_site_label_1
_geom_bond_atom_site_label_2
_ccdc_geom_bond_type
C2    C11   S    
C16   C23   A    
C31   C32   A    
O1    C5    A    
O26   H10   S    
O3    C7    A    
C17   H5    S    
C28   S3    S    
C19   H7    S    
C14   C25   A    
C29   C30   A    
C20   H8    S    
O7    C3    A    
C26   C30   A    
O20   V4    S    
C18   C29   A    
O8    V4    S    
O4    C8    A    
O3    V1    S    
O17   V1    S    
C18   C22   A    
C27   S4    S    
C14   C21   A    
C23   H4    S    
C1    O15   A    
C2    O16   A    
O23   H9    S    
S1    O22   D    
O5    V1    S    
O2    C6    A    
C8    C14   S    
O19   V1    S    
S2    O24   D    
C18   H6    S    
O11   C7    A    
C15   C28   A    
O12   C8    A    
O13   V1    S    
S4    O32   S    
O11   V3    S    
S3    O29   S    
O4    V2    S    
C21   H2    S    
O18   V2    S    
S4    O31   D    
O29   H11   S    
C3    C10   S    
C9    C10   T    
C7    C13   S    
O6    V2    S    
O20   V2    S    
S3    O27   D    
O5    C1    A    
O14   V2    S    
O32   H12   S    
C5    C15   S    
O8    C4    A    
S1    O23   S    
C6    C16   S    
S2    O26   S    
O9    C5    A    
S3    O28   D    
S1    O21   D    
C25   S2    S    
C22   H1    S    
O19   V3    S    
O1    V3    S    
C24   H3    S    
O2    V4    S    
C3    O13   A    
O7    V3    S    
S4    O30   D    
O10   V2    S    
C16   C27   A    
O17   V3    S    
O18   V4    S    
C4    C9    S    
O10   C6    A    
O15   V3    S    
O12   V4    S    
C13   C26   A    
C20   C31   A    
C25   C29   A    
C27   C31   A    
C26   S1    S    
C17   C30   A    
O6    C2    A    
O16   V4    S    
C28   C32   A    
C19   C32   A    
O9    V1    S    
C4    O14   A    
C11   C12   T    
C17   C21   A    
S2    O25   D    
C13   C22   A    
C19   C23   A    
C20   C24   A    
C1    C12   S    
C15   C24   A    
