data_mof_unit_35001.cif
_audit_creation_date              2013-03-05T16:06:19-0500
_audit_creation_method            fapswitch 2.2
_symmetry_space_group_name_H-M    P1
_symmetry_Int_Tables_number       1
_space_group_crystal_system       triclinic
_cell_length_a                    10.825125
_cell_length_b                    9.509087
_cell_length_c                    27.799867
_cell_angle_alpha                 90.294128
_cell_angle_beta                  90.163496
_cell_angle_gamma                 89.976905
_cell_volume                      2861.58687728

loop_
_atom_site_label
_atom_site_type_symbol
_atom_site_description
_atom_site_fract_x
_atom_site_fract_y
_atom_site_fract_z
_atom_type_partial_charge
O1    O     O_R   0.319640 0.618740 0.500000 -0.587735
O2    O     O_R   0.680360 0.381260 0.500000 -0.587735
O3    O     O_R   0.680360 0.618740 0.500000 -0.587945
O4    O     O_R   0.319640 0.381260 0.500000 -0.587945
C1    C     C_R   0.262038 0.500015 0.499967 0.795603
C2    C     C_R   0.737962 0.499984 0.500033 0.795603
O5    O     O_R   0.500020 0.618770 0.430260 -0.583915
O6    O     O_R   0.499980 0.381230 0.569740 -0.583916
O7    O     O_R   0.499980 0.618770 0.569740 -0.583975
O8    O     O_R   0.500020 0.381230 0.430260 -0.583975
C3    C     C_R   0.499838 0.499591 0.407387 0.804676
C4    C     C_R   0.500162 0.500409 0.592613 0.804678
Cu1   Cu    Cu3+1 0.500000 0.640660 0.500000 0.947751
Cu2   Cu    Cu3+1 0.500000 0.359340 0.500000 0.947751
C5    C     C_R   0.396332 0.452936 0.177421 0.532879
C6    C     C_R   0.603670 0.547063 0.822579 0.532880
O9    O     O_2   0.292969 0.419586 0.201878 -0.535485
O10   O     O_2   0.707032 0.580413 0.798122 -0.535486
N1    N     N_R   0.500997 0.491123 0.201864 -0.467855
N2    N     N_R   0.499004 0.508876 0.798136 -0.467855
C7    C     C_R   0.607976 0.522052 0.178089 0.546615
C8    C     C_R   0.392026 0.477946 0.821911 0.546615
C9    C     C_R   0.507477 0.621963 0.278276 -0.102597
C10   C     C_R   0.492518 0.378037 0.721724 -0.102596
C11   C     C_R   0.507054 0.624286 0.328468 -0.215163
C12   C     C_R   0.492941 0.375714 0.671532 -0.215163
C13   C     C_R   0.492077 0.369691 0.329200 -0.214205
C14   C     C_R   0.507930 0.630308 0.670800 -0.214206
C15   C     C_R   0.492140 0.367728 0.279071 -0.100719
C16   C     C_R   0.507868 0.632271 0.720929 -0.100717
C17   C     C_R   0.499919 0.493720 0.253443 0.355910
C18   C     C_R   0.500082 0.506280 0.746557 0.355905
C19   C     C_R   0.503218 0.487149 0.101673 -0.047547
C20   C     C_R   0.496784 0.512848 0.898327 -0.047547
C21   C     C_R   0.395785 0.449331 0.126948 -0.003493
C22   C     C_R   0.604217 0.550667 0.873052 -0.003492
C23   C     C_R   0.292396 0.402754 0.101373 -0.154845
C24   C     C_R   0.707605 0.597244 0.898627 -0.154844
C25   C     C_R   0.611409 0.518586 0.127579 -0.068836
C26   C     C_R   0.388593 0.481412 0.872421 -0.068835
C27   C     C_R   0.499581 0.498028 0.354395 -0.040759
C28   C     C_R   0.500419 0.501971 0.645605 -0.040758
H1    H     H_    0.486088 0.270736 0.348165 0.156742
H2    H     H_    0.513925 0.729263 0.651835 0.156742
H3    H     H_    0.486704 0.268226 0.260062 0.140534
H4    H     H_    0.513310 0.731772 0.739938 0.140537
H5    H     H_    0.211733 0.362849 0.119807 0.186651
H6    H     H_    0.788269 0.637149 0.880194 0.186651
C29   C     C_R   0.385697 0.480154 0.974462 0.022892
C30   C     C_R   0.614304 0.519842 0.025538 0.022893
C31   C     C_R   0.608603 0.538180 0.974762 0.059501
C32   C     C_R   0.391398 0.461816 0.025238 0.059501
C33   C     C_R   0.497189 0.508739 0.949402 0.028469
C34   C     C_R   0.502813 0.491258 0.050598 0.028469
C35   C     C_R   0.273015 0.477269 0.947240 0.166982
C36   C     C_R   0.726987 0.522727 0.052760 0.166982
C37   C     C_R   0.277610 0.465011 0.897130 -0.147140
C38   C     C_R   0.722392 0.534986 0.102870 -0.147141
O11   O     O_2   0.288941 0.445920 0.796725 -0.533569
O12   O     O_2   0.711061 0.554079 0.203274 -0.533567
C39   C     C_R   0.292388 0.403584 0.051441 -0.213220
C40   C     C_R   0.707614 0.596413 0.948559 -0.213221
H7    H     H_    0.487025 0.275329 0.653095 0.157810
H8    H     H_    0.512963 0.724671 0.346905 0.157809
H9    H     H_    0.486557 0.280257 0.741374 0.140508
H10   H     H_    0.513433 0.719743 0.258625 0.140506
H11   H     H_    0.191819 0.454580 0.877179 0.196169
H12   H     H_    0.808183 0.545416 0.122820 0.196169
H13   H     H_    0.214741 0.354219 0.033946 0.167784
H14   H     H_    0.785261 0.645777 0.966055 0.167785
C41   C     C_R   0.063920 0.372186 0.499970 -0.176306
C42   C     C_R   0.936080 0.627814 0.500030 -0.176306
C43   C     C_R   0.936176 0.372170 0.500023 -0.176561
C44   C     C_R   0.063824 0.627830 0.499977 -0.176561
H15   H     H_    0.112027 0.272269 0.499942 0.149988
H16   H     H_    0.887973 0.727731 0.500058 0.149988
H17   H     H_    0.888143 0.272250 0.500045 0.149941
H18   H     H_    0.111857 0.727750 0.499955 0.149941
C45   C     C_R   0.871784 0.499982 0.500039 -0.019198
C46   C     C_R   0.128216 0.500018 0.499961 -0.019199
C47   C     C_R   0.422832 0.074049 0.470205 -0.025359
C48   C     C_R   0.577168 0.925950 0.529795 -0.025358
C49   C     C_R   0.577180 0.074854 0.529790 -0.023892
C50   C     C_R   0.422820 0.925146 0.470210 -0.023892
H19   H     H_    0.361060 0.129925 0.446344 0.119111
H20   H     H_    0.638940 0.870075 0.553655 0.119111
H21   H     H_    0.638985 0.131370 0.553643 0.120109
H22   H     H_    0.361014 0.868629 0.446357 0.120109
N3    N     N_R   0.500000 0.852070 0.500000 -0.157216
N4    N     N_R   0.500000 0.147930 0.500000 -0.157216
C51   C     C_3   0.147336 0.512695 0.967686 -0.901056
H23   H     H_    0.096903 0.584648 0.943092 0.238310
H24   H     H_    0.091083 0.415805 0.971436 0.235985
H25   H     H_    0.154135 0.570635 0.002309 0.247669
C52   C     C_3   0.852665 0.487299 0.032314 -0.901058
H26   H     H_    0.903097 0.415344 0.056908 0.238310
H27   H     H_    0.845865 0.429360 0.997691 0.247669
H28   H     H_    0.908919 0.584188 0.028564 0.235985

loop_
_geom_bond_atom_site_label_1
_geom_bond_atom_site_label_2
_geom_bond_distance
_ccdc_geom_bond_type
C36   C52   1.513130 S    
C49   H21   1.081783 S    
C13   C15   1.393608 A    
C52   H26   1.111765 S    
C42   H16   1.083297 S    
O3    C2    1.289757 A    
N1    C17   1.434064 S    
C52   H28   1.110117 S    
O5    C3    1.296631 A    
C30   C34   1.422281 A    
C48   N3    1.366750 A    
O1    C1    1.289932 A    
C9    H10   1.082849 S    
C21   C23   1.395303 A    
C10   C12   1.395416 A    
C42   C45   1.400968 A    
C32   C39   1.412469 A    
C40   H14   1.076595 S    
O7    Cu1   1.950968 S    
Cu2   N4    2.010317 S    
C35   C51   1.513131 S    
C4    C28   1.473172 S    
C23   H5    1.083457 S    
C24   H6    1.083456 S    
O3    Cu1   1.963431 S    
O6    C4    1.296628 A    
Cu1   N3    2.010316 S    
C44   C46   1.400835 A    
Cu1   Cu2   2.675096 S    
O2    C2    1.289930 A    
C31   C40   1.412468 A    
C37   H11   1.084664 S    
C5    C21   1.403376 A    
C41   C46   1.400969 A    
C32   C34   1.422470 A    
C16   C18   1.399722 A    
C7    O12   1.349752 S    
C42   C44   1.382850 A    
O8    Cu2   1.950968 S    
C11   C27   1.405977 A    
C8    O11   1.349750 S    
C41   C43   1.382850 A    
C48   H20   1.081772 S    
C25   C38   1.394814 A    
C14   H2    1.083019 S    
C30   C36   1.433849 A    
C15   H3    1.082915 S    
C31   C33   1.422469 A    
C11   H8    1.082984 S    
C9    C17   1.400533 A    
C5    N1    1.367753 A    
C12   H7    1.082983 S    
C10   C18   1.400534 A    
C51   H24   1.110118 S    
C13   C27   1.406218 A    
C7    C25   1.404994 A    
C6    N2    1.367751 A    
C29   C32   1.424336 A    
C8    C26   1.405000 A    
C30   C31   1.424336 A    
C43   C45   1.400836 A    
C19   C25   1.404614 A    
C1    C46   1.448639 S    
C10   H9    1.082850 S    
C47   N4    1.366752 A    
C38   H12   1.084661 S    
N2    C8    1.367870 A    
C35   C37   1.398339 A    
C20   C26   1.404612 A    
O1    Cu1   1.963598 S    
C50   N3    1.366841 A    
C51   H23   1.111765 S    
C47   C50   1.415935 A    
C12   C28   1.405976 A    
N2    C18   1.434070 S    
C39   H13   1.076596 S    
C19   C34   1.420616 A    
C5    O9    1.349690 S    
C49   N4    1.366839 A    
O6    Cu2   1.948843 S    
C26   C37   1.394814 A    
N1    C7    1.367874 A    
C16   H4    1.082916 S    
C50   H22   1.081783 S    
O4    C1    1.289756 A    
C23   C39   1.388163 A    
C52   H27   1.108872 S    
C22   C24   1.395301 A    
C14   C16   1.393611 A    
C15   C17   1.399723 A    
C29   C35   1.433849 A    
C6    C22   1.403378 A    
C51   H25   1.108875 S    
C41   H15   1.083297 S    
C2    C45   1.448639 S    
C29   C33   1.422282 A    
C14   C28   1.406217 A    
C19   C21   1.408234 A    
C36   C38   1.398343 A    
C3    C27   1.473169 S    
C20   C22   1.408233 A    
C9    C11   1.395416 A    
O4    Cu2   1.963431 S    
O2    Cu2   1.963598 S    
O7    C4    1.295544 A    
O8    C3    1.295546 A    
C13   H1    1.083019 S    
O5    Cu1   1.948843 S    
C20   C33   1.420616 A    
C6    O10   1.349689 S    
C48   C49   1.415935 A    
C44   H18   1.083304 S    
C43   H17   1.083304 S    
C47   H19   1.081772 S    
C24   C40   1.388166 A    
