data_mof_unit_50167.cif
_audit_creation_date              2012-12-11T14:58:00-0500
_audit_creation_method            fapswitch 2.2
_symmetry_space_group_name_H-M    P1
_symmetry_Int_Tables_number       1
_space_group_crystal_system       triclinic
_cell_length_a                    6.939761
_cell_length_b                    16.830251
_cell_length_c                    16.968874
_cell_angle_alpha                 100.409571
_cell_angle_beta                  90.769181
_cell_angle_gamma                 90.311571
_cell_volume                      1949.07124554

loop_
_atom_site_label
_atom_site_type_symbol
_atom_type_description
_atom_site_fract_x
_atom_site_fract_y
_atom_site_fract_z
_atom_type_partial_charge
O1    O     O_R   0.506180 0.438940 0.579430 -0.537040
O2    O     O_R   0.170520 0.406230 0.413590 -0.539616
O3    O     O_R   0.005180 0.561060 0.420570 -0.534687
C1    C     C_R   0.339024 0.383499 0.384879 0.694922
O4    O     O_R   0.176140 0.429310 0.578370 -0.546215
O5    O     O_R   0.010830 0.584300 0.586530 -0.536481
C2    C     C_R   0.347042 0.414932 0.606239 0.691010
O6    O     O_R   0.500520 0.415700 0.413470 -0.534516
O7    O     O_3   0.340830 0.550820 0.502480 -0.365459
V1    V     V_3+5 0.064040 0.490570 0.499540 1.414627
O8    O     O_R   0.681400 0.593770 0.586410 -0.540203
C3    C     C_R   0.851552 0.615756 0.615421 0.692357
O9    O     O_R   0.675790 0.570690 0.421630 -0.543859
C4    C     C_R   0.844831 0.586448 0.394946 0.719390
V2    V     V_3+5 0.564650 0.509430 0.500460 1.420837
O10   O     O_3   0.837730 0.449180 0.497520 -0.368296
C5    C     C_R   0.902992 0.862311 0.167579 -0.077018
C6    C     C_R   0.862013 0.635294 0.330561 -0.113594
C7    C     C_R   0.018300 0.654950 0.206540 0.398018
C8    C     C_R   0.983902 0.608282 0.266032 -0.253797
C9    C     C_R   0.776457 0.711494 0.336408 -0.235498
C10   C     C_R   0.818549 0.761312 0.279992 0.102566
C11   C     C_R   0.942568 0.733689 0.215006 0.071001
C12   C     C_R   0.985323 0.784978 0.159564 -0.207600
C13   C     C_R   0.779905 0.888199 0.232159 -0.158402
C14   C     C_R   0.739497 0.838789 0.287971 -0.152907
H1    H     H_    0.076429 0.764016 0.108774 0.142383
H2    H     H_    0.712793 0.946994 0.238972 0.116461
H3    H     H_    0.644305 0.860974 0.337053 0.112693
H4    H     H_    0.053217 0.550075 0.261458 0.132850
H5    H     H_    0.684413 0.733400 0.386696 0.117295
H6    H     H_    0.201422 0.640447 0.956959 0.128481
C15   C     C_R   0.757161 0.904639 0.731166 -0.143468
C16   C     C_R   0.689585 0.917558 0.656981 -0.168145
C17   C     C_R   0.676677 0.853979 0.592436 -0.135460
C18   C     C_R   0.731934 0.776870 0.601576 -0.131311
C19   C     C_R   0.802996 0.761789 0.676063 0.072338
C20   C     C_R   0.817549 0.827161 0.742122 0.056963
C21   C     C_R   0.866712 0.683888 0.684346 -0.188573
C22   C     C_R   0.953008 0.672030 0.757633 0.071680
C23   C     C_R   0.970277 0.737704 0.823339 0.071466
C24   C     C_R   0.899859 0.815044 0.816062 -0.202110
C25   C     C_R   0.022232 0.595247 0.767265 -0.145673
C26   C     C_R   0.112937 0.584400 0.838198 -0.137072
C27   C     C_R   0.130656 0.648647 0.901974 -0.130436
C28   C     C_R   0.056725 0.723898 0.895630 -0.138294
H7    H     H_    0.768648 0.956912 0.778533 0.142952
H8    H     H_    0.653167 0.978030 0.649065 0.118699
H9    H     H_    0.627162 0.864587 0.534501 0.108986
H10   H     H_    0.723176 0.730047 0.548855 0.103467
H11   H     H_    0.008177 0.542726 0.720298 0.110091
H12   H     H_    0.169234 0.525764 0.843679 0.125157
H13   H     H_    0.069429 0.770793 0.948123 0.106085
H14   H     H_    0.629310 0.481973 0.158733 0.113669
C29   C     C_R   0.210390 0.220151 0.392566 -0.136921
C30   C     C_R   0.155166 0.142090 0.399528 -0.124073
C31   C     C_R   0.186424 0.078045 0.337045 -0.131900
C32   C     C_R   0.272453 0.091657 0.266922 -0.140217
C33   C     C_R   0.326551 0.170577 0.257148 0.072838
C34   C     C_R   0.295136 0.236254 0.321599 0.069933
C35   C     C_R   0.414074 0.184155 0.185319 -0.189726
C36   C     C_R   0.471747 0.263616 0.178636 0.070841
C37   C     C_R   0.442296 0.329138 0.243442 0.071893
C38   C     C_R   0.352972 0.315707 0.314955 -0.192146
C39   C     C_R   0.554548 0.279894 0.107343 -0.130518
C40   C     C_R   0.612083 0.357812 0.100830 -0.128840
C41   C     C_R   0.586984 0.421318 0.164422 -0.149390
C42   C     C_R   0.500221 0.407788 0.234339 -0.137350
H15   H     H_    0.186365 0.267293 0.443742 0.109788
H16   H     H_    0.089019 0.131288 0.454057 0.112466
H17   H     H_    0.145185 0.017330 0.343140 0.118122
H18   H     H_    0.297848 0.039348 0.221058 0.109627
H19   H     H_    0.574907 0.233020 0.055576 0.106893
H20   H     H_    0.674086 0.369109 0.045697 0.110417
H21   H     H_    0.476807 0.460086 0.280425 0.116001
C43   C     C_R   0.392599 0.137040 0.831501 -0.174983
C44   C     C_R   0.370745 0.365599 0.670277 -0.068490
C45   C     C_R   0.574190 0.329051 0.777169 -0.171166
C46   C     C_R   0.530776 0.380512 0.723230 -0.161123
C47   C     C_R   0.251199 0.298970 0.674165 -0.217887
C48   C     C_R   0.296667 0.245932 0.727312 0.082882
C49   C     C_R   0.460320 0.260426 0.778794 0.154332
C50   C     C_R   0.506627 0.206365 0.831012 -0.304363
C51   C     C_R   0.234571 0.121423 0.776552 0.446026
C52   C     C_R   0.184076 0.177138 0.727844 -0.250295
H22   H     H_    0.627456 0.219378 0.872598 0.141748
H23   H     H_    0.699427 0.342033 0.816325 0.116587
H24   H     H_    0.058849 0.165091 0.688551 0.138354
H25   H     H_    0.625304 0.431695 0.721897 0.120984
H26   H     H_    0.129098 0.286119 0.633205 0.117364
O11   O     O_R   0.265840 0.084300 0.086750 -0.536644
O12   O     O_R   0.589750 0.070740 0.921690 -0.545125
O13   O     O_R   0.755020 0.915730 0.913400 -0.538319
C53   C     C_R   0.418458 0.085924 0.894374 0.722810
O14   O     O_R   0.595830 0.093740 0.086480 -0.541256
O15   O     O_R   0.761150 0.938890 0.079360 -0.535539
C54   C     C_R   0.427469 0.116416 0.115334 0.686905
O16   O     O_R   0.259710 0.061140 0.920790 -0.512556
O17   O     O_3   0.425260 0.949200 0.997610 -0.371536
V3    V     V_3+5 0.702060 0.009430 0.000450 1.433350
O18   O     O_R   0.090530 0.929220 0.078150 -0.545891
C55   C     C_R   0.921329 0.912885 0.104495 0.686502
O19   O     O_R   0.084440 0.906220 0.913360 -0.539177
C56   C     C_R   0.914248 0.883452 0.885020 0.709049
V4    V     V_3+5 0.201450 0.990520 0.999290 1.447222
O20   O     O_3   0.928380 0.050800 0.002390 -0.361876
O21   O     O_3   0.122515 0.052527 0.771826 -0.574133
C57   C     C_3   0.206773 0.988706 0.717602 0.092108
H27   H     H_    0.169105 0.931626 0.738046 0.121861
H28   H     H_    0.366853 0.990723 0.719269 0.103920
C58   C     C_3   0.124486 0.983982 0.631992 -0.306118
H29   H     H_    0.085853 0.920229 0.606552 0.183909
H30   H     H_    0.990973 0.020235 0.633567 0.206055
C59   C     C_3   0.265725 0.013422 0.575125 -0.818550
H31   H     H_    0.325665 0.073855 0.600882 0.237557
H32   H     H_    0.190261 0.017037 0.517835 0.220530
H33   H     H_    0.385006 0.970018 0.561491 0.224844
O22   O     O_3   0.138835 0.625694 0.143716 -0.577014
C60   C     C_3   0.045521 0.562015 0.090533 0.046802
H34   H     H_    0.965719 0.587806 0.043925 0.130850
H35   H     H_    0.940760 0.526918 0.120201 0.111090
C61   C     C_3   0.197138 0.502936 0.050993 -0.280527
H36   H     H_    0.304126 0.535056 0.019845 0.189974
H37   H     H_    0.273896 0.477458 0.098265 0.210843
C62   C     C_3   0.106550 0.433614 0.991348 -0.847949
H38   H     H_    0.014248 0.396011 0.023220 0.232426
H39   H     H_    0.221907 0.394912 0.960420 0.238288
H40   H     H_    0.018090 0.457197 0.945793 0.226894

loop_
_geom_bond_atom_site_label_1
_geom_bond_atom_site_label_2
_ccdc_geom_bond_type
C45   H23   S    
C29   C30   A    
O18   C55   A    
O15   C55   A    
C6    C9    A    
H6    C27   S    
C4    C6    S    
O2    C1    A    
C7    C8    A    
C12   H1    S    
C1    O6    A    
C25   H11   S    
C43   C51   A    
C59   H31   S    
C8    H4    S    
C27   C28   A    
C30   C31   A    
C13   H2    S    
C9    H5    S    
C19   C20   A    
O16   V4    S    
C18   C19   A    
C20   C24   A    
O5    C3    A    
C44   C47   A    
C53   O16   A    
V2    O10   S    
C40   H20   S    
C51   O21   S    
C39   H19   S    
C57   H27   S    
C43   C50   A    
C16   C17   A    
C23   C24   A    
O11   V4    S    
O22   C60   S    
C43   C53   S    
O8    V2    S    
C22   C25   A    
C58   H29   S    
C7    O22   S    
C17   H9    S    
C62   H40   S    
C11   C12   A    
O1    V2    S    
O9    C4    A    
O7    V1    S    
C2    C44   S    
C26   H12   S    
C60   H35   S    
C40   C41   A    
C33   C34   A    
O1    C2    A    
C29   C34   A    
C47   H26   S    
O13   C56   A    
C48   C49   A    
C44   C46   A    
O18   V4    S    
O17   V4    S    
C33   C35   A    
C5    C12   A    
C41   C42   A    
C51   C52   A    
C58   H30   S    
C21   C22   A    
O4    C2    A    
C45   C46   A    
H14   C41   S    
C32   C33   A    
C31   H17   S    
C42   H21   S    
C17   C18   A    
C7    C11   A    
C5    C55   S    
C36   C37   A    
C45   C49   A    
O17   V3    S    
C23   C28   A    
O12   C53   A    
C15   C16   A    
O19   V4    S    
O11   C54   A    
O13   V3    S    
C29   H15   S    
O3    C4    A    
C22   C23   A    
C49   C50   A    
O6    V2    S    
C30   H16   S    
O9    V2    S    
C25   C26   A    
C62   H38   S    
C15   H7    S    
C16   H8    S    
O21   C57   S    
C61   H37   S    
O2    V1    S    
C18   H10   S    
C26   C27   A    
O12   V3    S    
C52   H24   S    
C37   C42   A    
C36   C39   A    
O14   V3    S    
C35   C54   S    
C47   C48   A    
C24   C56   S    
O5    V1    S    
C59   H32   S    
C60   H34   S    
O14   C54   A    
V4    O20   S    
C1    C38   S    
V3    O20   S    
C15   C20   A    
C57   C58   S    
C34   C38   A    
C5    C13   A    
C61   C62   S    
C13   C14   A    
O4    V1    S    
C19   C21   A    
O3    V1    S    
V1    O10   S    
C32   H18   S    
C31   C32   A    
C3    C21   S    
O15   V3    S    
C28   H13   S    
C60   C61   S    
C57   H28   S    
C58   C59   S    
C6    C8    A    
O7    V2    S    
C35   C36   A    
C46   H25   S    
C59   H33   S    
C37   C38   A    
C50   H22   S    
C14   H3    S    
C39   C40   A    
C10   C14   A    
O19   C56   A    
C62   H39   S    
C10   C11   A    
C61   H36   S    
C9    C10   A    
C48   C52   A    
O8    C3    A    
