data_mof_unit_37749.cif
_audit_creation_date              2012-12-10T20:30:59-0500
_audit_creation_method            fapswitch 2.2
_symmetry_space_group_name_H-M    P1
_symmetry_Int_Tables_number       1
_space_group_crystal_system       triclinic
_cell_length_a                    14.923025
_cell_length_b                    10.667137
_cell_length_c                    9.897424
_cell_angle_alpha                 90.539991
_cell_angle_beta                  89.723585
_cell_angle_gamma                 90.712137
_cell_volume                      1575.3217445

loop_
_atom_site_label
_atom_site_type_symbol
_atom_type_description
_atom_site_fract_x
_atom_site_fract_y
_atom_site_fract_z
_atom_type_partial_charge
C1    C     C_R   0.498724 0.260037 0.499913 1.086816
C2    C     C_R   0.907055 0.582781 0.571281 0.013246
C3    C     C_R   0.950369 0.253303 0.455602 -0.118885
C4    C     C_R   0.044882 0.252312 0.462302 -0.051711
C5    C     C_R   0.092754 0.367392 0.479958 0.002254
C6    C     C_R   0.046123 0.474405 0.525946 0.035689
C7    C     C_R   0.093153 0.583400 0.568918 0.049414
C8    C     C_R   0.047664 0.687918 0.618255 -0.285439
C9    C     C_R   0.954546 0.687546 0.622378 0.525473
C10   C     C_R   0.185951 0.379024 0.456869 -0.070605
C11   C     C_R   0.231093 0.487900 0.503203 -0.115023
C12   C     C_R   0.326915 0.498012 0.500362 0.930507
C13   C     C_R   0.185426 0.587427 0.560844 -0.196010
C14   C     C_R   0.502577 0.064451 0.621657 0.042415
C15   C     C_R   0.487598 0.128062 0.502062 -0.100380
C16   C     C_R   0.454246 0.063382 0.389131 -0.233408
C17   C     C_R   0.449117 0.933713 0.390149 0.484111
C18   C     C_R   0.483256 0.870753 0.503175 -0.179694
C19   C     C_R   0.501094 0.936965 0.621936 -0.026048
C20   C     C_3   0.578092 0.930128 0.717754 -0.481630
C21   C     C_3   0.578733 0.072708 0.719236 0.393185
C22   C     C_R   0.422251 0.487586 0.070783 0.030530
C23   C     C_R   0.496911 0.739649 0.500540 0.889544
C24   C     C_R   0.576795 0.521321 0.071513 -0.119217
C25   C     C_R   0.576989 0.519971 0.927794 -0.178309
C26   C     C_R   0.421102 0.495127 0.929205 0.177903
C27   C     C_3   0.345519 0.401418 0.914627 0.306629
C28   C     C_3   0.355037 0.381059 0.068082 0.211745
C29   C     C_R   0.672878 0.497311 0.499768 0.944378
C30   C     C_R   0.814648 0.584724 0.565080 -0.258898
C31   C     C_R   0.768282 0.487636 0.501603 -0.099150
C32   C     C_R   0.812028 0.381397 0.449267 -0.085222
C33   C     C_R   0.904625 0.368576 0.474535 -0.040417
C34   C     C_R   0.952560 0.474498 0.525339 0.001444
H1    H     H_    0.778010 0.664662 0.604132 0.185216
H2    H     H_    0.557793 0.889239 0.816328 0.178199
H3    H     H_    0.638668 0.887921 0.670720 0.222506
H4    H     H_    0.557117 0.114508 0.817659 0.055924
H5    H     H_    0.639087 0.536612 0.124786 0.154465
H6    H     H_    0.639511 0.533638 0.874047 0.154202
H7    H     H_    0.293632 0.406421 0.125635 0.061460
H8    H     H_    0.222161 0.670167 0.595335 0.164825
H9    H     H_    0.084214 0.771171 0.651135 0.185388
H10   H     H_    0.434258 0.112016 0.299569 0.235517
N1    N     N_R   0.499390 0.499140 0.142800 -0.092458
N2    N     N_R   0.499390 0.499180 0.857150 -0.097991
O1    O     O_R   0.500010 0.316790 0.614690 -0.595659
O2    O     O_R   0.500000 0.316760 0.385350 -0.589797
O3    O     O_R   0.367850 0.499990 0.614680 -0.567519
O4    O     O_R   0.367840 0.499950 0.385340 -0.621480
O5    O     O_R   0.500000 0.683240 0.614650 -0.621300
O6    O     O_R   0.499990 0.683210 0.385310 -0.571411
O7    O     O_R   0.632160 0.500050 0.614660 -0.649445
O8    O     O_R   0.632150 0.500010 0.385320 -0.619518
Zn1   Zn    Zn3+2 0.500010 0.500020 0.653130 1.006883
Zn2   Zn    Zn3+2 0.499990 0.499980 0.346870 1.014346
O9    O     O_3   0.420092 0.870575 0.275614 -0.589300
C35   C     C_3   0.327479 0.846312 0.289898 -0.240892
H11   H     H_    0.313034 0.786350 0.379102 0.133146
H12   H     H_    0.303824 0.794419 0.198917 0.193987
H13   H     H_    0.289139 0.935066 0.297102 0.172216
O10   O     O_3   0.656841 0.123491 0.657938 -0.560287
C36   C     C_3   0.705324 0.195105 0.753708 -0.277768
H14   H     H_    0.725494 0.136565 0.840668 0.146813
H15   H     H_    0.665820 0.276974 0.789202 0.166949
H16   H     H_    0.767200 0.232081 0.705188 0.183261
C37   C     C_2   0.258062 0.464075 0.877206 0.303285
H17   H     H_    0.196141 0.409766 0.875537 0.062809
O11   O     O_2   0.255363 0.576000 0.852739 -0.585002
O12   O     O_3   0.370052 0.299694 0.829053 -0.590070
C38   C     C_3   0.302473 0.205940 0.823493 -0.216338
H18   H     H_    0.333206 0.116965 0.789108 0.194500
H19   H     H_    0.251154 0.231355 0.748039 0.206405
H20   H     H_    0.270217 0.188386 0.923229 0.159864
C39   C     C_2   0.763946 0.291678 0.358158 0.375703
H21   H     H_    0.797381 0.256676 0.268039 0.081264
O13   O     O_2   0.689036 0.252194 0.385214 -0.559096
O14   O     O_3   0.385366 0.259962 0.106956 -0.575989
C40   C     C_3   0.473617 0.228442 0.065829 -0.189302
H22   H     H_    0.496220 0.270564 0.969892 0.170059
H23   H     H_    0.476457 0.125267 0.051939 0.165926
H24   H     H_    0.522312 0.254371 0.145522 0.189836
C41   C     C_2   0.899357 0.132323 0.451178 0.384642
H25   H     H_    0.843281 0.117504 0.519552 0.134865
O15   O     O_2   0.916760 0.051136 0.367720 -0.582076
C42   C     C_2   0.091378 0.129966 0.472743 0.393321
H26   H     H_    0.077726 0.054497 0.401529 0.124254
O16   O     O_2   0.144863 0.112332 0.563367 -0.591914
C43   C     C_2   0.233624 0.284310 0.373756 0.461648
H27   H     H_    0.201261 0.243013 0.285710 0.033892
O17   O     O_2   0.307252 0.247624 0.406080 -0.577195
O18   O     O_3   0.910164 0.794780 0.662717 -0.595389
C44   C     C_3   0.907818 0.799100 0.805057 -0.314985
H28   H     H_    0.976352 0.809667 0.847828 0.176834
H29   H     H_    0.873530 0.714621 0.847145 0.152031
H30   H     H_    0.868892 0.882193 0.837355 0.200498

loop_
_geom_bond_atom_site_label_1
_geom_bond_atom_site_label_2
_ccdc_geom_bond_type
C8    C9    A    
C36   H15   S    
C44   H28   S    
C19   C20   S    
C8    H9    S    
C32   C39   S    
C12   O3    A    
O9    C35   S    
C7    C8    A    
C26   C27   S    
C30   H1    S    
C24   N1    A    
C14   C21   S    
C25   H6    S    
C5    C6    A    
C42   O16   D    
C4    C42   S    
C29   O8    A    
C3    C33   A    
C35   H12   S    
C15   C16   A    
C28   H7    S    
C24   H5    S    
C18   C19   A    
C21   H4    S    
C31   C32   A    
C10   C43   S    
C16   C17   A    
N2    Zn1   S    
O12   C38   S    
C1    C15   S    
C43   O17   D    
C28   O14   S    
C16   H10   S    
C2    C34   A    
C35   H13   S    
C36   H16   S    
C44   H29   S    
C22   C28   S    
C9    O18   S    
C13   H8    S    
C17   C18   A    
O7    Zn1   S    
O8    Zn2   S    
C37   H17   S    
C24   C25   A    
N1    Zn2   S    
C40   H23   S    
O14   C40   S    
C1    O1    A    
C35   H11   S    
O3    Zn1   S    
O4    Zn2   S    
C6    C34   A    
C37   O11   D    
C39   H21   S    
O10   C36   S    
C40   H24   S    
C23   O5    A    
C41   H25   S    
C33   C34   A    
C39   O13   D    
C21   O10   S    
C27   O12   S    
C41   O15   D    
C44   H30   S    
C3    C41   S    
C40   H22   S    
C3    C4    A    
O1    Zn1   S    
O2    Zn2   S    
C42   H26   S    
C14   C19   A    
C4    C5    A    
C38   H20   S    
C12   O4    A    
C11   C12   S    
C1    O2    A    
C6    C7    A    
C2    C30   A    
C32   C33   A    
C5    C10   A    
C29   C31   S    
C20   H3    S    
C11   C13   A    
C23   O6    A    
C30   C31   A    
C29   O7    A    
C18   C23   S    
O18   C44   S    
O5    Zn1   S    
C27   C37   S    
C10   C11   A    
C26   N2    A    
C36   H14   S    
C20   H2    S    
C7    C13   A    
C22   N1    A    
C38   H18   S    
C20   C21   S    
C22   C26   A    
C38   H19   S    
C27   C28   S    
C14   C15   A    
C43   H27   S    
C2    C9    A    
C25   N2    A    
O6    Zn2   S    
C17   O9    S    
