data_mof_unit_14603.cif
_audit_creation_date              2012-12-11T14:08:25-0500
_audit_creation_method            fapswitch 2.2
_symmetry_space_group_name_H-M    P1
_symmetry_Int_Tables_number       1
_space_group_crystal_system       triclinic
_cell_length_a                    10.984273
_cell_length_b                    10.913379
_cell_length_c                    18.65148
_cell_angle_alpha                 90.676118
_cell_angle_beta                  90.096499
_cell_angle_gamma                 60.29892
_cell_volume                      1941.95669472

loop_
_atom_site_label
_atom_site_type_symbol
_atom_type_description
_atom_site_fract_x
_atom_site_fract_y
_atom_site_fract_z
_atom_type_partial_charge
C1    C     C_R   0.232370 0.646602 0.607921 0.608823
C2    C     C_3   0.677263 0.586349 0.802239 -0.174000
C3    C     C_3   0.727087 0.695901 0.807122 -0.005075
C4    C     C_3   0.680787 0.658924 0.673364 0.044465
C5    C     C_3   0.833692 0.628656 0.682387 -0.279075
C6    C     C_3   0.657731 0.558843 0.723791 0.114324
C7    C     C_2   0.679465 0.149011 0.668013 -0.064816
C8    C     C_2   0.690688 0.169126 0.829327 0.236731
C9    C     C_2   0.798709 0.113264 0.782402 -0.161980
C10   C     C_2   0.780466 0.153302 0.706607 -0.135949
C11   C     C_2   0.173620 0.661795 0.680462 -0.097674
C12   C     C_R   0.656632 0.626157 0.599474 0.567685
C13   C     C_2   0.190912 0.660028 0.838039 -0.080348
C14   C     C_2   0.192370 0.553005 0.800024 0.265111
C15   C     C_2   0.199626 0.547286 0.720460 0.271546
C16   C     C_2   0.649414 0.646383 0.317169 -0.091182
C17   C     C_2   0.633948 0.664774 0.159254 -0.104623
C18   C     C_2   0.707369 0.544996 0.195028 -0.161303
C19   C     C_2   0.688148 0.536404 0.271585 -0.147392
C20   C     C_2   0.632183 0.197452 0.318336 -0.100277
C21   C     C_2   0.636992 0.204015 0.163786 -0.104431
C22   C     C_2   0.522210 0.233921 0.200698 -0.164184
C23   C     C_R   0.628723 0.226597 0.601307 0.592136
C24   C     C_2   0.516902 0.260792 0.276855 -0.152250
C25   C     C_2   0.121673 0.680690 0.345226 -0.109053
C26   C     C_2   0.114130 0.691378 0.190799 -0.086977
C27   C     C_2   0.042398 0.804473 0.234455 -0.149030
C28   C     C_2   0.073988 0.800464 0.309958 -0.166225
C29   C     C_R   0.703991 0.101294 0.897660 0.560030
C30   C     C_R   0.756005 0.711844 0.883147 0.536010
C31   C     C_R   0.120021 0.704754 0.907578 0.549369
C32   C     C_R   0.673197 0.114469 0.101253 0.558857
C33   C     C_R   0.692510 0.688384 0.094590 0.560080
C34   C     C_R   0.215222 0.651341 0.404708 0.542147
C35   C     C_R   0.087212 0.713096 0.115269 0.557487
C36   C     C_R   0.641159 0.621206 0.392656 0.543077
C37   C     C_R   0.613932 0.233499 0.393406 0.537513
C38   C     C_3   0.611735 0.837616 0.774515 -0.220005
C39   C     C_3   0.581755 0.814738 0.696052 -0.222638
C40   C     C_3   0.862006 0.643968 0.761959 -0.259217
Cr1   Cr    Cr6+3 0.393010 0.398050 0.501480 1.088374
Cr2   Cr    Cr6+3 0.398820 0.707980 0.501630 1.052322
Cr3   Cr    Cr6+3 0.708140 0.393940 0.496850 1.033977
Cr4   Cr    Cr6+3 0.937950 0.938450 0.008940 1.028572
Cr5   Cr    Cr6+3 0.626180 0.937030 0.994750 1.059661
Cr6   Cr    Cr6+3 0.937790 0.625760 0.001410 1.078176
H1    H     H_    0.646534 0.917510 0.776846 0.129498
H2    H     H_    0.735888 0.447385 0.710348 0.154893
H3    H     H_    0.942693 0.539433 0.781433 0.204625
H4    H     H_    0.910191 0.520061 0.663570 0.179756
H5    H     H_    0.901385 0.029913 0.798742 0.110921
H6    H     H_    0.846071 0.191723 0.683939 0.150706
H7    H     H_    0.618352 0.105942 0.691460 0.150447
H8    H     H_    0.215375 0.734083 0.812603 0.097640
H9    H     H_    0.512294 0.880658 0.805670 0.177356
H10   H     H_    0.132657 0.765126 0.705297 0.043845
H11   H     H_    0.793985 0.453054 0.169610 0.154370
H12   H     H_    0.542096 0.753772 0.183198 0.112065
H13   H     H_    0.616646 0.752330 0.298986 0.094769
H14   H     H_    0.438009 0.221533 0.177567 0.160316
H15   H     H_    0.413252 0.327599 0.299790 0.158149
H16   H     H_    0.716901 0.224113 0.186381 0.096997
H17   H     H_    0.736817 0.130356 0.296809 0.082804
H18   H     H_    0.470108 0.842363 0.691092 0.193127
H19   H     H_    0.076832 0.890871 0.333082 0.154709
H20   H     H_    0.188443 0.587085 0.210027 0.087979
H21   H     H_    0.110203 0.594081 0.323420 0.107992
H22   H     H_    0.597933 0.886415 0.660331 0.108831
H23   H     H_    0.902295 0.719164 0.767627 0.090527
H24   H     H_    0.851161 0.703241 0.649653 0.117072
H25   H     H_    0.755071 0.484289 0.826356 0.148293
H26   H     H_    0.578212 0.625636 0.833477 0.189326
O1    O     O_R   0.507110 0.256280 0.580300 -0.449362
O2    O     O_R   0.524640 0.695370 0.425100 -0.499493
O3    O     O_R   0.735890 0.504390 0.415980 -0.516237
O4    O     O_R   0.690560 0.277820 0.422350 -0.510872
O5    O     O_3   0.499990 0.499990 0.499980 -0.248874
O6    O     O_R   0.089190 0.825870 0.932320 -0.518982
O7    O     O_R   0.819070 0.053960 0.931440 -0.526392
O8    O     O_R   0.607070 0.076440 0.916460 -0.467086
O9    O     O_R   0.647110 0.806550 0.917690 -0.507570
O10   O     O_R   0.837080 0.593860 0.915300 -0.493091
O11   O     O_R   0.064770 0.636080 0.932550 -0.454461
O12   O     O_R   0.280830 0.527190 0.577940 -0.427943
O13   O     O_R   0.068250 0.829200 0.092940 -0.510355
O14   O     O_R   0.799650 0.057040 0.080330 -0.508715
O15   O     O_R   0.586130 0.079760 0.077080 -0.502528
O16   O     O_R   0.627700 0.809630 0.066580 -0.492764
O17   O     O_R   0.816140 0.597180 0.075920 -0.506889
O18   O     O_R   0.045360 0.639170 0.081440 -0.489248
O19   O     O_3   0.833980 0.833750 0.001700 -0.289184
O20   O     O_R   0.261360 0.738990 0.584270 -0.499075
O21   O     O_R   0.532590 0.694780 0.574370 -0.470255
O22   O     O_R   0.744470 0.503750 0.577000 -0.523358
O23   O     O_R   0.698520 0.277230 0.571620 -0.499930
O24   O     O_R   0.498530 0.256920 0.419280 -0.519985
O25   O     O_R   0.272880 0.527780 0.428680 -0.516463
O26   O     O_R   0.252780 0.739630 0.423250 -0.516784
Cl1   Cl    Cl    0.525196 0.309914 0.807777 -0.481935
Cl2   Cl    Cl    0.195380 0.407374 0.844375 -0.474345
Cl3   Cl    Cl    0.237846 0.382800 0.680858 -0.498111
H27   H     H_    0.719680 0.431825 0.291793 0.154019
H28   H     H_    0.969648 0.907525 0.212965 0.151192
Cl4   Cl    Cl    0.489516 0.574628 0.713118 -0.590708

loop_
_geom_bond_atom_site_label_1
_geom_bond_atom_site_label_2
_ccdc_geom_bond_type
C7    C10   D    
C24   H15   S    
Cr2   O21   S    
C35   O13   A    
C39   H22   S    
C1    C11   S    
C10   H6    S    
Cr3   O22   S    
Cr6   O17   S    
C25   C28   D    
C39   H18   S    
C26   C27   D    
C6    H2    S    
C8    C29   S    
Cr5   O15   S    
C33   O16   A    
Cr2   O26   S    
C22   H14   S    
C38   C39   S    
C19   H27   S    
C2    H26   S    
Cr1   O24   S    
C40   H3    S    
C34   O25   A    
C31   O11   A    
C18   C19   S    
Cr6   O10   S    
C11   C15   D    
C38   H9    S    
C20   C24   D    
C3    C38   S    
C8    C9    D    
C25   H21   S    
Cr5   O19   S    
Cr3   O23   S    
C6    Cl4   S    
C4    C12   S    
C9    C10   S    
Cr2   O20   S    
C17   H12   S    
C21   C22   D    
C12   O22   A    
C2    C6    S    
C17   C33   S    
C23   O1    A    
Cr4   O14   S    
C13   C31   S    
Cr3   O3    S    
C21   C32   S    
Cr2   O2    S    
C40   H23   S    
C26   H20   S    
Cr5   O16   S    
C4    C6    S    
Cr6   O19   S    
C32   O15   A    
C37   O24   A    
C1    O12   A    
C16   H13   S    
C30   O10   A    
C3    C30   S    
C5    H24   S    
C36   O3    A    
C33   O17   A    
C18   H11   S    
C29   O7    A    
C4    C39   S    
C32   O14   A    
C17   C18   D    
C21   H16   S    
C15   Cl3   S    
C38   H1    S    
Cr4   O19   S    
C36   O2    A    
C37   O4    A    
C3    C40   S    
C1    O20   A    
C22   C24   S    
C12   O21   A    
C7    H7    S    
C2    H25   S    
C31   O6    A    
C13   H8    S    
Cr3   O4    S    
C8    Cl1   S    
Cr4   O7    S    
Cr5   O9    S    
C4    C5    S    
C14   Cl2   S    
Cr6   O18   S    
Cr3   O5    S    
C25   C34   S    
C9    H5    S    
C30   O9    A    
Cr4   O6    S    
C2    C3    S    
C16   C36   S    
Cr1   O5    S    
C20   C37   S    
Cr1   O12   S    
C29   O8    A    
C20   H17   S    
C16   C19   D    
C7    C23   S    
C27   H28   S    
C34   O26   A    
C23   O23   A    
C28   H19   S    
Cr5   O8    S    
Cr1   O25   S    
C5    H4    S    
Cr1   O1    S    
Cr6   O11   S    
C35   O18   A    
C26   C35   S    
Cr2   O5    S    
C5    C40   S    
C27   C28   S    
C14   C15   S    
C13   C14   D    
C11   H10   S    
Cr4   O13   S    
