data_mof_unit_24867.cif
_audit_creation_date              2012-12-10T20:26:26-0500
_audit_creation_method            fapswitch 2.2
_symmetry_space_group_name_H-M    P1
_symmetry_Int_Tables_number       1
_space_group_crystal_system       triclinic
_cell_length_a                    10.563741
_cell_length_b                    10.674746
_cell_length_c                    9.855609
_cell_angle_alpha                 89.925869
_cell_angle_beta                  88.686429
_cell_angle_gamma                 90.381106
_cell_volume                      1111.05243124

loop_
_atom_site_label
_atom_site_type_symbol
_atom_type_description
_atom_site_fract_x
_atom_site_fract_y
_atom_site_fract_z
_atom_type_partial_charge
C1    C     C_R   0.503192 0.259940 0.499981 0.888493
C2    C     C_R   0.522010 0.128624 0.499950 -0.106682
C3    C     C_R   0.546388 0.065162 0.377680 -0.230189
C4    C     C_R   0.546286 0.935733 0.377550 -0.242216
C5    C     C_R   0.521853 0.871594 0.499696 -0.100273
C6    C     C_R   0.520178 0.935990 0.622372 0.136231
C7    C     C_3   0.427840 0.928023 0.739395 -0.488406
C8    C     C_3   0.428060 0.069945 0.739517 -0.501866
C9    C     C_R   0.443435 0.404351 0.072718 0.214249
C10   C     C_R   0.565406 0.588237 0.070282 -0.145177
C11   C     C_R   0.565468 0.588214 0.926235 -0.136558
C12   C     C_R   0.263606 0.515799 0.501705 0.961246
C13   C     C_R   0.443085 0.404607 0.930110 0.215598
C14   C     C_3   0.306469 0.368639 0.928087 -0.513374
C15   C     C_3   0.307176 0.367311 0.082079 -0.507804
C16   C     C_R   0.503411 0.740062 0.499796 0.847309
C17   C     C_R   0.738448 0.497099 0.498129 0.909362
C18   C     C_2   0.932092 0.580481 0.413581 -0.272767
C19   C     C_2   0.873036 0.491507 0.489933 -0.196525
C20   C     C_2   0.069025 0.589372 0.400463 0.507500
C21   C     C_2   0.135350 0.557858 0.509461 -0.478757
C22   C     C_R   0.520382 0.063741 0.622521 0.148286
H1    H     H_    0.877749 0.650949 0.360830 0.149187
H2    H     H_    0.471016 0.111018 0.831433 0.204907
H3    H     H_    0.616188 0.660824 0.123355 0.142390
H4    H     H_    0.616322 0.660784 0.870516 0.146742
H5    H     H_    0.246210 0.443636 0.885929 0.226011
H6    H     H_    0.291221 0.274383 0.883706 0.200073
H7    H     H_    0.246581 0.440892 0.128642 0.261995
H8    H     H_    0.293716 0.272093 0.126170 0.199563
H9    H     H_    0.089857 0.556278 0.609629 0.142414
H10   H     H_    0.557004 0.114370 0.281837 0.172234
H11   H     H_    0.556837 0.886957 0.281658 0.166459
H12   H     H_    0.335347 0.886305 0.711102 0.198998
H13   H     H_    0.470746 0.886996 0.831192 0.202028
H14   H     H_    0.335868 0.110760 0.710933 0.198331
N1    N     N_R   0.499170 0.499140 0.142800 -0.107018
N2    N     N_R   0.499170 0.499180 0.857150 -0.104155
O1    O     O_R   0.500020 0.316790 0.614690 -0.611349
O2    O     O_R   0.500000 0.316760 0.385350 -0.622932
O3    O     O_R   0.319080 0.500020 0.614640 -0.619571
O4    O     O_R   0.319070 0.499980 0.385300 -0.584090
O5    O     O_R   0.500000 0.683240 0.614650 -0.619986
O6    O     O_R   0.499980 0.683210 0.385310 -0.646032
O7    O     O_R   0.680930 0.500020 0.614700 -0.623786
O8    O     O_R   0.680920 0.499980 0.385360 -0.610017
Zn1   Zn    Zn3+2 0.500010 0.500020 0.653130 0.935831
Zn2   Zn    Zn3+2 0.499990 0.499980 0.346870 0.936957
C23   C     C_R   0.934152 0.377152 0.544862 0.103188
C24   C     C_R   0.923181 0.348105 0.683841 -0.150803
C25   C     C_R   0.982209 0.241839 0.735358 -0.138630
C26   C     C_R   0.051679 0.163325 0.648659 -0.120936
C27   C     C_R   0.062168 0.190824 0.510214 -0.154058
C28   C     C_R   0.003213 0.296850 0.458131 -0.122586
H15   H     H_    0.871097 0.408803 0.752710 0.147246
H16   H     H_    0.974440 0.220576 0.842651 0.132553
H17   H     H_    0.097203 0.081084 0.688730 0.120787
H18   H     H_    0.116040 0.130021 0.443280 0.136803
H19   H     H_    0.012038 0.316931 0.350558 0.145979
O9    O     O_3   0.123102 0.609867 0.272509 -0.645593
C29   C     C_3   0.193811 0.723279 0.269936 0.140411
H20   H     H_    0.272183 0.712130 0.193817 0.175407
H21   H     H_    0.239153 0.745965 0.368076 0.116288
C30   C     C_3   0.110992 0.832777 0.226746 -0.394088
H22   H     H_    0.064779 0.809567 0.129670 0.233906
H23   H     H_    0.036014 0.849107 0.305570 0.210990
C31   C     C_3   0.189714 0.952354 0.207895 -0.975846
H24   H     H_    0.238984 0.975987 0.303008 0.265928
H25   H     H_    0.126935 0.031272 0.181283 0.263424
H26   H     H_    0.261317 0.940139 0.124707 0.266768

loop_
_geom_bond_atom_site_label_1
_geom_bond_atom_site_label_2
_ccdc_geom_bond_type
C2    C22   A    
C11   N2    A    
C8    C22   S    
C27   H18   S    
C8    H14   S    
C6    C7    S    
C8    H2    S    
C2    C3    A    
C14   H5    S    
C29   C30   S    
C23   C28   A    
C19   C23   S    
C24   H15   S    
C11   H4    S    
C31   H26   S    
C30   H22   S    
C9    N1    A    
C24   C25   A    
O3    Zn1   S    
C7    C8    S    
O4    Zn2   S    
C13   C14   S    
C20   C21   D    
N1    Zn2   S    
O2    Zn2   S    
C21   H9    S    
C16   O5    A    
N2    Zn1   S    
C29   H20   S    
C7    H13   S    
C15   H8    S    
C10   N1    A    
C5    C6    A    
C25   H16   S    
C10   H3    S    
C17   C19   S    
C17   O7    A    
C15   H7    S    
C18   C20   S    
C28   H19   S    
O7    Zn1   S    
C9    C15   S    
C3    H10   S    
C7    H12   S    
O8    Zn2   S    
C13   N2    A    
C20   O9    S    
C26   H17   S    
C1    O1    A    
C18   H1    S    
C6    C22   A    
C30   C31   S    
O6    Zn2   S    
C4    C5    A    
C25   C26   A    
C17   O8    A    
C12   O3    A    
O1    Zn1   S    
C1    C2    S    
C10   C11   A    
C23   C24   A    
C9    C13   A    
C4    H11   S    
C18   C19   D    
C5    C16   S    
C12   O4    A    
C1    O2    A    
C14   H6    S    
C14   C15   S    
O5    Zn1   S    
C12   C21   S    
C16   O6    A    
C29   H21   S    
C3    C4    A    
C31   H24   S    
C27   C28   A    
C26   C27   A    
O9    C29   S    
C31   H25   S    
C30   H23   S    
