data_mof_unit_44678.cif
_audit_creation_date              2012-12-10T17:28:33-0500
_audit_creation_method            fapswitch 2.2
_symmetry_space_group_name_H-M    P1
_symmetry_Int_Tables_number       1
_space_group_crystal_system       triclinic
_cell_length_a                    10.592909
_cell_length_b                    12.144605
_cell_length_c                    12.87178
_cell_angle_alpha                 94.489258
_cell_angle_beta                  95.743507
_cell_angle_gamma                 86.175031
_cell_volume                      1639.6483868

loop_
_atom_site_label
_atom_site_type_symbol
_atom_type_description
_atom_site_fract_x
_atom_site_fract_y
_atom_site_fract_z
_atom_type_partial_charge
C1    C     C_R   0.494470 0.523014 0.700171 0.965430
C2    C     C_R   0.505229 0.476988 0.299785 0.967837
C3    C     C_R   0.510470 0.460512 0.187783 -0.337699
C4    C     C_R   0.488152 0.539651 0.812035 -0.347635
C5    C     C_R   0.555229 0.636857 0.976752 -0.131413
C6    C     C_R   0.442222 0.363703 0.023112 -0.144957
C7    C     C_R   0.534402 0.634404 0.868894 0.605739
C8    C     C_R   0.463773 0.365901 0.130953 0.601920
C9    C     C_R   0.445319 0.454835 0.864036 0.633038
C10   C     C_R   0.552526 0.545593 0.135697 0.631923
C11   C     C_R   0.469802 0.454861 0.971619 -0.165713
C12   C     C_R   0.527460 0.545777 0.028212 -0.150978
C13   C     C_R   0.468434 0.940802 0.365131 0.379487
C14   C     C_R   0.530773 0.059400 0.634841 0.366076
C15   C     C_R   0.435824 0.834583 0.385252 0.398982
C16   C     C_R   0.564190 0.165353 0.614709 0.392849
C17   C     C_R   0.532090 0.864384 0.559244 0.538451
C18   C     C_R   0.467378 0.135816 0.440802 0.536249
C19   C     C_R   0.512410 0.980643 0.549864 -0.315151
C20   C     C_R   0.486808 0.019535 0.450115 -0.310704
C21   C     C_R   0.738310 0.496795 0.485943 0.894067
C22   C     C_R   0.261884 0.503260 0.514425 0.894876
C23   C     C_R   0.908124 0.285807 0.485400 0.692654
C24   C     C_R   0.092600 0.714361 0.516750 0.701704
C25   C     C_R   0.972595 0.202469 0.542081 -0.157073
C26   C     C_R   0.028377 0.797913 0.460281 -0.165537
C27   C     C_R   0.082749 0.224907 0.606390 -0.091417
C28   C     C_R   0.918361 0.775703 0.395742 -0.125404
C29   C     C_R   0.135005 0.327183 0.605668 -0.068624
C30   C     C_R   0.865894 0.673407 0.395990 -0.061452
C31   C     C_R   0.071512 0.411375 0.546927 -0.018927
C32   C     C_R   0.929059 0.589004 0.454695 -0.018634
C33   C     C_R   0.949227 0.395457 0.498715 -0.029568
C34   C     C_R   0.051277 0.604823 0.503074 -0.030949
C35   C     C_R   0.127762 0.510444 0.533904 -0.139128
C36   C     C_R   0.872756 0.489788 0.467420 -0.140785
H1    H     H_    0.869605 0.840152 0.350980 0.221288
H2    H     H_    0.131969 0.160674 0.651240 0.225841
H3    H     H_    0.938161 0.119995 0.534906 0.189363
H4    H     H_    0.063042 0.880307 0.467612 0.191983
H5    H     H_    0.224346 0.340668 0.651757 0.223763
H6    H     H_    0.776779 0.660048 0.349451 0.225498
H7    H     H_    0.594177 0.709369 0.019405 0.242466
H8    H     H_    0.403270 0.291172 0.980460 0.257959
N1    N     N_R   0.523130 0.207800 0.519340 -0.229384
N2    N     N_R   0.476870 0.792200 0.480660 -0.228678
O1    O     O_R   0.506170 0.421700 0.658830 -0.552929
O2    O     O_R   0.493830 0.578300 0.341170 -0.552064
O3    O     O_R   0.491330 0.609310 0.646410 -0.530241
O4    O     O_R   0.508670 0.390690 0.353590 -0.532286
O5    O     O_R   0.690650 0.406190 0.506220 -0.541304
O6    O     O_R   0.309350 0.593810 0.493780 -0.542222
O7    O     O_R   0.675800 0.593810 0.493800 -0.595658
O8    O     O_R   0.324200 0.406190 0.506200 -0.596449
Zn1   Zn    Zn3+2 0.509910 0.374730 0.508290 1.146013
Zn2   Zn    Zn3+2 0.490090 0.625270 0.491710 1.148660
S1    S     S_3+6 0.538677 0.956214 0.247318 0.131962
O9    O     O_2   0.442116 0.946854 0.153663 -0.165843
O10   O     O_2   0.598006 0.065763 0.251773 -0.224188
O11   O     O_3   0.652421 0.854454 0.233732 -0.545269
H9    H     H_    0.688473 0.866859 0.167784 0.391973
S2    S     S_3+6 0.459209 0.044637 0.752136 0.147018
O12   O     O_2   0.359315 0.137184 0.764746 -0.275952
O13   O     O_2   0.397344 0.936159 0.746363 -0.210055
O14   O     O_3   0.566625 0.052099 0.857587 -0.413198
H10   H     H_    0.516452 0.052179 0.918531 0.402330
F1    F     F_    0.811262 0.257248 0.413052 -0.634230
F2    F     F_    0.189819 0.742428 0.588950 -0.630801
F3    F     F_    0.615481 0.629151 0.189876 -0.639380
F4    F     F_    0.383307 0.370796 0.809695 -0.626201
F5    F     F_    0.437112 0.276301 0.178723 -0.544942
F6    F     F_    0.561675 0.723790 0.821121 -0.546302
S3    S     S_3+6 0.324469 0.174265 0.360691 0.127271
O15   O     O_2   0.302825 0.293949 0.341622 -0.221193
O16   O     O_2   0.317204 0.111357 0.255674 -0.156940
O17   O     O_3   0.203437 0.136852 0.422036 -0.601494
H11   H     H_    0.129231 0.137315 0.368627 0.392598
S4    S     S_3+6 0.674670 0.826318 0.639769 0.126552
O18   O     O_2   0.680553 0.888858 0.744951 -0.156766
O19   O     O_2   0.696974 0.706533 0.658322 -0.223908
O20   O     O_3   0.795925 0.864807 0.579321 -0.598559
H12   H     H_    0.869932 0.863693 0.632830 0.393751
S5    S     S_3+6 0.680849 0.223504 0.708689 0.107276
O21   O     O_2   0.782461 0.134014 0.732047 -0.263029
O22   O     O_2   0.742628 0.319335 0.673498 -0.306444
O23   O     O_3   0.616549 0.263696 0.820367 -0.471121
H13   H     H_    0.689022 0.284917 0.871047 0.378225
S6    S     S_3+6 0.320979 0.775221 0.290539 0.099455
O24   O     O_2   0.381514 0.735505 0.192918 -0.219635
O25   O     O_2   0.255688 0.682116 0.327160 -0.311384
O26   O     O_3   0.209835 0.876007 0.259989 -0.526409
H14   H     H_    0.149958 0.841127 0.205064 0.393681

loop_
_geom_bond_atom_site_label_1
_geom_bond_atom_site_label_2
_ccdc_geom_bond_type
C30   C32   A    
C27   C29   A    
S3    O15   D    
C19   C20   A    
O20   H12   S    
C22   O8    A    
C21   C36   S    
C22   C35   S    
C6    C11   A    
C32   C36   A    
C22   O6    A    
C24   C26   A    
S4    O19   D    
S1    O10   D    
C13   S1    S    
C27   H2    S    
C14   S2    S    
C33   C36   A    
C34   C35   A    
C23   F1    S    
S2    O13   D    
C2    O4    A    
C23   C33   A    
C31   C33   A    
C18   C20   A    
C13   C20   A    
C5    H7    S    
C6    H8    S    
S3    O16   D    
C4    C7    A    
O17   H11   S    
C5    C12   A    
C3    C8    A    
C7    F6    S    
C5    C7    A    
S4    O18   D    
C1    O1    A    
S1    O11   S    
C6    C8    A    
O5    Zn1   S    
C2    O2    A    
C16   S5    S    
C24   C34   A    
O11   H9    S    
C32   C34   A    
S2    O12   D    
S5    O21   D    
S6    O26   S    
C17   N2    A    
C9    C11   A    
C10   C12   A    
S5    O22   D    
S6    O25   D    
C18   S3    S    
C13   C15   A    
S3    O17   S    
C14   C16   A    
C18   N1    A    
C21   O5    A    
O1    Zn1   S    
O7    Zn2   S    
O2    Zn2   S    
O8    Zn1   S    
C8    F5    S    
S2    O14   S    
C29   H5    S    
O23   H13   S    
C14   C19   A    
C16   N1    A    
C11   C12   A    
C25   C27   A    
O3    Zn2   S    
C26   C28   A    
O4    Zn1   S    
C1    C4    S    
C28   C30   A    
C2    C3    S    
C29   C31   A    
C3    C10   A    
C25   H3    S    
C21   O7    A    
S4    O20   S    
C26   H4    S    
S1    O9    D    
C28   H1    S    
C17   S4    S    
C17   C19   A    
C31   C35   A    
C23   C25   A    
C24   F2    S    
C9    F4    S    
C10   F3    S    
S5    O23   S    
S6    O24   D    
N1    Zn1   S    
O14   H10   S    
N2    Zn2   S    
C30   H6    S    
C15   N2    A    
C4    C9    A    
C1    O3    A    
O26   H14   S    
O6    Zn2   S    
C15   S6    S    
