data_mof_unit_47755.cif
_audit_creation_date              2013-03-05T15:50:45-0500
_audit_creation_method            fapswitch 2.2
_symmetry_space_group_name_H-M    P1
_symmetry_Int_Tables_number       1
_space_group_crystal_system       triclinic
_cell_length_a                    14.271226
_cell_length_b                    14.760428
_cell_length_c                    33.674253
_cell_angle_alpha                 97.870404
_cell_angle_beta                  90.307135
_cell_angle_gamma                 118.346068
_cell_volume                      6163.93785175

loop_
_atom_site_label
_atom_site_type_symbol
_atom_site_description
_atom_site_fract_x
_atom_site_fract_y
_atom_site_fract_z
_atom_type_partial_charge
O1    O     O_R   0.318160 0.824460 0.443680 -0.478541
O2    O     O_R   0.525040 0.857250 0.449830 -0.472224
C1    C     C_R   0.616236 0.911832 0.436346 0.586435
O3    O     O_R   0.684760 0.998800 0.456360 -0.420951
O4    O     O_R   0.647540 0.166310 0.470260 -0.463869
C2    C     C_R   0.593199 0.204637 0.456092 0.589478
O5    O     O_R   0.500960 0.181750 0.467450 -0.414967
O6    O     O_R   0.331100 0.981120 0.457080 -0.427939
C3    C     C_R   0.295422 0.893139 0.434263 0.584566
O7    O     O_R   0.315560 0.821140 0.532010 -0.466406
O8    O     O_R   0.522630 0.854180 0.531710 -0.473396
C4    C     C_R   0.614438 0.904635 0.551222 0.576495
O9    O     O_R   0.682160 0.995480 0.544690 -0.423586
O10   O     O_R   0.645130 0.163230 0.552140 -0.426592
C5    C     C_R   0.570435 0.164931 0.573256 0.579842
O11   O     O_R   0.498360 0.178430 0.555780 -0.439258
O12   O     O_R   0.328690 0.978040 0.538950 -0.460078
C6    C     C_R   0.287093 0.886752 0.548139 0.575543
Cr1   Cr    Cr6+3 0.424820 0.846020 0.489780 1.173975
Cr2   Cr    Cr6+3 0.657880 0.078580 0.505700 1.206356
Cr3   Cr    Cr6+3 0.417280 0.075360 0.504550 1.196710
O13   O     O_3   0.499990 0.999990 0.500010 -0.362506
C7    C     C_R   0.738692 0.454731 0.107321 -0.082831
C8    C     C_R   0.648097 0.436809 0.129663 0.153165
C9    C     C_R   0.644658 0.413893 0.168830 0.205552
C10   C     C_R   0.734692 0.417661 0.187920 -0.020267
C11   C     C_R   0.824279 0.433495 0.166324 0.247142
C12   C     C_R   0.825886 0.449520 0.126063 0.200848
C13   C     C_R   0.744926 0.325019 0.243850 0.236400
C14   C     C_R   0.740303 0.315128 0.284829 0.247833
C15   C     C_R   0.717056 0.381607 0.311984 0.001705
C16   C     C_R   0.708314 0.463711 0.299573 -0.072703
C17   C     C_R   0.721189 0.480941 0.259809 0.218558
C18   C     C_R   0.735322 0.408573 0.231172 0.011711
C19   C     C_R   0.588074 0.322774 0.363246 0.227449
C20   C     C_R   0.557399 0.279836 0.399050 0.196644
C21   C     C_R   0.740154 0.308775 0.412938 0.187407
C22   C     C_R   0.771330 0.359447 0.379034 0.239351
C23   C     C_R   0.693803 0.360108 0.353149 0.016675
C24   C     C_R   0.632169 0.267884 0.423088 -0.041310
H1    H     H_    0.690561 0.514065 0.321245 0.199869
C25   C     C_R   0.238404 0.876896 0.394196 -0.001530
C26   C     C_R   0.228671 0.960161 0.381306 0.195949
C27   C     C_R   0.196281 0.952490 0.340462 0.185492
C28   C     C_R   0.161304 0.858344 0.314239 0.039811
C29   C     C_R   0.157289 0.770982 0.327923 0.240143
C30   C     C_R   0.200060 0.781316 0.367249 0.161650
C31   C     C_R   0.136399 0.755578 0.168879 0.142502
C32   C     C_R   0.123138 0.743768 0.126535 0.120393
C33   C     C_R   0.120983 0.910144 0.130897 0.211534
C34   C     C_R   0.133420 0.921459 0.173574 0.278961
C35   C     C_R   0.135179 0.842264 0.192112 -0.021893
C36   C     C_1   0.137993 0.851607 0.235525 0.167195
C37   C     C_1   0.144691 0.855518 0.271562 0.193483
C38   C     C_R   0.104877 0.815833 0.107079 -0.074270
C39   C     C_R   0.635138 0.886300 0.393416 -0.039292
C40   C     C_R   0.562149 0.791701 0.368403 0.167376
C41   C     C_R   0.565851 0.782975 0.326055 0.214003
C42   C     C_R   0.644742 0.866952 0.308916 0.001882
C43   C     C_R   0.719638 0.958203 0.333477 0.223415
C44   C     C_R   0.719037 0.965471 0.375739 0.186422
C45   C     C_R   0.767558 0.921269 0.173695 0.227085
C46   C     C_R   0.786529 0.912798 0.132666 0.176972
C47   C     C_R   0.609330 0.760599 0.118289 0.291365
C48   C     C_R   0.594046 0.765285 0.159453 0.300901
C49   C     C_R   0.674778 0.845126 0.187436 -0.047892
C50   C     C_1   0.662429 0.853161 0.230172 0.076760
C51   C     C_1   0.653590 0.859486 0.265926 0.113012
C52   C     C_R   0.710617 0.825824 0.105069 -0.106476
H2    H     H_    0.839635 0.375137 0.910335 0.205262
C53   C     C_R   0.597668 0.202961 0.617406 -0.003549
C54   C     C_R   0.520399 0.210620 0.641675 0.160784
C55   C     C_R   0.540181 0.237077 0.684168 0.181782
C56   C     C_R   0.640464 0.257300 0.701819 -0.053837
C57   C     C_R   0.720479 0.255632 0.677436 0.226328
C58   C     C_R   0.697589 0.224869 0.635542 0.256274
C59   C     C_R   0.769644 0.329986 0.849352 0.212344
C60   C     C_R   0.771812 0.361069 0.890874 -0.097428
C61   C     C_R   0.603932 0.363486 0.881682 0.223405
C62   C     C_R   0.599179 0.328910 0.840879 -0.052983
C63   C     C_R   0.681902 0.315273 0.824220 -0.025427
C64   C     C_1   0.673725 0.291871 0.781144 0.113132
C65   C     C_1   0.660139 0.275214 0.745001 0.096607
C66   C     C_R   0.692183 0.381771 0.907352 -0.016826
H3    H     H_    0.532317 0.318357 0.821734 0.224675
C67   C     C_R   0.058971 0.748303 0.906859 0.020883
C68   C     C_R   0.097596 0.848394 0.896339 0.222991
C69   C     C_R   0.109050 0.860527 0.855511 0.188654
C70   C     C_R   0.092651 0.775453 0.826453 -0.057160
C71   C     C_R   0.063491 0.676852 0.837405 0.172643
C72   C     C_R   0.043642 0.663107 0.877604 0.171154
C73   C     C_R   0.193121 0.782332 0.767095 -0.009533
C74   C     C_R   0.212919 0.794748 0.727334 0.274284
C75   C     C_R   0.144486 0.815582 0.703603 0.031401
C76   C     C_R   0.057645 0.824339 0.720985 0.343904
C77   C     C_R   0.041546 0.815169 0.761449 0.368730
C78   C     C_R   0.108853 0.791836 0.784384 -0.003013
C79   C     C_R   0.183774 0.923043 0.648800 0.184181
C80   C     C_R   0.205286 0.938947 0.608530 0.176946
C81   C     C_R   0.183142 0.761982 0.593655 0.185980
C82   C     C_R   0.155788 0.744834 0.632850 0.154987
C83   C     C_R   0.162744 0.828026 0.660985 -0.090933
C84   C     C_R   0.218847 0.861556 0.582545 -0.033873
H4    H     H_    0.244154 0.764502 0.784911 0.189900
C85   C     C_R   0.676303 0.751420 0.909741 -0.080081
C86   C     C_R   0.576360 0.676985 0.889033 0.149684
C87   C     C_R   0.558621 0.678408 0.847661 0.223363
C88   C     C_R   0.639621 0.750612 0.827376 0.089623
C89   C     C_R   0.737410 0.824789 0.847610 0.247203
C90   C     C_R   0.751794 0.832602 0.889227 0.151475
C91   C     C_R   0.630624 0.849653 0.775480 0.286599
C92   C     C_R   0.635399 0.865288 0.735474 -0.071378
C93   C     C_R   0.635364 0.790668 0.704810 -0.008666
C94   C     C_R   0.622340 0.694239 0.713739 0.278562
C95   C     C_R   0.613598 0.676156 0.753834 0.253936
C96   C     C_R   0.622542 0.756044 0.784813 0.086589
C97   C     C_R   0.560229 0.744816 0.634619 -0.145775
C98   C     C_R   0.556796 0.766348 0.595871 0.139639
C99   C     C_R   0.723804 0.930697 0.614442 0.210318
C100  C     C_R   0.726921 0.906471 0.653430 0.185290
C101  C     C_R   0.642971 0.813811 0.663416 -0.077270
C102  C     C_R   0.634523 0.864307 0.586506 0.007599
H5    H     H_    0.641655 0.937267 0.728204 0.147888
H6    H     H_    0.497121 0.673317 0.642701 0.219649
O14   O     O_R   0.828710 0.851830 0.052170 -0.442291
O15   O     O_R   0.005980 0.823990 0.047210 -0.493065
C103  C     C_R   0.050915 0.779352 0.064738 0.540767
O16   O     O_R   0.031900 0.688850 0.050170 -0.467660
O17   O     O_R   0.830940 0.518420 0.048680 -0.502372
C104  C     C_R   0.745406 0.489818 0.067189 0.555556
O18   O     O_R   0.668160 0.499860 0.053480 -0.434598
O19   O     O_R   0.689170 0.693840 0.050110 -0.470260
C105  C     C_R   0.742199 0.790373 0.066109 0.538216
O20   O     O_R   0.803860 0.812940 0.962540 -0.445957
O21   O     O_R   0.982950 0.787950 0.964120 -0.439704
C106  C     C_R   0.019278 0.730347 0.946888 0.614375
O22   O     O_R   0.007050 0.649970 0.960540 -0.469666
O23   O     O_R   0.807910 0.482370 0.965590 -0.503176
C107  C     C_R   0.712990 0.439244 0.948879 0.550699
O24   O     O_R   0.643310 0.460980 0.963840 -0.468976
O25   O     O_R   0.666140 0.657800 0.967020 -0.472778
C108  C     C_R   0.712487 0.740887 0.949797 0.562923
Cr4   Cr    Cr6+3 0.903360 0.812540 0.006510 1.180123
Cr5   Cr    Cr6+3 0.914630 0.587050 0.006280 1.109113
Cr6   Cr    Cr6+3 0.673560 0.582680 0.008540 1.172361
O26   O     O_3   0.830520 0.660760 0.007110 -0.313945
N1    N     N_R   0.563476 0.452942 0.114800 0.135050
O27   O     O_R   0.465523 0.376155 0.108872 -0.199427
O28   O     O_R   0.580384 0.548546 0.116552 -0.227900
O29   O     O_3   0.452747 0.241497 0.409162 -0.631424
H7    H     H_    0.424992 0.287909 0.401830 0.355766
N2    N     N_R   0.913249 0.429017 0.184585 0.152076
O30   O     O_R   0.954375 0.478354 0.220727 -0.266846
O31   O     O_R   0.948809 0.369356 0.166028 -0.134574
N3    N     N_R   0.818611 0.294287 0.435074 0.142783
O32   O     O_R   0.837017 0.322256 0.474394 -0.249050
O33   O     O_R   0.884018 0.269629 0.414800 -0.209679
N4    N     N_R   0.117946 0.651318 0.103876 -0.044998
O34   O     O_R   0.198886 0.655438 0.084790 -0.000238
O35   O     O_R   0.199013 0.655447 0.084767 -0.000238
N5    N     N_R   0.149953 0.678640 0.187696 0.123162
O36   O     O_R   0.117861 0.584343 0.168668 -0.151954
O37   O     O_R   0.196234 0.701836 0.224026 -0.259451
O38   O     O_3   0.116799 0.678246 0.301254 -0.597288
H8    H     H_    0.119474 0.623325 0.314463 0.402017
O39   O     O_3   0.207195 0.698264 0.378415 -0.611889
H9    H     H_    0.284722 0.719632 0.379069 0.373520
O40   O     O_3   0.251849 0.047988 0.408923 -0.610198
H10   H     H_    0.218039 0.086541 0.398895 0.362156
O41   O     O_3   0.144072 0.009449 0.198417 -0.610357
H11   H     H_    0.143247 0.060088 0.182116 0.424536
O42   O     O_3   0.126900 0.993198 0.114180 -0.606760
H12   H     H_    0.129533 0.980412 0.084581 0.364972
O43   O     O_3   0.918368 0.467916 0.107541 -0.583024
H13   H     H_    0.898031 0.431002 0.079289 0.358542
O44   O     O_3   0.201398 0.036708 0.325011 -0.643724
H14   H     H_    0.265304 0.100581 0.338406 0.346040
N6    N     N_R   0.882563 0.993159 0.119682 0.148145
O45   O     O_R   0.971465 0.036405 0.142563 -0.221526
O46   O     O_R   0.876318 0.038335 0.089829 -0.226371
O47   O     O_3   0.837904 0.007633 0.200214 -0.533084
H15   H     H_    0.883070 0.985011 0.214725 0.359670
O48   O     O_3   0.791444 0.040321 0.315343 -0.624358
H16   H     H_    0.814155 0.106783 0.333886 0.373318
O49   O     O_3   0.799955 0.049864 0.400303 -0.607622
H17   H     H_    0.867308 0.072866 0.386863 0.367332
N7    N     N_R   0.488062 0.702574 0.385869 0.115605
O50   O     O_R   0.519418 0.679879 0.417699 -0.261981
O51   O     O_R   0.397589 0.633215 0.366234 -0.213333
O52   O     O_3   0.498179 0.690654 0.170631 -0.530703
H18   H     H_    0.502111 0.691965 0.200136 0.337573
O53   O     O_3   0.523629 0.688931 0.091842 -0.532063
H19   H     H_    0.533315 0.712818 0.065306 0.338007
O54   O     O_3   0.492314 0.690724 0.302496 -0.556014
H20   H     H_    0.488689 0.701046 0.274174 0.339680
O55   O     O_3   0.878243 0.404795 0.371356 -0.588823
H21   H     H_    0.892268 0.451939 0.351214 0.336373
N8    N     N_R   0.858120 0.317784 0.833951 0.131480
O56   O     O_R   0.931832 0.323175 0.858684 -0.236409
O57   O     O_R   0.870485 0.308389 0.795544 -0.259350
O58   O     O_3   0.822498 0.283517 0.693030 -0.592313
H22   H     H_    0.832810 0.310818 0.722213 0.392123
O59   O     O_3   0.772377 0.216032 0.611493 -0.582224
H23   H     H_    0.833113 0.221810 0.628013 0.418792
O60   O     O_3   0.422931 0.186126 0.623254 -0.583674
H24   H     H_    0.412960 0.248971 0.630530 0.396546
O61   O     O_3   0.522849 0.382212 0.895104 -0.588651
H25   H     H_    0.556138 0.458819 0.904156 0.360624
N9    N     N_R   0.457891 0.240260 0.708879 0.124222
O62   O     O_R   0.358194 0.197026 0.694385 -0.176858
O63   O     O_R   0.481309 0.288951 0.745949 -0.283876
O64   O     O_3   0.125478 0.932120 0.926937 -0.614274
H26   H     H_    0.144856 0.996948 0.915592 0.379963
O65   O     O_3   0.996302 0.564085 0.887279 -0.643514
H27   H     H_    0.053711 0.544122 0.888037 0.391036
N10   N     N_R   0.124896 0.644246 0.644320 0.131504
O66   O     O_R   0.175974 0.593113 0.632635 -0.221972
O67   O     O_R   0.049272 0.605597 0.668400 -0.244976
O68   O     O_3   0.748774 0.234948 0.298185 -0.629074
H28   H     H_    0.824536 0.251472 0.295788 0.381418
O69   O     O_3   0.299029 0.784369 0.713258 -0.640609
H29   H     H_    0.314385 0.806447 0.686535 0.331613
O70   O     O_3   0.137370 0.954860 0.843112 -0.633603
H30   H     H_    0.087275 0.979004 0.854320 0.355392
O71   O     O_3   0.985084 0.840271 0.699394 -0.575404
H31   H     H_    0.987156 0.821091 0.670229 0.324013
O72   O     O_3   0.957422 0.827302 0.776755 -0.558399
H32   H     H_    0.943594 0.804751 0.803482 0.329812
O73   O     O_3   0.190075 0.001941 0.677830 -0.560639
H33   H     H_    0.126737 0.011088 0.672044 0.392594
N11   N     N_R   0.208883 0.029318 0.594128 0.132779
O74   O     O_R   0.186636 0.025282 0.555968 -0.272749
O75   O     O_R   0.210558 0.106032 0.619193 -0.219887
N12   N     N_R   0.048971 0.589333 0.807825 0.113662
O76   O     O_R   0.011100 0.577213 0.770923 -0.265905
O77   O     O_R   0.081302 0.525048 0.816829 -0.202087
O78   O     O_3   0.169045 0.679355 0.565111 -0.567147
H34   H     H_    0.229264 0.665837 0.570907 0.395833
N13   N     N_R   0.490300 0.607671 0.910388 0.102508
O79   O     O_R   0.415682 0.518060 0.891916 -0.233789
O80   O     O_R   0.476829 0.640763 0.946735 -0.276775
N14   N     N_R   0.754219 0.247709 0.215293 0.123480
O81   O     O_R   0.820973 0.214490 0.223211 -0.188832
O82   O     O_R   0.697821 0.211538 0.180720 -0.283725
N15   N     N_R   0.837983 0.928437 0.910447 0.100200
O83   O     O_R   0.931315 0.934851 0.917482 -0.312714
O84   O     O_R   0.833397 0.014749 0.910461 -0.236795
N16   N     N_R   0.811688 0.978477 0.683279 0.065663
O85   O     O_R   0.837295 0.076821 0.689716 -0.259170
O86   O     O_R   0.859590 0.945212 0.705754 -0.212478
O87   O     O_3   0.637997 0.926133 0.806265 -0.616906
H35   H     H_    0.652349 0.989944 0.795054 0.349396
O88   O     O_3   0.460837 0.612824 0.826963 -0.592157
H36   H     H_    0.456429 0.542934 0.822140 0.391231
O89   O     O_3   0.621845 0.617570 0.684638 -0.606777
H37   H     H_    0.655218 0.648162 0.660701 0.344063
N17   N     N_R   0.599013 0.577553 0.762517 0.108916
O90   O     O_R   0.656124 0.572966 0.791751 -0.356949
O91   O     O_R   0.531444 0.491471 0.739719 -0.184142
N18   N     N_R   0.474528 0.687270 0.566620 0.099651
O92   O     O_R   0.383506 0.621266 0.578371 -0.281530
O93   O     O_R   0.498850 0.665503 0.530604 -0.246528
O94   O     O_3   0.816272 0.891400 0.825743 -0.596437
H38   H     H_    0.885083 0.932204 0.842560 0.375248
N19   N     N_R   0.551076 0.392653 0.190287 0.128409
O95   O     O_R   0.507931 0.311644 0.208564 -0.255077
O96   O     O_R   0.514194 0.458695 0.194453 -0.166787
O97   O     O_3   0.805809 0.019486 0.603129 -0.610348
H39   H     H_    0.872698 0.040141 0.619546 0.382173
N20   N     N_R   0.715846 0.569869 0.248940 0.107565
O98   O     O_R   0.770717 0.618035 0.220579 -0.338853
O99   O     O_R   0.662502 0.608505 0.269663 -0.268656
O100  O     O_3   0.515295 0.323067 0.335956 -0.631052
H40   H     H_    0.442911 0.265413 0.338831 0.352894

loop_
_geom_bond_atom_site_label_1
_geom_bond_atom_site_label_2
_geom_bond_distance
_ccdc_geom_bond_type
Cr4   O26   1.975162 S    
C80   C84   1.430394 A    
C85   C90   1.443109 A    
C57   C58   1.407808 A    
C11   N2    1.441217 S    
C17   N20   1.445355 S    
N3    O33   1.315778 A    
C68   O64   1.388226 S    
C21   N3    1.455040 S    
C76   C77   1.397183 A    
C56   C65   1.443250 S    
O59   H23   0.989784 S    
C20   O29   1.386504 S    
N12   O76   1.307035 A    
N5    O36   1.305711 A    
C57   O58   1.388689 S    
C58   O59   1.387273 S    
O94   H38   0.993360 S    
O17   Cr5   1.938232 S    
C59   C60   1.405994 A    
O42   H12   0.993017 S    
C94   O89   1.389131 S    
C71   N12   1.447464 S    
C10   C11   1.410975 A    
C82   C83   1.407120 A    
C46   N6    1.442647 S    
C26   O40   1.383529 S    
O19   Cr6   1.929208 S    
C55   N9    1.458057 S    
O38   H8    0.992178 S    
N1    O28   1.306437 A    
N13   O79   1.304032 A    
C91   C92   1.394257 A    
O17   C104  1.283595 A    
C72   O65   1.376218 S    
O2    C1    1.288390 A    
C67   C72   1.413123 A    
Cr6   O26   1.978156 S    
O4    C2    1.278923 A    
C62   C63   1.396704 A    
C61   O61   1.376524 S    
C99   C102  1.420465 A    
C98   N18   1.443086 S    
O41   H11   0.990356 S    
C99   O97   1.384708 S    
C82   N10   1.444043 S    
C91   O87   1.387677 S    
C95   C96   1.419070 A    
C79   O73   1.381220 S    
O47   H15   1.005685 S    
O15   Cr4   1.931775 S    
O78   H34   0.994053 S    
C88   C89   1.394700 A    
C87   O88   1.375607 S    
N17   O90   1.303854 A    
C98   C102  1.423436 A    
C97   C101  1.395419 A    
O43   H13   0.995543 S    
C73   C74   1.388592 A    
N1    O27   1.307329 A    
C47   O53   1.381951 S    
O20   Cr4   2.048550 S    
O25   C108  1.306332 A    
C10   C18   1.481180 S    
O49   H17   0.990381 S    
O70   H30   0.994261 S    
C66   C107  1.481482 S    
C22   O55   1.387333 S    
O6    C3    1.276997 A    
O14   Cr4   2.048282 S    
N14   O82   1.303801 A    
C7    C8    1.431006 A    
N8    O57   1.303717 A    
N8    O56   1.303662 A    
C16   H1    1.086951 S    
O53   H19   0.991554 S    
C89   O94   1.389937 S    
C13   C14   1.405995 A    
O21   C106  1.270868 A    
N19   O95   1.301582 A    
O25   Cr6   1.931311 S    
C25   C30   1.422747 A    
C11   C12   1.406236 A    
C69   C70   1.403959 A    
C43   O48   1.386399 S    
O21   Cr4   1.930409 S    
C49   C50   1.446366 S    
C100  C101  1.411856 A    
C16   C17   1.393879 A    
C42   C43   1.399647 A    
C29   O38   1.385909 S    
N15   O83   1.307644 A    
N4    O35   1.306925 A    
N12   O77   1.303164 A    
C46   C52   1.423789 A    
C92   C93   1.402636 A    
N5    O37   1.308432 A    
O73   H33   0.997231 S    
N16   O86   1.302389 A    
C73   C78   1.396505 A    
O71   H31   0.988790 S    
C40   C41   1.417721 A    
C34   O41   1.386846 S    
C55   C56   1.423817 A    
C22   C23   1.409331 A    
O7    C6    1.276666 A    
N9    O62   1.309527 A    
O1    Cr1   2.051230 S    
C40   N7    1.446469 S    
C56   C57   1.417721 A    
C45   C49   1.402261 A    
C34   C35   1.408672 A    
C77   O72   1.387300 S    
N6    O45   1.302541 A    
C20   C24   1.426036 A    
Cr1   O13   1.975090 S    
C17   C18   1.426974 A    
C8    C9    1.401255 A    
C92   H5    1.085390 S    
N18   O93   1.303217 A    
C33   O42   1.384967 S    
C95   N17   1.441056 S    
C86   C87   1.419415 A    
C85   C108  1.495486 S    
O4    Cr2   1.930194 S    
C30   O39   1.378007 S    
O65   H27   0.994894 S    
C54   C55   1.420470 A    
C31   N5    1.460477 S    
C33   C34   1.424087 A    
C41   C42   1.419437 A    
C79   C83   1.408770 A    
C13   C18   1.423439 A    
C41   O54   1.386775 S    
C81   C84   1.414663 A    
C63   C64   1.435167 S    
C1    O3    1.273707 A    
O61   H25   0.995556 S    
C7    C104  1.499883 S    
C70   C78   1.470740 S    
C43   C44   1.412830 A    
N17   O91   1.301959 A    
C19   C20   1.413674 A    
N4    O34   1.305008 A    
C21   C22   1.408601 A    
C19   C23   1.401162 A    
C50   C51   1.206758 T    
C76   O71   1.387887 S    
O52   H18   0.991871 S    
C62   H3    1.084055 S    
O88   H36   0.993436 S    
O19   C105  1.286333 A    
O10   Cr2   1.929685 S    
C42   C51   1.447505 S    
O20   C108  1.252092 A    
O69   H29   0.989243 S    
O16   Cr5   2.054361 S    
C1    C39   1.502047 S    
C9    N19   1.441809 S    
O72   H32   0.990656 S    
O10   C5    1.292768 A    
C59   C63   1.418253 A    
O7    Cr1   2.052194 S    
C99   C100  1.412991 A    
N10   O66   1.303848 A    
O8    Cr1   1.931122 S    
C77   C78   1.420132 A    
C45   C46   1.409472 A    
C44   O49   1.382411 S    
O12   C6    1.272933 A    
C3    C25   1.501464 S    
C69   O70   1.379526 S    
O1    C3    1.277823 A    
C81   O78   1.376853 S    
N13   O80   1.304457 A    
C74   C75   1.425178 A    
C47   C52   1.420319 A    
C48   O52   1.383790 S    
N19   O96   1.302900 A    
C2    O5    1.269532 A    
C90   N15   1.444317 S    
Cr5   O26   1.964059 S    
O40   H10   0.991101 S    
N11   O74   1.308534 A    
O22   Cr5   2.055453 S    
N2    O31   1.304074 A    
C28   C37   1.446986 S    
C64   C65   1.204016 T    
C86   N13   1.445692 S    
N11   O75   1.306720 A    
C26   C27   1.420941 A    
O39   H9    0.995270 S    
N20   O99   1.304114 A    
C32   N4    1.438068 S    
C7    C12   1.431246 A    
C25   C26   1.423291 A    
C87   C88   1.405942 A    
C36   C37   1.208054 T    
C103  O16   1.254453 A    
C53   C58   1.417642 A    
O68   H28   0.995474 S    
N16   O85   1.302655 A    
C93   C94   1.420362 A    
C59   N8    1.446763 S    
H2    C60   1.083760 S    
C67   C106  1.473599 S    
C39   C40   1.425327 A    
O60   H24   1.002103 S    
C29   C30   1.413197 A    
O44   H14   0.993333 S    
C52   C105  1.496823 S    
C80   N11   1.459322 S    
O9    Cr2   2.046515 S    
N14   O81   1.302208 A    
O2    Cr1   1.933777 S    
C67   C68   1.408580 A    
C97   H6    1.085208 S    
C15   C16   1.393062 A    
C27   C28   1.400193 A    
C27   O44   1.383002 S    
Cr2   O13   1.977890 S    
O55   H21   0.991362 S    
C8    N1    1.436961 S    
O6    Cr3   1.936035 S    
O24   Cr6   2.048188 S    
C38   C103  1.516638 S    
N6    O46   1.304681 A    
C107  O24   1.268739 A    
O11   Cr3   2.053706 S    
C94   C95   1.406622 A    
C54   O60   1.379171 S    
O87   H35   0.993291 S    
C21   C24   1.426513 A    
C93   C101  1.472486 S    
C5    C53   1.494849 S    
C85   C86   1.420981 A    
O14   C105  1.275455 A    
C33   C38   1.422110 A    
O29   H7    0.995033 S    
O58   H22   0.991694 S    
C91   C96   1.410374 A    
C53   C54   1.413991 A    
C88   C96   1.471881 S    
N15   O84   1.306280 A    
C104  O18   1.272320 A    
C9    C10   1.407402 A    
N7    O50   1.302628 A    
O5    Cr3   2.055585 S    
C97   C98   1.390547 A    
N18   O92   1.304793 A    
C45   O47   1.376139 S    
O54   H20   0.991059 S    
C14   C15   1.405615 A    
C12   O43   1.385508 S    
C71   C72   1.406610 A    
C61   C66   1.417003 A    
O23   Cr5   1.935883 S    
O15   C103  1.302841 A    
C31   C32   1.413185 A    
C5    O11   1.290067 A    
C47   C48   1.401850 A    
C81   C82   1.400580 A    
N9    O63   1.307015 A    
C15   C23   1.468955 S    
O18   Cr6   2.051564 S    
C2    C24   1.487870 S    
C6    C84   1.488412 S    
C48   C49   1.413883 A    
C32   C38   1.442515 A    
C75   C76   1.426315 A    
O48   H16   0.992714 S    
O12   Cr3   1.936656 S    
C60   C66   1.408113 A    
N7    O51   1.304846 A    
O23   C107  1.277400 A    
C73   H4    1.086352 S    
C61   C62   1.388180 A    
O3    Cr2   2.048017 S    
N10   O67   1.303513 A    
C28   C29   1.404022 A    
C31   C35   1.413066 A    
C4    C102  1.483343 S    
O64   H26   0.994012 S    
C75   C83   1.480545 S    
C68   C69   1.411052 A    
C79   C80   1.418251 A    
C19   O100  1.385063 S    
C13   N14   1.445360 S    
C89   C90   1.396276 A    
N3    O32   1.317640 A    
C39   C44   1.422341 A    
C106  O22   1.266098 A    
C74   O69   1.386887 S    
N2    O30   1.303766 A    
C100  N16   1.441116 S    
C4    O9    1.277862 A    
C70   C71   1.414521 A    
Cr3   O13   1.963828 S    
N20   O98   1.302328 A    
O89   H37   0.989950 S    
O8    C4    1.277965 A    
C35   C36   1.447990 S    
O97   H39   0.990780 S    
C14   O68   1.377899 S    
O100  H40   0.994757 S    
