data_mof_unit_58354.cif
_audit_creation_date              2012-12-10T17:02:19-0500
_audit_creation_method            fapswitch 2.2
_symmetry_space_group_name_H-M    P1
_symmetry_Int_Tables_number       1
_space_group_crystal_system       triclinic
_cell_length_a                    10.653703
_cell_length_b                    10.728584
_cell_length_c                    10.045046
_cell_angle_alpha                 89.977001
_cell_angle_beta                  89.652477
_cell_angle_gamma                 90.108318
_cell_volume                      1148.11692572

loop_
_atom_site_label
_atom_site_type_symbol
_atom_type_description
_atom_site_fract_x
_atom_site_fract_y
_atom_site_fract_z
_atom_type_partial_charge
C1    C     C_R   0.496281 0.262744 0.499944 0.992745
C2    C     C_2   0.481764 0.131276 0.500214 -0.322527
C3    C     C_2   0.573238 0.570579 0.924517 -0.117950
C4    C     C_R   0.260859 0.500205 0.500436 0.879963
C5    C     C_2   0.568599 0.575071 0.074474 -0.118626
C6    C     C_R   0.501963 0.737290 0.499861 0.887028
C7    C     C_R   0.739184 0.499158 0.499493 0.955352
C8    C     C_R   0.130845 0.730427 0.483227 -0.146485
C9    C     C_R   0.065683 0.842634 0.473975 -0.138300
C10   C     C_R   0.935229 0.842348 0.472381 -0.131659
C11   C     C_R   0.869862 0.729852 0.480000 -0.155286
C12   C     C_R   0.065740 0.615157 0.491185 0.047025
C13   C     C_R   0.934709 0.614895 0.489512 0.051728
C14   C     C_3   0.135304 0.261550 0.520736 -0.921194
C15   C     C_2   0.865323 0.263650 0.512235 0.371575
C16   C     C_R   0.128479 0.500121 0.501441 -0.095914
C17   C     C_R   0.065359 0.384829 0.511039 0.107870
C18   C     C_R   0.934709 0.384627 0.507489 -0.017690
C19   C     C_R   0.871738 0.499601 0.497679 -0.177132
C20   C     C_2   0.486482 0.932835 0.388469 -0.177600
C21   C     C_2   0.511579 0.869053 0.499233 -0.332889
C22   C     C_2   0.493989 0.066831 0.387359 -0.115092
H1    H     H_    0.457553 0.088653 0.594842 0.141576
H2    H     H_    0.462341 0.886559 0.295838 0.176152
H3    H     H_    0.542831 0.912272 0.590776 0.155559
H4    H     H_    0.509706 0.112288 0.291998 0.180370
H5    H     H_    0.113299 0.215988 0.617344 0.229135
H6    H     H_    0.106695 0.199113 0.438089 0.238840
H7    H     H_    0.238372 0.270663 0.514517 0.233430
H8    H     H_    0.897089 0.188762 0.576197 0.068617
H9    H     H_    0.640309 0.631046 0.874577 0.161494
H10   H     H_    0.433665 0.448304 0.898232 0.165025
H11   H     H_    0.627157 0.643721 0.123537 0.160431
H12   H     H_    0.450335 0.432364 0.102571 0.164075
H13   H     H_    0.232201 0.735049 0.484462 0.128007
H14   H     H_    0.116578 0.929948 0.468164 0.140127
H15   H     H_    0.884495 0.929436 0.465261 0.152722
H16   H     H_    0.768558 0.733946 0.478319 0.121821
N1    N     N_2   0.501340 0.501330 0.852150 -0.191270
N2    N     N_2   0.501380 0.501360 0.147810 -0.190557
O1    O     O_R   0.499980 0.319060 0.613040 -0.622462
O2    O     O_R   0.500020 0.319100 0.386900 -0.597282
O3    O     O_R   0.316750 0.499980 0.613090 -0.614605
O4    O     O_R   0.316790 0.500020 0.386950 -0.616030
O5    O     O_R   0.499980 0.680900 0.613100 -0.617977
O6    O     O_R   0.500020 0.680940 0.386960 -0.621039
O7    O     O_R   0.683210 0.499980 0.613050 -0.623827
O8    O     O_R   0.683250 0.500020 0.386910 -0.583977
O9    O     O_2   0.775442 0.244608 0.440353 -0.580166
Zn1   Zn    Zn3+2 0.499970 0.499970 0.650990 0.950002
Zn2   Zn    Zn3+2 0.500030 0.500030 0.349010 0.966869

loop_
_geom_bond_atom_site_label_1
_geom_bond_atom_site_label_2
_ccdc_geom_bond_type
C2    C22   D    
C11   H16   S    
O3    Zn1   S    
C4    C16   S    
C6    O5    A    
C14   H5    S    
C9    H14   S    
N2    Zn2   S    
C4    O4    A    
C9    C10   A    
O1    Zn1   S    
C15   C18   S    
O2    Zn2   S    
C8    C12   A    
C7    O8    A    
C17   C18   A    
C3    N1    D    
C12   C13   A    
C3    H9    S    
C11   C13   A    
C14   C17   S    
O5    Zn1   S    
C10   H15   S    
H12   N2    S    
O4    Zn2   S    
C1    O1    A    
C4    O3    A    
C20   C22   S    
C1    C2    S    
O7    Zn1   S    
C7    C19   S    
C15   O9    D    
H10   N1    S    
C10   C11   A    
C13   C19   A    
C14   H7    S    
C12   C16   A    
C1    O2    A    
N1    Zn1   S    
C20   C21   D    
C15   H8    S    
C18   C19   A    
C22   H4    S    
C5    N2    D    
C2    H1    S    
C21   H3    S    
C8    C9    A    
C6    O6    A    
C14   H6    S    
C6    C21   S    
O6    Zn2   S    
O8    Zn2   S    
C20   H2    S    
C7    O7    A    
C16   C17   A    
C3    C5    S    
C8    H13   S    
C5    H11   S    
