data_mof_unit_54515.cif
_audit_creation_date              2012-12-10T17:46:29-0500
_audit_creation_method            fapswitch 2.2
_symmetry_space_group_name_H-M    P1
_symmetry_Int_Tables_number       1
_space_group_crystal_system       triclinic
_cell_length_a                    20.891017
_cell_length_b                    21.092419
_cell_length_c                    14.688983
_cell_angle_alpha                 89.429984
_cell_angle_beta                  128.127148
_cell_angle_gamma                 90.109273
_cell_volume                      5091.2843994

loop_
_atom_site_label
_atom_site_type_symbol
_atom_type_description
_atom_site_fract_x
_atom_site_fract_y
_atom_site_fract_z
_atom_type_partial_charge
C1    C     C_R   0.605004 0.915534 0.635063 0.794941
C2    C     C_R   0.398682 0.087922 0.369669 0.815814
C3    C     C_R   0.397583 0.913062 0.368542 0.819428
C4    C     C_R   0.603250 0.085724 0.632373 0.818404
C5    C     C_R   0.105001 0.415531 0.635060 0.795006
C6    C     C_R   0.898680 0.587920 0.369666 0.815810
C7    C     C_R   0.897584 0.413061 0.368543 0.819445
C8    C     C_R   0.103250 0.585723 0.632373 0.818413
C9    C     C_R   0.265889 0.814222 0.860344 0.237330
C10   C     C_R   0.654155 0.231839 0.058431 0.237879
C11   C     C_R   0.655121 0.772151 0.063494 0.243298
C12   C     C_R   0.388636 0.338580 0.071935 0.232457
C13   C     C_R   0.765895 0.314219 0.860349 0.237330
C14   C     C_R   0.154159 0.731833 0.058439 0.237872
C15   C     C_R   0.155132 0.272158 0.063516 0.243271
C16   C     C_R   0.888633 0.838567 0.071924 0.232454
C17   C     C_R   0.322796 0.012262 0.664289 0.490904
C18   C     C_R   0.678413 0.002627 0.336680 0.483375
C19   C     C_R   0.822795 0.512255 0.664288 0.490902
C20   C     C_R   0.178412 0.502644 0.336679 0.483374
C21   C     C_R   0.352286 0.006259 0.601916 -0.019966
C22   C     C_R   0.648106 0.001151 0.398550 -0.018107
C23   C     C_R   0.852286 0.506256 0.601916 -0.019970
C24   C     C_R   0.148106 0.501160 0.398549 -0.018108
C25   C     C_R   0.487860 0.998410 0.775589 -0.044640
C26   C     C_R   0.512508 0.000686 0.224419 -0.042430
C27   C     C_R   0.987859 0.498412 0.775589 -0.044690
C28   C     C_R   0.012508 0.500683 0.224419 -0.042428
C29   C     C_R   0.462125 0.005374 0.844720 -0.101459
C30   C     C_R   0.539170 0.004208 0.155873 -0.099593
C31   C     C_R   0.962124 0.505375 0.844720 -0.101440
C32   C     C_R   0.039169 0.504211 0.155872 -0.099597
C33   C     C_R   0.377418 0.012235 0.785818 0.036128
C34   C     C_R   0.624255 0.003885 0.215115 0.023304
C35   C     C_R   0.877417 0.512230 0.785817 0.036125
C36   C     C_R   0.124254 0.503899 0.215114 0.023304
C37   C     C_R   0.516767 0.005503 0.968955 0.111670
C38   C     C_R   0.484933 0.007784 0.031812 0.113656
C39   C     C_R   0.016766 0.505508 0.968954 0.111688
C40   C     C_R   0.984931 0.507783 0.031811 0.113659
C41   C     C_R   0.400143 0.014990 0.968630 -0.278868
C42   C     C_R   0.602029 0.004500 0.032382 -0.283611
C43   C     C_R   0.900141 0.514981 0.968629 -0.278863
C44   C     C_R   0.102027 0.504517 0.032381 -0.283644
C45   C     C_R   0.347991 0.018423 0.848580 -0.155548
C46   C     C_R   0.654389 0.004678 0.152650 -0.161769
C47   C     C_R   0.847988 0.518414 0.848579 -0.155553
C48   C     C_R   0.154388 0.504700 0.152649 -0.161812
C49   C     C_R   0.655310 0.139744 0.698696 -0.130641
C50   C     C_R   0.336965 0.864290 0.291382 -0.142411
C51   C     C_R   0.340695 0.139772 0.297178 -0.148557
C52   C     C_R   0.677603 0.881138 0.730430 -0.145076
C53   C     C_R   0.155312 0.639744 0.698698 -0.130636
C54   C     C_R   0.836969 0.364287 0.291387 -0.142408
C55   C     C_R   0.840689 0.639768 0.297170 -0.148551
C56   C     C_R   0.177603 0.381143 0.730437 -0.144931
C57   C     C_R   0.716521 0.238318 0.701288 0.275342
C58   C     C_R   0.222945 0.797206 0.236613 0.276182
C59   C     C_R   0.206975 0.185396 0.208820 0.267580
C60   C     C_R   0.824799 0.886157 0.876880 0.267894
C61   C     C_R   0.216522 0.738319 0.701289 0.275338
C62   C     C_R   0.722950 0.297202 0.236617 0.276152
C63   C     C_R   0.706962 0.685388 0.208798 0.267583
C64   C     C_R   0.324802 0.386165 0.876886 0.267910
C65   C     C_R   0.675401 0.182229 0.646629 -0.331738
C66   C     C_R   0.280832 0.843587 0.307614 -0.329571
C67   C     C_R   0.269248 0.142979 0.285677 -0.315964
C68   C     C_R   0.753658 0.900902 0.765930 -0.318825
C69   C     C_R   0.175403 0.682229 0.646630 -0.331741
C70   C     C_R   0.780837 0.343583 0.307619 -0.329565
C71   C     C_R   0.769239 0.642973 0.285662 -0.315961
C72   C     C_R   0.253658 0.400904 0.765931 -0.318836
C73   C     C_R   0.677334 0.153007 0.808260 0.212017
C74   C     C_R   0.333854 0.838300 0.200506 0.195168
C75   C     C_R   0.353650 0.183915 0.236817 0.198117
C76   C     C_R   0.672499 0.840769 0.802092 0.219017
C77   C     C_R   0.177337 0.653006 0.808262 0.212019
C78   C     C_R   0.833860 0.338296 0.200513 0.195171
C79   C     C_R   0.853641 0.683912 0.236806 0.198113
C80   C     C_R   0.172502 0.340790 0.802117 0.218982
C81   C     C_R   0.703362 0.214528 0.853090 -0.032855
C82   C     C_R   0.265935 0.802101 0.114975 -0.034297
C83   C     C_R   0.293670 0.231209 0.164921 -0.025380
C84   C     C_R   0.741541 0.832755 0.919694 -0.032094
C85   C     C_R   0.203362 0.714528 0.853090 -0.032854
C86   C     C_R   0.765941 0.302098 0.114980 -0.034294
C87   C     C_R   0.793662 0.731206 0.164911 -0.025416
C88   C     C_R   0.241546 0.332769 0.919709 -0.032258
C89   C     C_R   0.729575 0.256048 0.804769 0.018867
C90   C     C_R   0.213503 0.776714 0.137021 0.031657
C91   C     C_R   0.217913 0.229757 0.146224 0.027141
C92   C     C_R   0.819443 0.852849 0.956619 0.014706
C93   C     C_R   0.229573 0.756050 0.804768 0.018873
C94   C     C_R   0.713505 0.276714 0.137022 0.031658
C95   C     C_R   0.717902 0.729751 0.146207 0.027125
C96   C     C_R   0.319447 0.352861 0.956630 0.014692
C97   C     C_R   0.704766 0.235400 0.945938 0.056595
C98   C     C_R   0.251698 0.788221 0.009694 0.058097
C99   C     C_R   0.304074 0.276936 0.102920 0.039141
C100  C     C_R   0.734859 0.803790 0.000987 0.035337
C101  C     C_R   0.204765 0.735400 0.945938 0.056583
C102  C     C_R   0.751705 0.288219 0.009700 0.058094
C103  C     C_R   0.804067 0.776935 0.102916 0.039187
C104  C     C_R   0.234864 0.303791 0.000994 0.035535
C105  C     C_R   0.277543 0.829002 0.961987 -0.242297
C106  C     C_R   0.653627 0.209470 0.968595 -0.241831
C107  C     C_R   0.662396 0.805324 0.987697 -0.233962
C108  C     C_R   0.380523 0.299071 0.141355 -0.234774
C109  C     C_R   0.777554 0.328997 0.961996 -0.242302
C110  C     C_R   0.153632 0.709464 0.968603 -0.241814
C111  C     C_R   0.162403 0.305326 0.987713 -0.233755
C112  C     C_R   0.880517 0.799064 0.141347 -0.234706
Cu1   Cu    Cu3+1 0.526640 0.000000 0.436960 0.922336
Cu2   Cu    Cu3+1 0.473360 0.000000 0.563040 0.927720
Cu3   Cu    Cu3+1 0.026640 0.500000 0.436960 0.922337
Cu4   Cu    Cu3+1 0.973360 0.500000 0.563040 0.927683
H1    H     H_    0.371856 0.018887 0.009553 0.127796
H2    H     H_    0.630560 0.004846 0.991468 0.144414
H3    H     H_    0.871853 0.518873 0.009551 0.127795
H4    H     H_    0.130558 0.504869 0.991466 0.144420
H5    H     H_    0.284479 0.860997 0.379851 0.173686
H6    H     H_    0.658966 0.172049 0.562394 0.170867
H7    H     H_    0.757539 0.930583 0.708881 0.173540
H8    H     H_    0.258783 0.108902 0.330942 0.172618
H9    H     H_    0.784484 0.360992 0.379856 0.173680
H10   H     H_    0.158970 0.672049 0.562397 0.170864
H11   H     H_    0.257538 0.430574 0.708870 0.173545
H12   H     H_    0.758774 0.608895 0.330925 0.172614
H13   H     H_    0.303472 0.874724 0.999915 0.147027
H14   H     H_    0.606797 0.175997 0.909814 0.157147
H15   H     H_    0.612453 0.835746 0.922674 0.173322
H16   H     H_    0.434463 0.289400 0.228756 0.179040
H17   H     H_    0.803488 0.374718 0.999928 0.147023
H18   H     H_    0.106808 0.675985 0.909831 0.157170
H19   H     H_    0.112462 0.335757 0.922707 0.173181
H20   H     H_    0.934458 0.789391 0.228747 0.179043
H21   H     H_    0.283451 0.024427 0.804529 0.191351
H22   H     H_    0.719347 0.004572 0.196996 0.204052
H23   H     H_    0.783448 0.524414 0.804527 0.191350
H24   H     H_    0.219346 0.504603 0.196994 0.204058
H25   H     H_    0.449170 0.997831 0.186520 0.131576
H26   H     H_    0.550705 0.991561 0.812940 0.142796
H27   H     H_    0.949170 0.497822 0.186521 0.131575
H28   H     H_    0.050705 0.491564 0.812942 0.142789
H29   H     H_    0.689694 0.000806 0.492168 0.148940
H30   H     H_    0.310500 0.007494 0.508315 0.147191
H31   H     H_    0.189694 0.500819 0.492168 0.148936
H32   H     H_    0.810500 0.507488 0.508315 0.147194
N1    N     N_R   0.433280 0.000000 0.657760 -0.208966
N2    N     N_R   0.566720 0.000000 0.342240 -0.205436
N3    N     N_R   0.933280 0.500000 0.657760 -0.208972
N4    N     N_R   0.066720 0.500000 0.342240 -0.205436
O1    O     O_R   0.600040 0.935040 0.546740 -0.574870
O2    O     O_R   0.399960 0.064960 0.453260 -0.579429
O3    O     O_R   0.399960 0.935040 0.453260 -0.583202
O4    O     O_R   0.600040 0.064960 0.546740 -0.591183
O5    O     O_R   0.100040 0.435040 0.546740 -0.574874
O6    O     O_R   0.899960 0.564960 0.453260 -0.579419
O7    O     O_R   0.899960 0.435040 0.453260 -0.583213
O8    O     O_R   0.100040 0.564960 0.546740 -0.591181
O9    O     O_R   0.555010 0.935070 0.653220 -0.584963
O10   O     O_R   0.444990 0.064930 0.346780 -0.574703
O11   O     O_R   0.444990 0.935070 0.346780 -0.579890
O12   O     O_R   0.555010 0.064930 0.653220 -0.582063
O13   O     O_R   0.055010 0.435070 0.653220 -0.585058
O14   O     O_R   0.944990 0.564930 0.346780 -0.574698
O15   O     O_R   0.944990 0.435070 0.346780 -0.579893
O16   O     O_R   0.055010 0.564930 0.653220 -0.582055
N5    N     N_2   0.293911 0.857589 0.817639 -0.381456
H33   H     H_    0.272439 0.903065 0.807849 0.259336
C113  C     C_3   0.380939 0.855310 0.880560 -0.628415
H34   H     H_    0.396588 0.878757 0.828781 0.233858
H35   H     H_    0.402280 0.805409 0.897042 0.226307
H36   H     H_    0.412421 0.879665 0.964708 0.214463
N6    N     N_2   0.593862 0.209123 0.067012 -0.398126
H37   H     H_    0.583109 0.161126 0.052337 0.257022
C114  C     C_3   0.519199 0.245714 0.999784 -0.654691
H38   H     H_    0.478749 0.229412 0.020251 0.229060
H39   H     H_    0.487259 0.239379 0.905775 0.211821
H40   H     H_    0.532205 0.296851 0.020718 0.248473
N7    N     N_2   0.583267 0.780745 0.052747 -0.397359
H41   H     H_    0.532277 0.789189 0.968866 0.237601
C115  C     C_3   0.591673 0.826024 0.132777 -0.645612
H42   H     H_    0.535943 0.825723 0.126419 0.223145
H43   H     H_    0.600176 0.874349 0.111420 0.228519
H44   H     H_    0.644305 0.813526 0.223269 0.241212
N8    N     N_2   0.467050 0.362686 0.119488 -0.399980
H45   H     H_    0.511632 0.328112 0.159968 0.253757
C116  C     C_3   0.490213 0.416793 0.193550 -0.643279
H46   H     H_    0.547192 0.437328 0.215716 0.228815
H47   H     H_    0.500931 0.402125 0.274877 0.216683
H48   H     H_    0.441939 0.453835 0.149096 0.232320
N9    N     N_2   0.793914 0.357586 0.817639 -0.381461
H49   H     H_    0.772449 0.403063 0.807865 0.259332
C117  C     C_3   0.880939 0.355301 0.880542 -0.628392
H50   H     H_    0.896580 0.378754 0.828756 0.233840
H51   H     H_    0.902272 0.305398 0.897001 0.226303
H52   H     H_    0.912434 0.379650 0.964699 0.214463
N10   N     N_2   0.093880 0.709105 0.067039 -0.398130
H53   H     H_    0.083195 0.661098 0.052474 0.257059
C118  C     C_3   0.019171 0.745631 0.999705 -0.654819
H54   H     H_    0.978732 0.729333 0.020194 0.229061
H55   H     H_    0.987254 0.739226 0.905722 0.211862
H56   H     H_    0.032104 0.796783 0.020506 0.248464
N11   N     N_2   0.083284 0.280760 0.052783 -0.397360
H57   H     H_    0.032288 0.289204 0.968903 0.237581
C119  C     C_3   0.091701 0.326047 0.132813 -0.645592
H58   H     H_    0.035978 0.325745 0.126477 0.223149
H59   H     H_    0.100192 0.374371 0.111434 0.228507
H60   H     H_    0.144349 0.313556 0.223305 0.241204
N12   N     N_2   0.967053 0.862648 0.119459 -0.399957
H61   H     H_    0.011602 0.828049 0.159829 0.253830
C120  C     C_3   0.990298 0.916704 0.193651 -0.643391
H62   H     H_    0.047274 0.937230 0.215793 0.228829
H63   H     H_    0.001056 0.901981 0.274982 0.216663
H64   H     H_    0.942055 0.953771 0.149318 0.232338
N13   N     N_2   0.403264 0.838999 0.202888 -0.429235
H65   H     H_    0.420121 0.882124 0.190515 0.259545
C121  C     C_3   0.469526 0.797452 0.287899 -0.611514
H66   H     H_    0.516794 0.797440 0.275448 0.216326
H67   H     H_    0.447095 0.748196 0.277373 0.230715
H68   H     H_    0.497497 0.813729 0.376896 0.220480
N14   N     N_2   0.683918 0.103314 0.880442 -0.430185
H69   H     H_    0.629956 0.083040 0.852928 0.257405
C122  C     C_3   0.748449 0.057811 0.921378 -0.685302
H70   H     H_    0.753498 0.025116 0.985273 0.220970
H71   H     H_    0.807489 0.082583 0.964521 0.235450
H72   H     H_    0.735355 0.029381 0.848393 0.217879
N15   N     N_2   0.600717 0.803755 0.753382 -0.444398
H73   H     H_    0.547467 0.821951 0.679988 0.258783
C123  C     C_3   0.610102 0.737206 0.740603 -0.680622
H74   H     H_    0.553197 0.711686 0.708164 0.228135
H75   H     H_    0.660548 0.715485 0.824900 0.241443
H76   H     H_    0.622460 0.731393 0.677604 0.228722
N16   N     N_2   0.423470 0.178054 0.241038 -0.443258
H77   H     H_    0.477856 0.167596 0.320620 0.260478
C124  C     C_3   0.409759 0.145849 0.143848 -0.629513
H78   H     H_    0.468000 0.141470 0.157155 0.226681
H79   H     H_    0.366094 0.172928 0.062339 0.225930
H80   H     H_    0.384496 0.098039 0.134755 0.221059
N17   N     N_2   0.903273 0.338991 0.202902 -0.429226
H81   H     H_    0.920133 0.382116 0.190531 0.259546
C125  C     C_3   0.969533 0.297446 0.287920 -0.611557
H82   H     H_    0.016802 0.297429 0.275473 0.216335
H83   H     H_    0.947101 0.248191 0.277400 0.230714
H84   H     H_    0.997501 0.313728 0.376914 0.220468
N18   N     N_2   0.183926 0.603312 0.880447 -0.430187
H85   H     H_    0.129966 0.583035 0.852933 0.257401
C126  C     C_3   0.248460 0.557811 0.921380 -0.685326
H86   H     H_    0.253512 0.525114 0.985276 0.220969
H87   H     H_    0.307498 0.582585 0.964521 0.235445
H88   H     H_    0.235365 0.529382 0.848393 0.217879
N19   N     N_2   0.100729 0.303773 0.753443 -0.444506
H89   H     H_    0.047419 0.322041 0.680234 0.258826
C127  C     C_3   0.110050 0.237269 0.740301 -0.680302
H90   H     H_    0.053273 0.211692 0.708349 0.228189
H91   H     H_    0.160795 0.215510 0.824378 0.241367
H92   H     H_    0.121932 0.231598 0.676747 0.228561
N20   N     N_2   0.923459 0.678049 0.241022 -0.443262
H93   H     H_    0.977847 0.667594 0.320603 0.260483
C128  C     C_3   0.909744 0.645842 0.143832 -0.629536
H94   H     H_    0.967983 0.641464 0.157133 0.226682
H95   H     H_    0.866074 0.672918 0.062322 0.225942
H96   H     H_    0.884487 0.598030 0.134747 0.221063
N21   N     N_2   0.238544 0.778369 0.646228 -0.377632
H97   H     H_    0.189165 0.792209 0.563969 0.247959
C129  C     C_3   0.304162 0.753946 0.648344 -0.664999
H98   H     H_    0.321944 0.790319 0.612637 0.225894
H99   H     H_    0.284627 0.710508 0.595318 0.210478
H100  H     H_    0.358067 0.742261 0.738281 0.231632
N22   N     N_2   0.676056 0.271235 0.268119 -0.403155
H101  H     H_    0.661890 0.303600 0.305538 0.238784
C130  C     C_3   0.709788 0.213324 0.336041 -0.627405
H102  H     H_    0.668919 0.195067 0.354524 0.215719
H103  H     H_    0.770748 0.222485 0.419164 0.210253
H104  H     H_    0.715734 0.176395 0.288249 0.251689
N23   N     N_2   0.631944 0.679971 0.190804 -0.388987
H105  H     H_    0.639045 0.671817 0.265973 0.250816
C131  C     C_3   0.575190 0.636139 0.100669 -0.652080
H106  H     H_    0.516535 0.638039 0.086598 0.225509
H107  H     H_    0.599664 0.586951 0.126144 0.207275
H108  H     H_    0.563420 0.649047 0.017975 0.236363
N24   N     N_2   0.401042 0.405029 0.906822 -0.389381
H109  H     H_    0.413388 0.383880 0.856149 0.248881
C132  C     C_3   0.414463 0.472813 0.915250 -0.661698
H110  H     H_    0.479186 0.482123 0.955231 0.228759
H111  H     H_    0.400822 0.494495 0.970108 0.229765
H112  H     H_    0.375612 0.495504 0.828055 0.210598
N25   N     N_2   0.738544 0.278367 0.646227 -0.377624
H113  H     H_    0.689163 0.292216 0.563975 0.247969
C133  C     C_3   0.804149 0.253939 0.648320 -0.665053
H114  H     H_    0.821936 0.290313 0.612621 0.225889
H115  H     H_    0.784599 0.210506 0.595275 0.210484
H116  H     H_    0.858055 0.242241 0.738249 0.231621
N26   N     N_2   0.176047 0.771244 0.268112 -0.403141
H117  H     H_    0.161870 0.803614 0.305511 0.238799
C134  C     C_3   0.209787 0.713341 0.336063 -0.627453
H118  H     H_    0.168917 0.695087 0.354545 0.215725
H119  H     H_    0.270743 0.722514 0.419187 0.210258
H120  H     H_    0.215748 0.676406 0.288294 0.251681
N27   N     N_2   0.131960 0.179985 0.190838 -0.388984
H121  H     H_    0.139067 0.171832 0.266013 0.250813
C135  C     C_3   0.075196 0.136157 0.100703 -0.652052
H122  H     H_    0.016545 0.138062 0.086642 0.225507
H123  H     H_    0.099665 0.086967 0.126172 0.207274
H124  H     H_    0.063421 0.149065 0.018004 0.236363
N28   N     N_2   0.901037 0.905035 0.906823 -0.389393
H125  H     H_    0.913360 0.883934 0.856090 0.248884
C136  C     C_3   0.914469 0.972819 0.915361 -0.661671
H126  H     H_    0.979184 0.982136 0.955308 0.228752
H127  H     H_    0.900867 0.994448 0.970298 0.229807
H128  H     H_    0.875594 0.995556 0.828208 0.210576
F1    F     F_    0.241360 0.018492 0.606023 -0.686196
F2    F     F_    0.760226 0.003060 0.395477 -0.684173
F3    F     F_    0.741358 0.518480 0.606021 -0.686199
F4    F     F_    0.260225 0.503088 0.395475 -0.684181

loop_
_geom_bond_atom_site_label_1
_geom_bond_atom_site_label_2
_ccdc_geom_bond_type
C22   N2    A    
C33   C45   A    
C9    N5    S    
C133  H114  S    
C11   N7    S    
C53   C69   A    
C127  H91   S    
C135  H123  S    
N27   H121  S    
C113  H35   S    
C7    O7    A    
C10   C94   A    
N22   H101  S    
C29   C33   A    
C130  H104  S    
C30   C38   A    
C134  H119  S    
C37   C42   A    
C14   C90   A    
C8    O16   A    
C6    O6    A    
C40   C43   A    
N14   H69   S    
C56   C72   A    
C119  H60   S    
C117  H52   S    
N11   C119  S    
C35   C47   A    
N10   H53   S    
C79   C87   A    
C82   C98   A    
C73   C81   A    
N7    C115  S    
C25   C29   A    
C27   C31   A    
C84   C100  A    
C28   C32   A    
Cu4   O7    S    
N6    C114  S    
C12   C108  A    
C48   H24   S    
Cu2   O9    S    
C101  C110  A    
N7    H41   S    
C17   C21   A    
C17   F1    S    
C103  C112  A    
C77   N18   S    
C19   C23   A    
C115  H42   S    
C37   C38   A    
C135  H122  S    
C54   C70   A    
C59   C91   A    
C65   H6    S    
C87   C103  A    
C63   C71   A    
C69   H10   S    
C49   C73   A    
C71   H12   S    
N19   C127  S    
C23   H32   S    
C106  H14   S    
N20   C128  S    
C20   F4    S    
C83   C91   A    
C14   N10   S    
Cu3   O8    S    
C4    C49   S    
C79   N20   S    
C21   H30   S    
C132  H111  S    
N6    H37   S    
C19   C35   A    
C123  H76   S    
C131  H107  S    
C15   C91   A    
C117  H50   S    
C134  H118  S    
C80   C88   A    
N9    H49   S    
C41   C45   A    
Cu4   O16   S    
C102  C109  A    
N28   C136  S    
C43   C47   A    
Cu2   O2    S    
C55   C71   A    
C44   C48   A    
C25   H26   S    
C111  H19   S    
C122  H72   S    
N26   C134  S    
C99   C108  A    
C62   C70   A    
C126  H86   S    
C32   C36   A    
C133  H115  S    
C50   C74   A    
C128  H94   S    
C129  H100  S    
C9    C105  A    
Cu3   Cu4   S    
C25   N1    A    
N17   H81   S    
C116  H47   S    
C13   C109  A    
C59   C67   A    
C85   C93   A    
C114  H39   S    
C87   C95   A    
C34   C46   A    
C21   N1    A    
C77   C85   A    
C2    O2    A    
N23   H105  S    
C118  H55   S    
C112  H20   S    
C68   H7    S    
C88   C104  A    
C3    C50   S    
C122  H70   S    
C60   C92   A    
C78   N17   S    
C30   C34   A    
C72   H11   S    
C7    C54   S    
C64   C96   A    
C38   C41   A    
C115  H44   S    
C39   C40   A    
N13   H65   S    
C12   N8    S    
C88   C96   A    
Cu4   O6    S    
Cu1   O11   S    
C50   C66   A    
Cu2   O12   S    
N16   H77   S    
C125  H84   S    
N25   H113  S    
C51   C67   A    
N21   C129  S    
C26   C30   A    
C110  H18   S    
C29   C37   A    
C86   C102  A    
C73   N14   S    
N5    C113  S    
C10   N6    S    
C14   C110  A    
C7    O15   A    
C126  H88   S    
C18   C22   A    
Cu1   N2    S    
C18   F2    S    
C16   N12   S    
C52   C76   A    
C24   H31   S    
C8    C53   S    
C128  H96   S    
C129  H98   S    
N14   C122  S    
C39   C44   A    
C56   C80   A    
N23   C131  S    
C120  H63   S    
C121  H68   S    
C58   N26   S    
C130  H103  S    
C36   C48   A    
C108  H16   S    
C10   C106  A    
C124  H80   S    
N24   H109  S    
C119  H59   S    
C83   C99   A    
C84   C92   A    
C41   H1    S    
Cu4   N3    S    
N20   H93   S    
C43   H3    S    
C59   N27   S    
C6    O14   A    
C5    C56   S    
C6    C55   S    
C76   C84   A    
C120  H62   S    
C57   C89   A    
C61   C93   A    
C44   H4    S    
C11   C95   A    
C125  H82   S    
C63   C95   A    
C54   C78   A    
C42   C46   A    
C24   N4    A    
C131  H106  S    
C26   H25   S    
C97   C102  A    
C3    O11   A    
C62   N22   S    
C81   C89   A    
N18   C126  S    
C99   C104  A    
C127  H92   S    
C1    O9    A    
C13   N9    S    
C2    O10   A    
C17   C33   A    
C74   C82   A    
C135  H124  S    
N27   C135  S    
C113  H36   S    
C80   N19   S    
C119  H58   S    
N5    H33   S    
C26   N2    A    
C121  H66   S    
C63   N23   S    
C136  H126  S    
C109  H17   S    
C100  C103  A    
N28   H125  S    
C53   C77   A    
C132  H110  S    
C55   C79   A    
N12   H61   S    
C3    O3    A    
C27   H28   S    
C66   H5    S    
C123  H75   S    
C28   H27   S    
Cu3   O14   S    
C1    O1    A    
C58   C90   A    
C15   N11   S    
C97   C106  A    
C70   H9    S    
C4    O4    A    
C16   C92   A    
C5    O5    A    
C62   C94   A    
C31   C35   A    
Cu4   O13   S    
Cu1   O4    S    
C8    O8    A    
Cu2   O3    S    
N26   H117  S    
C57   N25   S    
C16   C112  A    
Cu1   Cu2   S    
C120  H64   S    
C27   N3    A    
C42   H2    S    
C57   C65   A    
C98   C101  A    
C82   C90   A    
N8    H45   S    
N15   C123  S    
C129  H99   S    
C75   C83   A    
N19   H89   S    
C116  H46   S    
C1    C52   S    
C2    C51   S    
C20   C36   A    
C60   C68   A    
C114  H38   S    
C47   H23   S    
C76   N15   S    
N10   C118  S    
C12   C96   A    
Cu2   N1    S    
C19   F3    S    
C60   N28   S    
C113  H34   S    
N24   C132  S    
C118  H54   S    
C67   H8    S    
N11   H57   S    
N15   H73   S    
C98   C105  A    
C49   C65   A    
Cu3   O5    S    
C51   C75   A    
C132  H112  S    
C115  H43   S    
C131  H108  S    
C86   C94   A    
C122  H71   S    
Cu1   O10   S    
C58   C66   A    
C20   C24   A    
N9    C117  S    
Cu3   N4    S    
C4    O12   A    
C75   N16   S    
C5    O13   A    
N21   H97   S    
C52   C68   A    
C46   H22   S    
C78   C86   A    
C32   C40   A    
N16   C124  S    
C126  H87   S    
C15   C111  A    
C133  H116  S    
C107  H15   S    
C128  H95   S    
C105  H13   S    
C134  H120  S    
C125  H83   S    
N17   C125  S    
C116  H48   S    
C121  H67   S    
C22   H29   S    
C114  H40   S    
C45   H21   S    
C130  H102  S    
C18   C34   A    
C61   N21   S    
N12   C120  S    
C28   N4    A    
C124  H79   S    
C11   C107  A    
C118  H56   S    
Cu3   O15   S    
C127  H90   S    
C9    C93   A    
C85   C101  A    
C136  H128  S    
C61   C69   A    
N22   C130  S    
C23   N3    A    
C100  C107  A    
C13   C89   A    
Cu1   O1    S    
C104  C111  A    
N18   H85   S    
N13   C121  S    
C64   N24   S    
C136  H127  S    
C81   C97   A    
C74   N13   S    
N25   C133  S    
C31   C39   A    
C64   C72   A    
N8    C116  S    
C123  H74   S    
C117  H51   S    
C124  H78   S    
