data_mof_unit_14149.cif
_audit_creation_date              2013-03-05T15:40:56-0500
_audit_creation_method            fapswitch 2.2
_symmetry_space_group_name_H-M    P1
_symmetry_Int_Tables_number       1
_space_group_crystal_system       triclinic
_cell_length_a                    27.871469
_cell_length_b                    18.683995
_cell_length_c                    16.783221
_cell_angle_alpha                 89.70741
_cell_angle_beta                  63.047336
_cell_angle_gamma                 90.031042
_cell_volume                      7790.41400531

loop_
_atom_site_label
_atom_site_type_symbol
_atom_site_description
_atom_site_fract_x
_atom_site_fract_y
_atom_site_fract_z
_atom_type_partial_charge
O1    O     O_R   0.255040 0.869590 0.478480 -0.591251
O2    O     O_R   0.744960 0.130410 0.521520 -0.589968
O3    O     O_R   0.744960 0.869590 0.521520 -0.591281
O4    O     O_R   0.255040 0.130410 0.478480 -0.595640
O5    O     O_R   0.755040 0.369590 0.478480 -0.588734
O6    O     O_R   0.244960 0.630410 0.521520 -0.576075
O7    O     O_R   0.244960 0.369590 0.521520 -0.593796
O8    O     O_R   0.755040 0.630410 0.478480 -0.583855
O9    O     O_R   0.182050 0.796550 0.624440 -0.611649
O10   O     O_R   0.817950 0.203450 0.375560 -0.616250
O11   O     O_R   0.817950 0.796550 0.375560 -0.608066
O12   O     O_R   0.182050 0.203450 0.624440 -0.576501
O13   O     O_R   0.682050 0.296550 0.624440 -0.518210
O14   O     O_R   0.317950 0.703450 0.375560 -0.610652
O15   O     O_R   0.317950 0.296550 0.375560 -0.603283
O16   O     O_R   0.682050 0.703450 0.624440 -0.590196
Cu1   Cu    Cu3+1 0.209920 0.785290 0.495070 0.940899
Cu2   Cu    Cu3+1 0.790080 0.214710 0.504930 0.916196
Cu3   Cu    Cu3+1 0.790080 0.785290 0.504930 0.941973
Cu4   Cu    Cu3+1 0.209920 0.214710 0.495070 0.969502
Cu5   Cu    Cu3+1 0.709920 0.285290 0.495070 1.031728
Cu6   Cu    Cu3+1 0.290080 0.714710 0.504930 0.923694
Cu7   Cu    Cu3+1 0.290080 0.285290 0.504930 0.921955
Cu8   Cu    Cu3+1 0.709920 0.714710 0.495070 0.953360
C1    C     C_R   0.297264 0.733248 0.327931 0.828151
C2    C     C_R   0.710272 0.281281 0.665976 0.811769
C3    C     C_R   0.702512 0.733990 0.672187 0.814773
C4    C     C_R   0.297635 0.265578 0.328068 0.775779
C5    C     C_R   0.793502 0.224671 0.330157 0.838775
C6    C     C_R   0.206715 0.775462 0.669620 0.800700
C7    C     C_R   0.202552 0.234358 0.671788 0.872028
C8    C     C_R   0.796769 0.767245 0.328123 0.756183
O17   O     O_R   0.250530 0.763330 0.367210 -0.589199
O18   O     O_R   0.749470 0.236670 0.632790 -0.599975
O19   O     O_R   0.749470 0.763330 0.632790 -0.586040
O20   O     O_R   0.250530 0.236670 0.367210 -0.577493
O21   O     O_R   0.750530 0.263330 0.367210 -0.580760
O22   O     O_R   0.249470 0.736670 0.632790 -0.585864
O23   O     O_R   0.249470 0.263330 0.632790 -0.608432
O24   O     O_R   0.750530 0.736670 0.367210 -0.588829
O25   O     O_R   0.177260 0.690030 0.513710 -0.590593
O26   O     O_R   0.822740 0.309970 0.486290 -0.617212
O27   O     O_R   0.822740 0.690030 0.486290 -0.593263
O28   O     O_R   0.177260 0.309970 0.513710 -0.577919
O29   O     O_R   0.677260 0.190030 0.513710 -0.559604
O30   O     O_R   0.322740 0.809970 0.486290 -0.613397
O31   O     O_R   0.322740 0.190030 0.486290 -0.605084
O32   O     O_R   0.677260 0.809970 0.513710 -0.578855
C9    C     C_R   0.196580 0.631516 0.527253 0.797541
C10   C     C_R   0.803878 0.368313 0.470748 0.814473
C11   C     C_R   0.803346 0.631726 0.472559 0.788549
C12   C     C_R   0.200403 0.369189 0.514699 0.802185
C13   C     C_R   0.696130 0.131872 0.529941 0.792265
C14   C     C_R   0.303597 0.868344 0.471320 0.837330
C15   C     C_R   0.299134 0.130644 0.486821 0.850227
C16   C     C_R   0.700339 0.869422 0.515038 0.797899
C17   C     C_R   0.038411 0.625790 0.530791 0.094306
C18   C     C_R   0.975328 0.374076 0.418118 0.022795
C19   C     C_R   0.958391 0.629768 0.470550 0.094218
C20   C     C_R   0.073912 0.378484 0.430956 0.089172
C21   C     C_R   0.521729 0.113455 0.593254 0.067051
C22   C     C_R   0.475601 0.884647 0.417535 0.032411
C23   C     C_R   0.422661 0.110006 0.581623 0.031781
C24   C     C_R   0.574988 0.889104 0.427034 0.096922
C25   C     C_R   0.013313 0.690661 0.528245 -0.150315
C26   C     C_R   0.008741 0.313383 0.398906 -0.223336
C27   C     C_R   0.975013 0.692905 0.496123 -0.150371
C28   C     C_R   0.057129 0.315749 0.404696 -0.103697
C29   C     C_R   0.481076 0.164341 0.637274 -0.144543
C30   C     C_R   0.513700 0.829362 0.381811 -0.225789
C31   C     C_R   0.432964 0.162811 0.631355 -0.224456
C32   C     C_R   0.561884 0.831173 0.387484 -0.111796
C33   C     C_R   0.981306 0.564376 0.476662 0.011204
C34   C     C_R   0.039288 0.437942 0.456772 0.012690
C35   C     C_R   0.024574 0.563433 0.498687 0.011823
C36   C     C_R   0.991428 0.436761 0.446480 0.046408
C37   C     C_R   0.461808 0.056299 0.539823 0.041642
C38   C     C_R   0.536377 0.943661 0.467277 0.008931
C39   C     C_R   0.511024 0.057672 0.546323 0.020371
C40   C     C_R   0.487064 0.941999 0.461387 0.041865
C41   C     C_R   0.450323 0.998936 0.496350 -0.041841
C42   C     C_R   0.548181 0.001390 0.509738 -0.048435
C43   C     C_R   0.962591 0.500349 0.456368 -0.039155
C44   C     C_R   0.054227 0.500386 0.487305 -0.042264
C45   C     C_R   0.387874 0.938462 0.451594 0.036635
C46   C     C_R   0.611022 0.061780 0.553505 -0.020320
C47   C     C_R   0.632026 0.942580 0.486526 -0.030647
C48   C     C_R   0.366730 0.057757 0.518151 0.040319
C49   C     C_R   0.892491 0.435346 0.436085 0.049093
C50   C     C_R   0.114474 0.563130 0.534890 -0.025612
C51   C     C_R   0.133250 0.439275 0.481131 -0.036837
C52   C     C_R   0.889837 0.566320 0.446349 -0.042561
C53   C     C_R   0.334610 0.935803 0.459165 -0.067659
C54   C     C_R   0.664708 0.064512 0.544178 -0.135403
C55   C     C_R   0.674364 0.937815 0.511732 -0.125086
C56   C     C_R   0.324855 0.062433 0.491530 -0.073526
C57   C     C_R   0.837421 0.434850 0.451000 -0.066947
C58   C     C_R   0.165436 0.564471 0.536738 -0.134696
C59   C     C_R   0.174613 0.436737 0.508960 -0.115656
C60   C     C_R   0.836457 0.565831 0.454578 -0.120972
C61   C     C_R   0.307138 0.999822 0.468565 -0.268765
C62   C     C_R   0.692262 0.000407 0.534437 -0.245612
C63   C     C_R   0.811245 0.500209 0.458328 -0.261923
C64   C     C_R   0.191558 0.499993 0.532181 -0.238296
H1    H     H_    0.270394 0.000312 0.461451 0.183592
H2    H     H_    0.729348 0.999905 0.540484 0.186240
H3    H     H_    0.769631 0.499955 0.470380 0.184303
H4    H     H_    0.226981 0.499584 0.543188 0.183086
C65   C     C_R   0.401935 0.998484 0.488229 0.016618
C66   C     C_R   0.596668 0.001711 0.517432 0.072496
C67   C     C_R   0.914538 0.500456 0.447333 0.046238
C68   C     C_R   0.100310 0.500712 0.502093 0.077816
C69   C     C_R   0.625616 0.893555 0.427765 -0.068464
C70   C     C_R   0.373468 0.108005 0.575648 -0.057116
C71   C     C_R   0.427027 0.884353 0.409219 -0.075798
C72   C     C_R   0.571697 0.115404 0.597631 -0.069191
C73   C     C_R   0.124937 0.384418 0.429924 -0.073739
C74   C     C_R   0.920368 0.629783 0.436682 -0.058753
C75   C     C_R   0.927430 0.374798 0.407215 -0.089494
C76   C     C_R   0.077726 0.621581 0.562494 -0.073409
C77   C     C_R   0.230993 0.791319 0.944344 0.030884
C78   C     C_R   0.779744 0.226084 0.045001 0.026356
C79   C     C_R   0.766901 0.788223 0.059897 0.044897
C80   C     C_R   0.222822 0.230106 0.949711 0.027144
C81   C     C_R   0.723979 0.269069 0.947857 0.024948
C82   C     C_R   0.291772 0.757518 0.035956 0.031182
C83   C     C_R   0.276551 0.269781 0.051205 0.037920
C84   C     C_R   0.707483 0.756181 0.965562 0.027843
C85   C     C_R   0.285195 0.768993 0.895773 0.045544
C86   C     C_R   0.723800 0.241151 0.091163 0.045182
C87   C     C_R   0.726001 0.735783 0.093104 0.069162
C88   C     C_R   0.254769 0.293101 0.926819 0.044352
C89   C     C_R   0.779658 0.252139 0.901756 0.047624
C90   C     C_R   0.241671 0.792396 0.080554 0.048033
C91   C     C_R   0.244509 0.206888 0.074257 0.050734
C92   C     C_R   0.749065 0.807833 0.930918 0.047275
C93   C     C_R   0.314041 0.745890 0.942885 0.041246
C94   C     C_R   0.695754 0.263465 0.042279 0.039734
C95   C     C_R   0.692562 0.726208 0.051070 0.041684
C96   C     C_R   0.280524 0.314048 0.979451 0.045985
C97   C     C_R   0.807427 0.229558 0.950342 0.041476
C98   C     C_R   0.208831 0.801617 0.037454 0.038332
C99   C     C_R   0.218764 0.185920 0.021619 0.046360
C100  C     C_R   0.775478 0.828488 0.982729 0.045752
C101  C     C_R   0.144948 0.826357 0.948111 0.031939
C102  C     C_R   0.862338 0.184433 0.048639 0.039547
C103  C     C_R   0.838430 0.855287 0.073821 0.029881
C104  C     C_R   0.159204 0.151856 0.926688 0.064716
C105  C     C_R   0.643001 0.318011 0.942782 0.036066
C106  C     C_R   0.366892 0.693516 0.043301 0.037208
C107  C     C_R   0.340905 0.347272 0.073211 0.014772
C108  C     C_R   0.634226 0.689898 0.955762 0.046064
C109  C     C_R   0.114990 0.844567 0.901383 -0.116340
C110  C     C_R   0.888352 0.158859 0.098202 -0.133283
C111  C     C_R   0.876431 0.858951 0.108991 -0.140852
C112  C     C_R   0.122431 0.143357 0.889740 -0.172723
C113  C     C_R   0.620770 0.354569 0.891899 -0.170383
C114  C     C_R   0.390581 0.663496 0.095713 -0.138188
C115  C     C_R   0.378731 0.354201 0.108341 -0.136349
C116  C     C_R   0.609693 0.662628 0.903655 -0.149557
C117  C     C_R   0.132236 0.818284 0.814654 -0.115323
C118  C     C_R   0.869436 0.181403 0.186738 -0.080862
C119  C     C_R   0.867963 0.817381 0.184799 -0.102141
C120  C     C_R   0.130654 0.183964 0.813048 -0.081638
C121  C     C_R   0.648257 0.351044 0.797495 -0.083756
C122  C     C_R   0.373133 0.688340 0.184054 -0.072153
C123  C     C_R   0.371592 0.311716 0.183306 -0.071374
C124  C     C_R   0.626973 0.688868 0.815744 -0.097508
C125  C     C_R   0.186688 0.797232 0.764127 -0.181459
C126  C     C_R   0.815309 0.204820 0.234495 -0.186076
C127  C     C_R   0.819834 0.778923 0.229676 -0.189902
C128  C     C_R   0.177206 0.225825 0.770893 -0.107625
C129  C     C_R   0.693758 0.308075 0.757081 -0.206666
C130  C     C_R   0.324421 0.727187 0.227880 -0.168607
C131  C     C_R   0.323246 0.273431 0.228688 -0.222974
C132  C     C_R   0.675144 0.728840 0.772666 -0.177987
C133  C     C_R   0.221406 0.796600 0.806002 0.054021
C134  C     C_R   0.783122 0.209588 0.188186 0.042396
C135  C     C_R   0.790460 0.761010 0.181613 0.089582
C136  C     C_R   0.202828 0.249466 0.822456 0.063914
C137  C     C_R   0.722992 0.292102 0.804779 0.046344
C138  C     C_R   0.299924 0.754980 0.175739 0.057430
C139  C     C_R   0.296937 0.250244 0.177979 0.085104
C140  C     C_R   0.698396 0.758190 0.826094 0.059012
C141  C     C_R   0.198972 0.804230 0.899527 0.074537
C142  C     C_R   0.808461 0.207240 0.093928 0.080675
C143  C     C_R   0.798908 0.801102 0.104710 0.094540
C144  C     C_R   0.194654 0.210918 0.900064 0.095571
C145  C     C_R   0.696546 0.292801 0.898675 0.081367
C146  C     C_R   0.319612 0.735025 0.085146 0.071745
C147  C     C_R   0.305062 0.288666 0.100356 0.087882
C148  C     C_R   0.680070 0.734591 0.915443 0.073599
C149  C     C_R   0.122301 0.828070 0.041937 -0.138315
C150  C     C_R   0.889120 0.188869 0.955427 -0.146316
C151  C     C_R   0.838416 0.903302 0.008584 -0.160909
C152  C     C_R   0.161943 0.103765 0.989112 -0.152689
C153  C     C_R   0.614868 0.308123 0.035689 -0.149440
C154  C     C_R   0.390345 0.687203 0.949371 -0.145123
C155  C     C_R   0.337859 0.395755 0.011400 -0.168422
C156  C     C_R   0.612869 0.677707 0.048830 -0.135978
C157  C     C_R   0.153788 0.817671 0.085556 -0.213594
C158  C     C_R   0.862447 0.210580 0.907336 -0.201826
C159  C     C_R   0.809201 0.888838 0.961803 -0.186700
C160  C     C_R   0.190726 0.120466 0.035804 -0.196055
C161  C     C_R   0.640452 0.281482 0.084253 -0.199541
C162  C     C_R   0.364417 0.711997 0.900554 -0.202952
C163  C     C_R   0.308643 0.379449 0.965273 -0.188647
C164  C     C_R   0.642965 0.691007 0.093947 -0.209468
C165  C     C_R   0.277765 0.788276 0.758313 -0.164830
C166  C     C_R   0.726800 0.216490 0.232028 -0.171404
C167  C     C_R   0.753700 0.703564 0.206766 -0.118758
C168  C     C_R   0.235369 0.310839 0.799751 -0.183321
C169  C     C_R   0.778523 0.280127 0.760983 -0.170511
C170  C     C_R   0.258165 0.806135 0.208927 -0.149905
C171  C     C_R   0.264252 0.188978 0.200950 -0.111823
C172  C     C_R   0.737315 0.813457 0.795531 -0.162728
C173  C     C_R   0.308618 0.772216 0.801980 -0.207491
C174  C     C_R   0.697894 0.232205 0.184940 -0.195639
C175  C     C_R   0.721227 0.692293 0.164985 -0.174509
C176  C     C_R   0.260648 0.332273 0.850602 -0.207717
C177  C     C_R   0.806256 0.260922 0.808072 -0.203154
C178  C     C_R   0.227416 0.820615 0.165261 -0.221568
C179  C     C_R   0.238723 0.167692 0.150418 -0.173932
C180  C     C_R   0.762363 0.837134 0.846057 -0.202694
H5    H     H_    0.079546 0.834265 0.083399 0.201729
H6    H     H_    0.931845 0.178766 0.918444 0.179379
H7    H     H_    0.859975 0.953474 0.993249 0.169292
H8    H     H_    0.143364 0.051478 0.001080 0.165848
H9    H     H_    0.572395 0.319318 0.072245 0.209888
H10   H     H_    0.430379 0.666667 0.910585 0.196214
H11   H     H_    0.356680 0.447867 0.999168 0.167033
H12   H     H_    0.572088 0.660423 0.089984 0.202274
H13   H     H_    0.133747 0.819022 0.157813 0.156119
H14   H     H_    0.886642 0.211029 0.836025 0.141579
H15   H     H_    0.812366 0.927140 0.911277 0.137134
H16   H     H_    0.190709 0.080168 0.081938 0.135191
H17   H     H_    0.615637 0.277199 0.155309 0.144388
H18   H     H_    0.384323 0.702280 0.829545 0.144230
H19   H     H_    0.308527 0.419879 0.919382 0.138041
H20   H     H_    0.625330 0.677351 0.164271 0.144880
H21   H     H_    0.351223 0.764767 0.760708 0.142820
H22   H     H_    0.655014 0.236875 0.224604 0.140924
H23   H     H_    0.694059 0.646982 0.187270 0.130834
H24   H     H_    0.285422 0.379486 0.827093 0.139358
H25   H     H_    0.848934 0.254719 0.768152 0.138915
H26   H     H_    0.194380 0.857762 0.196313 0.139107
H27   H     H_    0.213892 0.120541 0.174075 0.129499
H28   H     H_    0.793164 0.877512 0.815804 0.139648
O33   O     O_R   0.051640 0.926880 0.885090 -0.576056
O34   O     O_R   0.948360 0.073120 0.114910 -0.579920
O35   O     O_R   0.948360 0.926880 0.114910 -0.587372
O36   O     O_R   0.051640 0.073120 0.885090 -0.616797
O37   O     O_R   0.551640 0.426880 0.885090 -0.539470
O38   O     O_R   0.448360 0.573120 0.114910 -0.586732
O39   O     O_R   0.448360 0.426880 0.114910 -0.557076
O40   O     O_R   0.551640 0.573120 0.885090 -0.599741
Cu9   Cu    Cu3+1 0.495240 0.500000 0.924150 0.989226
Cu10  Cu    Cu3+1 0.504760 0.500000 0.075850 0.968499
Cu11  Cu    Cu3+1 0.995240 0.000000 0.924150 0.953329
Cu12  Cu    Cu3+1 0.004760 0.000000 0.075850 0.966910
C181  C     C_R   0.924124 0.906264 0.068459 0.852575
C182  C     C_R   0.075649 0.094316 0.931285 0.812434
C183  C     C_R   0.071537 0.899636 0.935982 0.842361
C184  C     C_R   0.929558 0.101286 0.063498 0.814064
C185  C     C_R   0.424733 0.404906 0.068193 0.861476
C186  C     C_R   0.570534 0.601564 0.936268 0.795601
C187  C     C_R   0.573753 0.402855 0.933384 0.828569
C188  C     C_R   0.429597 0.601914 0.063311 0.795275
O41   O     O_R   0.940620 0.926560 0.986760 -0.579442
O42   O     O_R   0.059380 0.073440 0.013240 -0.573341
O43   O     O_R   0.059380 0.926560 0.013240 -0.605817
O44   O     O_R   0.940620 0.073440 0.986760 -0.611966
O45   O     O_R   0.440620 0.426560 0.986760 -0.590514
O46   O     O_R   0.559380 0.573440 0.013240 -0.595330
O47   O     O_R   0.559380 0.426560 0.013240 -0.585909
O48   O     O_R   0.440620 0.573440 0.986760 -0.610741
H29   H     H_    0.588076 0.785307 0.362660 0.179398
H30   H     H_    0.404387 0.204494 0.666004 0.129650
H31   H     H_    0.506917 0.783297 0.349657 0.134531
H32   H     H_    0.485135 0.206225 0.677722 0.197289
H33   H     H_    0.080393 0.267036 0.391200 0.180280
H34   H     H_    0.956946 0.743891 0.494819 0.177020
H35   H     H_    0.998175 0.263091 0.379611 0.129170
H36   H     H_    0.025148 0.740790 0.546174 0.181596
C189  C     C_2   0.675173 0.863363 0.352690 0.402697
H37   H     H_    0.713991 0.869163 0.351956 0.058706
O49   O     O_2   0.674561 0.837758 0.286416 -0.565314
C190  C     C_2   0.325884 0.147295 0.642334 0.394957
H38   H     H_    0.329000 0.202461 0.658947 0.076916
O50   O     O_2   0.282342 0.117153 0.680647 -0.569495
C191  C     C_2   0.421072 0.834430 0.345480 0.439527
H39   H     H_    0.430321 0.778156 0.345326 0.073093
O51   O     O_2   0.405323 0.856183 0.292694 -0.534408
C192  C     C_2   0.580260 0.165710 0.658640 0.397011
H40   H     H_    0.597120 0.145799 0.701427 0.054528
O52   O     O_2   0.572301 0.229847 0.657274 -0.500946
C193  C     C_2   0.173323 0.350054 0.357125 0.432269
H41   H     H_    0.213202 0.364625 0.347705 0.050613
O53   O     O_2   0.170104 0.309362 0.303096 -0.558921
C194  C     C_2   0.925108 0.683831 0.367564 0.449046
H42   H     H_    0.901928 0.677088 0.330722 0.069894
O54   O     O_2   0.956246 0.734367 0.348055 -0.564862
C195  C     C_2   0.920661 0.321160 0.348014 0.480275
H43   H     H_    0.930850 0.265533 0.349764 0.049326
O55   O     O_2   0.903454 0.339396 0.295797 -0.524345
C196  C     C_2   0.073082 0.666942 0.638902 0.436302
H44   H     H_    0.100893 0.659838 0.667151 0.071652
O56   O     O_2   0.036293 0.709266 0.675476 -0.533500
C197  C     C_2   0.091080 0.808352 0.782262 0.451497
H45   H     H_    0.095384 0.833026 0.720865 0.105060
O57   O     O_2   0.050016 0.774631 0.827639 -0.491534
C198  C     C_2   0.908598 0.183449 0.224256 0.488643
H46   H     H_    0.901150 0.154927 0.285115 0.058951
O58   O     O_2   0.951887 0.213662 0.182915 -0.519316
C199  C     C_2   0.911438 0.807447 0.211706 0.433433
H47   H     H_    0.908127 0.829572 0.273506 0.115166
O59   O     O_2   0.952387 0.775541 0.162570 -0.516875
C200  C     C_2   0.090195 0.187785 0.778365 0.426295
H48   H     H_    0.079092 0.140594 0.753152 0.090892
O60   O     O_2   0.070800 0.245362 0.774006 -0.542107
C201  C     C_2   0.637009 0.401336 0.738891 0.483205
H49   H     H_    0.661911 0.448679 0.712436 0.001770
O61   O     O_2   0.601291 0.388644 0.717765 -0.472118
C202  C     C_2   0.409887 0.680877 0.225644 0.455583
H50   H     H_    0.399644 0.646752 0.283540 0.069367
O62   O     O_2   0.453841 0.710290 0.191390 -0.549350
C203  C     C_2   0.416689 0.295884 0.205450 0.397180
H51   H     H_    0.409357 0.281793 0.272588 0.094998
O63   O     O_2   0.463003 0.292477 0.146603 -0.561164
C204  C     C_2   0.591477 0.680747 0.772111 0.464436
H52   H     H_    0.597453 0.636830 0.726482 0.081167
O64   O     O_2   0.554825 0.722921 0.788378 -0.545826
H53   H     H_    0.299436 0.795258 0.686818 0.174235
H54   H     H_    0.703689 0.207511 0.303011 0.170517
H55   H     H_    0.750894 0.664710 0.256580 0.159820
H56   H     H_    0.239609 0.345256 0.744945 0.167058
H57   H     H_    0.802076 0.289672 0.690056 0.165546
H58   H     H_    0.249405 0.838489 0.266742 0.176938
H59   H     H_    0.260175 0.154457 0.255578 0.154637
H60   H     H_    0.747359 0.842603 0.734447 0.174095

loop_
_geom_bond_atom_site_label_1
_geom_bond_atom_site_label_2
_geom_bond_distance
_ccdc_geom_bond_type
C152  H8    1.079844 S    
C154  C162  1.393305 A    
Cu2   Cu5   2.663469 S    
C191  H39   1.082441 S    
C195  O55   1.221566 D    
O37   C187  1.299131 A    
C20   C34   1.407182 A    
O38   C188  1.311095 A    
C44   C68   1.414334 A    
C126  C134  1.431159 A    
C46   C66   1.418518 A    
C84   C95   1.413007 A    
C124  C204  1.481811 S    
C151  C159  1.390685 A    
C7    C128  1.490985 S    
Cu6   O22   1.965215 S    
C73   C193  1.496342 S    
C149  C157  1.387437 A    
C22   C30   1.408697 A    
C155  H11   1.079413 S    
C170  C178  1.382878 A    
C69   C189  1.498024 S    
C202  H50   1.083597 S    
O3    Cu3   1.956787 S    
C102  C150  1.396935 A    
C103  C111  1.428966 A    
C19   C33   1.403618 A    
C55   C62   1.392101 A    
C156  C164  1.384272 A    
C33   C35   1.412561 A    
C77   C98   1.410224 A    
C36   C43   1.402566 A    
O25   C9    1.282946 A    
C94   C161  1.415646 A    
C37   C39   1.424703 A    
C139  C171  1.401711 A    
C122  C130  1.418570 A    
C31   H30   1.079125 S    
C204  H52   1.085549 S    
C98   C157  1.405527 A    
C53   C61   1.391162 A    
C168  C176  1.390470 A    
C2    C129  1.473255 S    
C3    O19   1.289052 A    
C109  C117  1.401505 A    
C121  C201  1.489641 S    
C172  C180  1.393664 A    
C6    C125  1.482246 S    
O35   Cu12  1.954887 S    
C158  H14   1.074930 S    
C38   C42   1.414038 A    
C195  H43   1.081341 S    
C102  C110  1.410305 A    
O11   Cu3   1.956582 S    
O12   Cu4   1.956582 S    
C196  H44   1.084370 S    
O13   Cu5   1.959056 S    
C20   C73   1.418657 A    
C162  H18   1.078892 S    
O33   C183  1.312032 A    
O34   C184  1.304471 A    
C57   C63   1.399915 A    
C112  C182  1.481183 S    
C48   C65   1.414784 A    
C23   C31   1.406381 A    
C86   C94   1.426948 A    
C96   C163  1.411007 A    
C8    O24   1.283183 A    
C194  H42   1.085546 S    
C131  C139  1.420851 A    
C132  C140  1.433937 A    
C167  H55   1.080077 S    
C182  O42   1.295610 A    
C50   C58   1.434928 A    
O2    C13   1.303331 A    
C3    C132  1.505690 S    
C4    C131  1.493687 S    
C151  H7    1.078312 S    
C81   C94   1.417472 A    
C104  C144  1.409686 A    
C91   C179  1.414079 A    
C105  C145  1.414175 A    
C74   C194  1.493932 S    
C179  H27   1.076746 S    
Cu12  O43   1.967580 S    
C165  C173  1.391362 A    
C108  C148  1.413194 A    
Cu3   O19   1.960377 S    
C70   C190  1.488065 S    
O10   Cu2   1.959056 S    
C18   C75   1.427339 A    
C115  C123  1.419630 A    
C116  C124  1.413292 A    
C47   C69   1.418560 A    
C149  H5    1.080243 S    
C134  C142  1.411100 A    
C85   C93   1.425157 A    
C82   C90   1.411832 A    
C160  H16   1.077083 S    
C201  H49   1.085028 S    
C172  H60   1.076996 S    
C63   H3    1.083282 S    
C138  C146  1.414763 A    
C84   C148  1.428219 A    
C33   C43   1.408441 A    
C107  C115  1.428274 A    
O6    Cu6   1.953398 S    
C16   C55   1.482148 S    
C116  C186  1.497728 S    
C187  O47   1.293226 A    
Cu10  O46   1.958925 S    
C130  C138  1.427917 A    
C18   C36   1.413660 A    
C47   C66   1.415788 A    
C108  C156  1.413983 A    
C34   C36   1.420771 A    
C22   C40   1.418743 A    
C191  O51   1.221371 D    
O7    C12   1.297792 A    
Cu2   O26   1.956707 S    
C38   C40   1.422292 A    
C35   C44   1.402629 A    
C78   C142  1.425514 A    
C166  H54   1.079134 S    
C198  H46   1.082809 S    
C134  C166  1.405832 A    
Cu9   Cu10  2.676751 S    
C86   C174  1.411868 A    
C52   C74   1.424165 A    
C200  O60   1.220862 D    
C19   C27   1.405430 A    
C45   C53   1.432242 A    
C170  H58   1.076082 S    
C90   C178  1.397428 A    
C47   C55   1.425338 A    
C181  O41   1.287767 A    
O36   C182  1.295704 A    
C117  C125  1.419346 A    
O28   C12   1.284410 A    
O16   C3    1.308300 A    
C183  O43   1.287519 A    
O29   C13   1.288025 A    
C193  O53   1.220269 D    
C127  C135  1.426216 A    
C169  C177  1.379100 A    
C125  C133  1.430663 A    
Cu4   O28   1.960507 S    
Cu5   O29   1.956707 S    
C93   C162  1.406570 A    
C197  O57   1.221078 D    
Cu7   O31   1.960507 S    
Cu8   O32   1.960507 S    
C97   C158  1.413533 A    
C119  C199  1.483906 S    
C113  C121  1.415052 A    
C203  O63   1.220995 D    
C189  O49   1.220239 D    
C111  C119  1.412513 A    
C83   C147  1.425944 A    
C101  C141  1.412147 A    
C88   C176  1.413892 A    
C190  O50   1.221286 D    
C51   C68   1.413062 A    
C196  O56   1.220160 D    
C92   C180  1.406715 A    
Cu4   Cu7   2.663107 S    
C17   C25   1.409859 A    
C188  O48   1.295147 A    
C140  C148  1.415160 A    
O5    Cu5   1.953400 S    
C118  C198  1.487480 S    
C20   C28   1.406602 A    
O9    C6    1.293285 A    
O26   C10   1.286351 A    
C17   C76   1.420606 A    
C185  O45   1.293530 A    
O35   C181  1.300985 A    
O11   C8    1.308550 A    
C19   C74   1.411451 A    
O12   C7    1.306693 A    
O14   Cu6   1.959056 S    
O13   C2    1.296674 A    
C120  C128  1.398866 A    
C152  C160  1.388205 A    
C83   C96   1.419653 A    
C123  C131  1.403747 A    
C11   C60   1.486978 S    
C124  C132  1.412977 A    
C13   C54   1.487978 S    
C171  H59   1.081175 S    
C110  C118  1.399935 A    
C34   C44   1.412845 A    
C15   C56   1.481795 S    
C39   C42   1.409492 A    
C153  H9    1.079206 S    
C167  C175  1.389892 A    
O1    Cu1   1.953400 S    
C17   C35   1.410956 A    
C22   C71   1.422558 A    
C21   C39   1.420139 A    
O7    Cu7   1.956787 S    
O8    Cu8   1.956789 S    
C122  C202  1.484377 S    
C25   H36   1.081261 S    
C174  H22   1.076369 S    
Cu12  O42   1.958925 S    
C26   H35   1.078786 S    
C109  C183  1.494175 S    
C87   C95   1.412606 A    
O37   Cu9   1.960749 S    
C202  O62   1.221035 D    
C137  C169  1.398784 A    
C78   C97   1.418144 A    
C51   C59   1.427363 A    
C1    O17   1.293551 A    
C48   C56   1.428936 A    
C82   C93   1.413203 A    
C153  C161  1.394152 A    
C72   C192  1.489938 S    
C204  O64   1.220357 D    
C165  H53   1.078405 S    
C83   C91   1.417427 A    
C45   C65   1.419237 A    
C84   C92   1.412374 A    
C192  H40   1.085481 S    
C140  C172  1.412456 A    
C135  C143  1.413106 A    
C81   C89   1.421803 A    
C150  C158  1.381896 A    
C133  C141  1.409877 A    
C14   C53   1.487868 S    
C85   C173  1.405399 A    
C136  C144  1.410119 A    
C82   C146  1.427506 A    
C137  C145  1.405037 A    
C180  H28   1.078955 S    
C49   C75   1.428944 A    
C194  O54   1.220781 D    
C25   C27   1.397639 A    
C79   C100  1.417639 A    
C89   C177  1.410428 A    
C51   C73   1.425501 A    
C80   C99   1.420152 A    
C24   C69   1.419075 A    
C119  C127  1.400210 A    
C101  C149  1.406648 A    
Cu11  O41   1.958925 S    
C163  H19   1.077100 S    
C128  C136  1.420482 A    
C59   C64   1.393817 A    
O39   Cu10  1.954887 S    
C129  C137  1.408170 A    
C199  H47   1.082989 S    
C184  O44   1.292870 A    
C56   C61   1.391899 A    
Cu1   O17   1.965214 S    
Cu3   O27   1.960507 S    
C45   C71   1.422568 A    
O39   C185  1.299231 A    
C103  C143  1.408129 A    
C29   H32   1.077497 S    
C60   C63   1.399703 A    
C30   H31   1.079227 S    
C171  C179  1.390638 A    
C159  H15   1.079309 S    
C189  H37   1.081764 S    
C90   C98   1.410598 A    
C100  C159  1.404918 A    
C168  H56   1.081139 S    
C157  H13   1.081455 S    
C118  C126  1.420519 A    
C37   C41   1.415206 A    
O30   C14   1.287115 A    
C21   C72   1.427936 A    
C161  H17   1.076194 S    
Cu6   O30   1.956707 S    
C8    C127  1.491361 S    
C41   C65   1.415697 A    
O4    C15   1.298421 A    
C71   C191  1.487593 S    
C43   C67   1.414498 A    
O5    C10   1.307751 A    
C64   H4    1.083628 S    
C114  C122  1.415586 A    
Cu9   O48   1.967577 S    
C106  C114  1.430428 A    
C79   C87   1.409723 A    
Cu10  O47   1.967580 S    
C104  C152  1.404916 A    
C102  C142  1.408384 A    
C77   C85   1.417198 A    
C88   C96   1.423645 A    
C89   C97   1.418081 A    
Cu1   Cu6   2.663469 S    
C150  H6    1.081814 S    
Cu3   Cu8   2.663107 S    
C203  H51   1.081168 S    
C92   C100  1.424909 A    
C178  H26   1.081896 S    
O10   C5    1.292307 A    
O27   C11   1.283282 A    
O15   C4    1.305465 A    
C186  O46   1.292461 A    
C198  O58   1.221534 D    
O14   C1    1.301905 A    
C48   C70   1.421696 A    
C173  H21   1.079248 S    
Cu4   O20   1.960376 S    
Cu5   O21   1.965214 S    
C4    O20   1.288698 A    
C5    O21   1.293544 A    
C76   C196  1.496757 S    
C104  C112  1.427295 A    
C75   C195  1.485606 S    
C105  C113  1.433152 A    
C106  C154  1.412167 A    
O36   Cu11  1.954887 S    
C26   C28   1.396074 A    
C108  C116  1.427634 A    
O2    Cu2   1.953398 S    
C193  H41   1.083705 S    
C50   C68   1.421945 A    
C164  H20   1.081950 S    
C197  H45   1.082478 S    
C176  H24   1.076764 S    
C80   C88   1.417720 A    
C42   C66   1.414644 A    
C87   C175  1.406311 A    
C58   C64   1.392355 A    
C106  C146  1.413841 A    
O38   Cu10  1.960746 S    
C121  C129  1.392759 A    
C135  C167  1.407850 A    
C46   C72   1.423569 A    
C32   H29   1.081438 S    
C133  C165  1.412125 A    
C29   C31   1.389079 A    
C123  C203  1.492714 S    
C46   C54   1.433027 A    
C136  C168  1.401353 A    
C9    C58   1.489796 S    
C23   C70   1.419829 A    
C1    C130  1.501759 S    
C2    O18   1.285563 A    
C7    O23   1.284982 A    
C201  O61   1.222104 D    
C169  H57   1.081240 S    
C103  C151  1.412074 A    
C5    C126  1.485404 S    
C101  C109  1.420972 A    
O15   Cu7   1.956582 S    
C99   C160  1.410772 A    
O16   Cu8   1.956582 S    
O33   Cu11  1.960749 S    
C27   H34   1.082507 S    
O34   Cu12  1.960746 S    
C18   C26   1.410629 A    
C61   H1    1.083509 S    
C113  C187  1.482066 S    
C199  O59   1.220899 D    
C114  C188  1.507910 S    
C107  C155  1.405085 A    
C110  C184  1.488859 S    
C49   C57   1.438863 A    
O1    C14   1.303533 A    
C200  H48   1.083731 S    
O3    C16   1.296607 A    
O40   Cu9   1.954887 S    
C155  C163  1.388833 A    
Cu2   O18   1.965215 S    
O8    C11   1.304538 A    
C120  C200  1.486675 S    
O9    Cu1   1.959056 S    
C50   C76   1.425693 A    
C52   C67   1.414104 A    
C117  C197  1.487233 S    
Cu11  Cu12  2.676751 S    
C24   C38   1.415158 A    
C52   C60   1.430507 A    
O31   C15   1.287592 A    
C28   H33   1.081530 S    
C23   C37   1.415651 A    
C21   C29   1.408215 A    
O32   C16   1.288653 A    
O40   C186  1.308399 A    
C10   C57   1.497659 S    
C80   C144  1.426497 A    
C40   C41   1.409775 A    
C139  C147  1.409489 A    
C30   C32   1.389120 A    
C154  H10   1.077300 S    
O4    Cu4   1.956789 S    
C115  C185  1.484723 S    
C49   C67   1.414148 A    
C12   C59   1.476910 S    
Cu9   O45   1.958925 S    
C166  C174  1.391026 A    
C190  H38   1.082798 S    
C192  O52   1.220803 D    
C177  H25   1.075049 S    
Cu7   O23   1.960377 S    
C107  C147  1.409156 A    
C91   C99   1.423625 A    
Cu8   O24   1.960376 S    
C175  H23   1.081360 S    
C62   H2    1.083481 S    
C24   C32   1.404354 A    
O6    C9    1.307800 A    
C79   C143  1.424502 A    
C111  C181  1.477859 S    
Cu1   O25   1.956707 S    
C95   C164  1.397765 A    
C77   C141  1.423881 A    
C156  H12   1.076525 S    
C112  C120  1.416792 A    
C138  C170  1.413282 A    
C81   C145  1.425241 A    
C6    O22   1.290431 A    
C78   C86   1.420670 A    
Cu11  O44   1.967577 S    
C54   C62   1.392934 A    
C105  C153  1.403166 A    
