data_mof_unit_50297.cif
_audit_creation_date              2012-12-11T15:45:04-0500
_audit_creation_method            fapswitch 2.2
_symmetry_space_group_name_H-M    P1
_symmetry_Int_Tables_number       1
_space_group_crystal_system       triclinic
_cell_length_a                    6.927791
_cell_length_b                    16.822362
_cell_length_c                    17.068858
_cell_angle_alpha                 100.350591
_cell_angle_beta                  91.238677
_cell_angle_gamma                 89.290434
_cell_volume                      1956.33394625

loop_
_atom_site_label
_atom_site_type_symbol
_atom_type_description
_atom_site_fract_x
_atom_site_fract_y
_atom_site_fract_z
_atom_type_partial_charge
O1    O     O_R   0.494370 0.415690 0.413450 -0.540522
O2    O     O_R   0.819420 0.429360 0.578420 -0.542535
O3    O     O_R   0.994280 0.584310 0.586550 -0.540000
C1    C     C_R   0.654026 0.413545 0.605268 0.696053
O4    O     O_R   0.823790 0.406230 0.413570 -0.543257
O5    O     O_R   0.998670 0.561000 0.420530 -0.540234
C2    C     C_R   0.654433 0.383022 0.384902 0.686324
O6    O     O_R   0.489970 0.439000 0.579470 -0.536488
O7    O     O_3   0.662300 0.550810 0.502470 -0.367594
V1    V     V_3+5 0.935380 0.490570 0.499540 1.395873
O8    O     O_R   0.328650 0.570640 0.421580 -0.539615
C3    C     C_R   0.156178 0.586481 0.395017 0.698271
O9    O     O_R   0.324290 0.593770 0.586430 -0.541947
C4    C     C_R   0.156318 0.617825 0.614426 0.695884
V2    V     V_3+5 0.435930 0.509430 0.500460 1.392232
O10   O     O_3   0.159140 0.449190 0.497530 -0.367715
C5    C     C_R   0.303189 0.742906 0.703372 0.286012
C6    C     C_R   0.286980 0.805818 0.769007 -0.168911
H1    H     H_    0.406818 0.847020 0.783647 0.137562
C7    C     C_R   0.119799 0.816676 0.814881 -0.109796
C8    C     C_R   0.965622 0.763416 0.793359 -0.144598
H2    H     H_    0.834412 0.770198 0.827391 0.132327
C9    C     C_R   0.980406 0.699560 0.728606 -0.183290
H3    H     H_    0.860063 0.658606 0.715269 0.127030
C10   C     C_R   0.148458 0.687498 0.682599 -0.114728
C11   C     C_R   0.128100 0.639237 0.334182 -0.070610
C12   C     C_R   0.136581 0.861195 0.166251 -0.070542
C13   C     C_R   0.355244 0.811008 0.261424 -0.201360
C14   C     C_R   0.313229 0.864665 0.209619 -0.159936
C15   C     C_R   0.000118 0.803444 0.177557 -0.243290
C16   C     C_R   0.042469 0.748631 0.229397 0.159800
C17   C     C_R   0.221907 0.752112 0.271415 0.161569
C18   C     C_R   0.264323 0.697210 0.323176 -0.247802
C19   C     C_R   0.951355 0.635884 0.290904 -0.159068
C20   C     C_R   0.909134 0.689729 0.239339 -0.201174
H4    H     H_    0.400042 0.701201 0.356431 0.122194
H5    H     H_    0.843095 0.591806 0.297612 0.130507
H6    H     H_    0.493123 0.815152 0.293067 0.120831
H7    H     H_    0.771212 0.685629 0.207730 0.121986
H8    H     H_    0.421574 0.908657 0.202764 0.129743
H9    H     H_    0.864313 0.799464 0.144374 0.124338
C21   C     C_R   0.660926 0.361169 0.667070 -0.056931
C22   C     C_R   0.602034 0.137038 0.831353 -0.113562
C23   C     C_R   0.410385 0.182434 0.723616 0.118253
C24   C     C_R   0.441740 0.129703 0.778570 -0.156185
C25   C     C_R   0.737071 0.197396 0.828005 -0.254395
C26   C     C_R   0.709589 0.251458 0.774361 0.148368
C27   C     C_R   0.545423 0.245116 0.722107 0.091943
C28   C     C_R   0.522392 0.301386 0.669339 -0.244933
C29   C     C_R   0.821187 0.366045 0.719634 -0.173367
C30   C     C_R   0.844374 0.312516 0.772889 -0.176937
H10   H     H_    0.401521 0.297795 0.627738 0.116660
H11   H     H_    0.930809 0.411304 0.719034 0.121913
H12   H     H_    0.970253 0.318159 0.812261 0.119651
H13   H     H_    0.340184 0.082213 0.781718 0.135611
H14   H     H_    0.860200 0.203958 0.868890 0.128269
C31   C     C_R   0.811934 0.276641 0.282680 -0.156023
H15   H     H_    0.952895 0.296197 0.306709 0.116628
C32   C     C_R   0.801283 0.212862 0.217559 -0.153517
H16   H     H_    0.934380 0.185136 0.193581 0.117655
C33   C     C_R   0.621563 0.185255 0.184021 -0.046864
C34   C     C_R   0.452783 0.223195 0.217516 -0.155902
H17   H     H_    0.311825 0.203637 0.193487 0.116641
C35   C     C_R   0.463434 0.286975 0.282638 -0.153912
H18   H     H_    0.330340 0.314702 0.306619 0.117908
C36   C     C_R   0.643159 0.314602 0.316155 -0.047709
O11   O     O_R   0.774880 0.061150 0.920630 -0.535407
O12   O     O_R   0.440980 0.093710 0.086500 -0.543742
O13   O     O_R   0.266190 0.938890 0.079390 -0.540768
C37   C     C_R   0.610318 0.116894 0.115214 0.684711
O14   O     O_R   0.445420 0.070740 0.921670 -0.544055
O15   O     O_R   0.270660 0.915760 0.913380 -0.541567
C38   C     C_R   0.610639 0.086217 0.894520 0.713392
O16   O     O_R   0.770400 0.084270 0.086640 -0.541424
O17   O     O_3   0.602590 0.949210 0.997500 -0.367936
V3    V     V_3+5 0.329470 0.009420 0.000470 1.398708
O18   O     O_R   0.940650 0.906250 0.913470 -0.542302
C39   C     C_R   0.109069 0.883700 0.884531 0.702889
O19   O     O_R   0.936210 0.929220 0.078300 -0.540076
C40   C     C_R   0.108645 0.913615 0.105084 0.701565
V4    V     V_3+5 0.828930 0.990510 0.999490 1.402369
O20   O     O_3   0.105680 0.050790 0.002500 -0.369213
N1    N     N_2   0.476636 0.738409 0.659680 -0.529629
H19   H     H_    0.551333 0.684491 0.653912 0.268210
C41   C     C_3   0.465546 0.773649 0.588417 -0.506423
H20   H     H_    0.610577 0.771812 0.561657 0.191240
H21   H     H_    0.417356 0.837749 0.603240 0.191256
H22   H     H_    0.363418 0.739521 0.544064 0.182319
C42   C     C_3   0.234903 0.173394 0.667049 -0.365069
C43   C     C_3   0.096704 0.104616 0.673228 -0.756965
H23   H     H_    0.171862 0.045254 0.658563 0.219650
H24   H     H_    0.036267 0.112374 0.733835 0.231455
H25   H     H_    0.974641 0.105350 0.630084 0.224544
H26   H     H_    0.149968 0.230594 0.677850 0.190431
H27   H     H_    0.286425 0.163652 0.604808 0.179048

loop_
_geom_bond_atom_site_label_1
_geom_bond_atom_site_label_2
_ccdc_geom_bond_type
C33   C37   S    
C22   C38   S    
C12   C14   A    
C19   H5    S    
O2    C1    A    
C31   C36   A    
C1    O6    A    
V4    O20   S    
C31   H15   S    
O18   C39   A    
C13   C14   A    
C6    H1    S    
O5    C3    A    
O14   V3    S    
C31   C32   A    
V2    O10   S    
C18   H4    S    
O13   V3    S    
C19   C20   A    
C42   H26   S    
O15   C39   A    
O8    V2    S    
C11   C19   A    
C16   C17   A    
C37   O16   A    
C34   C35   A    
C9    H3    S    
C15   H9    S    
O11   C38   A    
O18   V4    S    
O7    V1    S    
O15   V3    S    
C32   H16   S    
O9    C4    A    
C12   C15   A    
C29   C30   A    
C41   H21   S    
C32   C33   A    
C29   H11   S    
C26   C27   A    
C13   C17   A    
C12   C40   S    
V3    O20   S    
O4    C2    A    
O17   V4    S    
C26   C30   A    
C41   H20   S    
C3    C11   S    
C5    N1    S    
C35   C36   A    
C42   H27   S    
C20   H7    S    
O17   V3    S    
C34   H17   S    
C11   C18   A    
C43   H24   S    
N1    H19   S    
C13   H6    S    
C28   H10   S    
C5    C6    A    
C22   C24   A    
O3    C4    A    
C21   C29   A    
O1    V2    S    
C27   C28   A    
N1    C41   S    
O11   V4    S    
O6    V2    S    
O9    V2    S    
C16   C20   A    
O16   V4    S    
C25   H14   S    
O2    V1    S    
C23   C24   A    
C43   H25   S    
O19   V4    S    
C41   H22   S    
C25   C26   A    
O1    C2    A    
O5    V1    S    
O8    C3    A    
O12   V3    S    
C7    C39   S    
C30   H12   S    
C5    C10   A    
C17   C18   A    
C8    C9    A    
O7    V2    S    
O4    V1    S    
O3    V1    S    
V1    O10   S    
C35   H18   S    
C2    C36   S    
C43   H23   S    
C15   C16   A    
C1    C21   S    
C14   H8    S    
C6    C7    A    
C9    C10   A    
C4    C10   S    
C33   C34   A    
C22   C25   A    
C21   C28   A    
O19   C40   A    
C7    C8    A    
C24   H13   S    
O12   C37   A    
O14   C38   A    
O13   C40   A    
C42   C43   S    
C8    H2    S    
C23   C42   S    
C23   C27   A    
