data_mof_unit_52288.cif
_audit_creation_date              2012-12-11T15:17:44-0500
_audit_creation_method            fapswitch 2.2
_symmetry_space_group_name_H-M    P1
_symmetry_Int_Tables_number       1
_space_group_crystal_system       triclinic
_cell_length_a                    7.048699
_cell_length_b                    19.368983
_cell_length_c                    23.352193
_cell_angle_alpha                 90.20247
_cell_angle_beta                  90.001145
_cell_angle_gamma                 89.999337
_cell_volume                      3188.16465598

loop_
_atom_site_label
_atom_site_type_symbol
_atom_type_description
_atom_site_fract_x
_atom_site_fract_y
_atom_site_fract_z
_atom_type_partial_charge
O1    O     O_R   0.620180 0.810610 0.187990 -0.536488
O2    O     O_R   0.379820 0.189390 0.812010 -0.535115
O3    O     O_R   0.379820 0.189390 0.687990 -0.546469
O4    O     O_R   0.620180 0.810610 0.312010 -0.546594
O5    O     O_R   0.120180 0.689390 0.312010 -0.536511
O6    O     O_R   0.879820 0.310610 0.687990 -0.535114
O7    O     O_R   0.879820 0.310610 0.812010 -0.546475
O8    O     O_R   0.120180 0.689390 0.187990 -0.546648
O9    O     O_R   0.290420 0.818570 0.311590 -0.531744
O10   O     O_R   0.709580 0.181430 0.688410 -0.534629
O11   O     O_R   0.709580 0.181430 0.811590 -0.534669
O12   O     O_R   0.290420 0.818570 0.188410 -0.530566
O13   O     O_R   0.790420 0.681430 0.188410 -0.531743
O14   O     O_R   0.209580 0.318570 0.811590 -0.534635
O15   O     O_R   0.209580 0.318570 0.688410 -0.534666
O16   O     O_R   0.790420 0.681430 0.311590 -0.530521
H1    H     H_    0.635139 0.543098 0.598439 0.143932
H2    H     H_    0.372819 0.455909 0.401249 0.150888
H3    H     H_    0.145852 0.421719 0.132328 0.156311
H4    H     H_    0.839559 0.576075 0.869946 0.143385
H5    H     H_    0.135293 0.956854 0.901523 0.143937
H6    H     H_    0.872692 0.044131 0.098788 0.150875
H7    H     H_    0.645804 0.078268 0.367667 0.156257
H8    H     H_    0.339620 0.923924 0.630061 0.143387
C1    C     C_R   0.457777 0.828811 0.335147 0.726184
C2    C     C_R   0.541667 0.171222 0.664596 0.743378
C3    C     C_R   0.538947 0.166060 0.832577 0.754705
C4    C     C_R   0.461715 0.834835 0.168162 0.726707
C5    C     C_R   0.957778 0.671179 0.164858 0.726222
C6    C     C_R   0.041668 0.328782 0.835401 0.743360
C7    C     C_R   0.038943 0.333940 0.667423 0.754687
C8    C     C_R   0.961719 0.665166 0.331839 0.726746
H9    H     H_    0.639462 0.625468 0.523544 0.122451
H10   H     H_    0.362620 0.372258 0.474688 0.123308
H11   H     H_    0.179057 0.340943 0.057930 0.122447
H12   H     H_    0.826462 0.659302 0.943106 0.121719
H13   H     H_    0.139641 0.874482 0.976409 0.122442
H14   H     H_    0.862488 0.127781 0.025354 0.123299
H15   H     H_    0.679017 0.159052 0.442063 0.122444
H16   H     H_    0.326527 0.840692 0.556905 0.121721
O17   O     O_3   0.453640 0.707610 0.250000 -0.346087
O18   O     O_3   0.546360 0.292390 0.750000 -0.354567
O19   O     O_3   0.953640 0.792390 0.250000 -0.346076
O20   O     O_3   0.046360 0.207610 0.750000 -0.354573
V1    V     V_3+5 0.178800 0.757860 0.250000 1.554546
V2    V     V_3+5 0.821200 0.242140 0.750000 1.534166
V3    V     V_3+5 0.678800 0.742140 0.250000 1.554615
V4    V     V_3+5 0.321200 0.257860 0.750000 1.534164
C9    C     C_R   0.104024 0.363148 0.561859 0.074639
C10   C     C_R   0.897396 0.634536 0.436409 0.081838
C11   C     C_R   0.932099 0.644942 0.056544 0.074451
C12   C     C_R   0.074802 0.355288 0.944166 0.078085
C13   C     C_R   0.603994 0.136858 0.938146 0.074648
C14   C     C_R   0.397460 0.865451 0.063584 0.081844
C15   C     C_R   0.432111 0.855049 0.443463 0.074455
C16   C     C_R   0.574792 0.144713 0.555831 0.078084
C17   C     C_R   0.017754 0.379833 0.615495 -0.140125
C18   C     C_R   0.985098 0.618565 0.383012 -0.135541
C19   C     C_R   0.967507 0.623598 0.114304 -0.132869
C20   C     C_R   0.028463 0.375794 0.886785 -0.138484
C21   C     C_R   0.517767 0.120166 0.884503 -0.140128
C22   C     C_R   0.485088 0.881436 0.116990 -0.135552
C23   C     C_R   0.467503 0.876392 0.385703 -0.132875
C24   C     C_R   0.528460 0.124209 0.613212 -0.138495
C25   C     C_R   0.895659 0.439205 0.616918 -0.099898
C26   C     C_R   0.111777 0.560194 0.381482 -0.131188
C27   C     C_R   0.019691 0.554352 0.124836 -0.079749
C28   C     C_R   0.950944 0.442402 0.878340 -0.088195
C29   C     C_R   0.395715 0.060785 0.883073 -0.099890
C30   C     C_R   0.611703 0.939825 0.118531 -0.131223
C31   C     C_R   0.519643 0.945640 0.375169 -0.079690
C32   C     C_R   0.450952 0.057601 0.621658 -0.088190
C33   C     C_R   0.879004 0.483244 0.568554 0.019851
C34   C     C_R   0.124064 0.514686 0.429224 0.031748
C35   C     C_R   0.041772 0.506176 0.079646 0.023474
C36   C     C_R   0.946151 0.492127 0.922670 0.028399
C37   C     C_R   0.379076 0.016738 0.931431 0.019857
C38   C     C_R   0.624016 0.985326 0.070788 0.031773
C39   C     C_R   0.541734 0.993819 0.420355 0.023448
C40   C     C_R   0.446165 0.007872 0.577331 0.028397
C41   C     C_R   0.000914 0.474306 0.521677 0.040616
C42   C     C_R   0.999043 0.522767 0.475592 0.039918
C43   C     C_R   0.994871 0.524973 0.023299 0.043842
C44   C     C_R   0.005476 0.474599 0.978146 0.045568
C45   C     C_R   0.500937 0.025689 0.978319 0.040614
C46   C     C_R   0.499063 0.977228 0.024404 0.039925
C47   C     C_R   0.494862 0.975023 0.476704 0.043846
C48   C     C_R   0.505471 0.025400 0.521854 0.045569
C49   C     C_R   0.121806 0.416325 0.520100 0.052403
C50   C     C_R   0.878414 0.580875 0.477519 0.048910
C51   C     C_R   0.934617 0.593524 0.011967 0.057918
C52   C     C_R   0.069125 0.406412 0.989117 0.060416
C53   C     C_R   0.621770 0.083685 0.979909 0.052407
C54   C     C_R   0.378495 0.919104 0.022464 0.048912
C55   C     C_R   0.434632 0.906470 0.488039 0.057923
C56   C     C_R   0.569107 0.093587 0.510880 0.060408
C57   C     C_R   0.744149 0.537148 0.566222 -0.122985
C58   C     C_R   0.259718 0.461003 0.432159 -0.124664
C59   C     C_R   0.106356 0.438668 0.089894 -0.132061
C60   C     C_R   0.883427 0.559807 0.912223 -0.123671
C61   C     C_R   0.244275 0.962817 0.933749 -0.122980
C62   C     C_R   0.759626 0.039024 0.067866 -0.124643
C63   C     C_R   0.606312 0.061325 0.410103 -0.132059
C64   C     C_R   0.383468 0.940191 0.587783 -0.123666
C65   C     C_R   0.746175 0.585452 0.522356 -0.191109
C66   C     C_R   0.255185 0.412024 0.475567 -0.195065
C67   C     C_R   0.123249 0.390708 0.045854 -0.195260
C68   C     C_R   0.878401 0.609079 0.955428 -0.193426
C69   C     C_R   0.246313 0.914510 0.977612 -0.191124
C70   C     C_R   0.755093 0.088002 0.024459 -0.195059
C71   C     C_R   0.623214 0.109288 0.454142 -0.195235
C72   C     C_R   0.378443 0.890916 0.544579 -0.193421
C73   C     C_2   0.785974 0.458960 0.668259 0.804421
O21   O     O_2   0.664247 0.420557 0.687372 -0.553359
O22   O     O_R   0.806482 0.526208 0.689679 -0.644579
H17   H     H_    0.703194 0.539970 0.717523 0.290702
C74   C     C_2   0.237277 0.545193 0.331844 0.763471
O23   O     O_2   0.352992 0.587767 0.315653 -0.521937
O24   O     O_R   0.240772 0.478219 0.309172 -0.663373
H18   H     H_    0.357579 0.469064 0.284982 0.332064
C75   C     C_2   0.049851 0.532453 0.184337 0.759574
O25   O     O_2   0.210852 0.521154 0.200862 -0.545993
O26   O     O_R   0.894298 0.526425 0.221122 -0.655167
H19   H     H_    0.930149 0.510488 0.260857 0.304570
C76   C     C_2   0.854011 0.457452 0.824241 0.767698
O27   O     O_2   0.945033 0.459721 0.779918 -0.553376
O28   O     O_R   0.657172 0.466621 0.824820 -0.659170
H20   H     H_    0.599115 0.470747 0.785504 0.312569
C77   C     C_2   0.286043 0.041030 0.831728 0.804434
O29   O     O_2   0.164278 0.079425 0.812622 -0.553366
O30   O     O_R   0.306603 0.973788 0.810299 -0.644581
H21   H     H_    0.203310 0.960019 0.782458 0.290697
C78   C     C_2   0.737085 0.954861 0.168191 0.763499
O31   O     O_2   0.852793 0.912306 0.184422 -0.521850
O32   O     O_R   0.740469 0.021847 0.190843 -0.663397
H22   H     H_    0.857225 0.031035 0.215048 0.332050
C79   C     C_2   0.549745 0.967534 0.315667 0.759572
O33   O     O_2   0.710749 0.978774 0.299119 -0.545951
O34   O     O_R   0.394142 0.973600 0.278903 -0.655117
H23   H     H_    0.429980 0.989464 0.239147 0.304554
C80   C     C_2   0.354033 0.042552 0.675758 0.767708
O35   O     O_2   0.445060 0.040302 0.720082 -0.553371
O36   O     O_R   0.157201 0.033366 0.675179 -0.659178
H24   H     H_    0.099147 0.029251 0.714495 0.312578
C81   C     C_3   0.122121 0.289260 0.538302 -0.392634
C82   C     C_3   0.092186 0.226730 0.577110 -0.723406
H25   H     H_    0.200960 0.223834 0.610013 0.236095
H26   H     H_    0.954471 0.226588 0.598698 0.225868
H27   H     H_    0.102172 0.178760 0.551066 0.220711
H28   H     H_    0.019882 0.284660 0.502361 0.187158
H29   H     H_    0.260951 0.282434 0.518205 0.191458
C83   C     C_3   0.884764 0.708225 0.460948 -0.388212
C84   C     C_3   0.915265 0.771491 0.422861 -0.723407
H30   H     H_    0.052525 0.771427 0.401037 0.226364
H31   H     H_    0.805771 0.776134 0.390179 0.237162
H32   H     H_    0.908295 0.818878 0.449718 0.216905
H33   H     H_    0.747833 0.715647 0.482094 0.189723
H34   H     H_    0.990182 0.711461 0.496164 0.186965
C85   C     C_3   0.893381 0.719751 0.037809 -0.415773
C86   C     C_3   0.916911 0.780775 0.078972 -0.713433
H35   H     H_    0.814707 0.778807 0.113609 0.242201
H36   H     H_    0.057638 0.783873 0.098519 0.234205
H37   H     H_    0.891848 0.829650 0.055405 0.213974
H38   H     H_    0.987074 0.730899 0.000954 0.181977
H39   H     H_    0.747949 0.721895 0.020547 0.194762
C87   C     C_3   0.116623 0.280730 0.962781 -0.412299
C88   C     C_3   0.092312 0.219784 0.921672 -0.725290
H40   H     H_    0.950710 0.216397 0.902648 0.231498
H41   H     H_    0.192773 0.222482 0.886720 0.241259
H42   H     H_    0.119674 0.170888 0.944981 0.215589
H43   H     H_    0.262340 0.279242 0.979721 0.195858
H44   H     H_    0.024347 0.269029 0.999849 0.181486
C89   C     C_3   0.622121 0.210751 0.961693 -0.392665
C90   C     C_3   0.592166 0.273277 0.922882 -0.723399
H45   H     H_    0.700930 0.276172 0.889978 0.236097
H46   H     H_    0.454446 0.273417 0.901296 0.225876
H47   H     H_    0.602154 0.321249 0.948924 0.220713
H48   H     H_    0.519918 0.215359 0.997642 0.187159
H49   H     H_    0.760971 0.217576 0.981778 0.191465
C91   C     C_3   0.384766 0.791755 0.039062 -0.388232
C92   C     C_3   0.415299 0.728496 0.077155 -0.723418
H50   H     H_    0.552570 0.728564 0.098973 0.226383
H51   H     H_    0.305827 0.723858 0.109842 0.237166
H52   H     H_    0.408313 0.681104 0.050304 0.216902
H53   H     H_    0.247801 0.784334 0.017936 0.189731
H54   H     H_    0.490127 0.788503 0.003831 0.186961
C93   C     C_3   0.393389 0.780242 0.462200 -0.415819
C94   C     C_3   0.416886 0.719218 0.421036 -0.713376
H55   H     H_    0.314701 0.721202 0.386393 0.242209
H56   H     H_    0.557624 0.716101 0.401499 0.234225
H57   H     H_    0.391761 0.670345 0.444599 0.213972
H58   H     H_    0.487092 0.769090 0.499052 0.181992
H59   H     H_    0.247959 0.778104 0.479463 0.194760
C95   C     C_3   0.616623 0.219269 0.537214 -0.412289
C96   C     C_3   0.592329 0.280216 0.578322 -0.725321
H60   H     H_    0.450719 0.283616 0.597338 0.231505
H61   H     H_    0.692775 0.277510 0.613278 0.241260
H62   H     H_    0.619729 0.329110 0.555014 0.215584
H63   H     H_    0.762340 0.220751 0.520274 0.195853
H64   H     H_    0.524343 0.230973 0.500146 0.181493

loop_
_geom_bond_atom_site_label_1
_geom_bond_atom_site_label_2
_ccdc_geom_bond_type
O20   V4    S    
C47   C48   A    
C48   C56   A    
C42   C50   A    
C87   H44   S    
H2    C58   S    
C38   C62   A    
C29   C37   A    
H1    C57   S    
C8    C18   S    
C36   C44   A    
C31   C39   A    
O4    C1    A    
H7    C63   S    
C13   C89   S    
O26   H19   S    
C34   C58   A    
C89   C90   S    
C27   C35   A    
O9    V1    S    
C79   O34   S    
C76   O27   D    
O12   C4    A    
C94   H57   S    
O8    C5    A    
O13   C5    A    
C34   C42   A    
C82   H25   S    
C55   C72   A    
C74   O24   S    
O18   V2    S    
C30   C38   A    
C89   H49   S    
C61   C69   A    
O36   H24   S    
C26   C34   A    
C92   H50   S    
O3    V4    S    
C9    C17   A    
C22   C30   A    
C94   H56   S    
C1    C23   S    
C33   C41   A    
C2    C24   S    
O8    V1    S    
O6    C7    A    
C73   O21   D    
C46   C54   A    
C12   C87   S    
C90   H45   S    
C45   C53   A    
C18   C26   A    
C95   H64   S    
C7    C17   S    
C95   H63   S    
O20   V2    S    
C26   C74   S    
C15   C23   A    
C49   C66   A    
O10   V2    S    
O1    C4    A    
C16   C24   A    
O2    C3    A    
C15   C93   S    
C84   H31   S    
C12   C20   A    
H13   C69   S    
C81   H28   S    
C29   C77   S    
C53   C70   A    
C96   H62   S    
C41   C49   A    
C38   C46   A    
H15   C71   S    
C95   C96   S    
C37   C45   A    
C87   H43   S    
O7    C6    A    
C93   H59   S    
C11   C51   A    
C88   H41   S    
C39   C63   A    
C13   C21   A    
O15   V4    S    
O14   C6    A    
C27   C75   S    
O16   V3    S    
C39   C47   A    
C10   C50   A    
C81   C82   S    
C88   H42   S    
C82   H26   S    
C92   H51   S    
C32   C80   S    
C56   C71   A    
C83   H34   S    
C60   C68   A    
C75   O25   D    
O9    C1    A    
C10   C18   A    
C86   H37   S    
C5    C19   S    
C36   C60   A    
O32   H22   S    
H9    C65   S    
C31   C79   S    
C25   C33   A    
C9    C49   A    
C88   H40   S    
O13   V3    S    
H3    C59   S    
O1    V3    S    
O14   V4    S    
C14   C22   A    
O2    V4    S    
C45   C46   A    
C13   C53   A    
C41   C42   A    
C85   H39   S    
C6    C20   S    
C94   H55   S    
H8    C64   S    
C3    C21   S    
C33   C57   A    
O7    V2    S    
C14   C54   A    
C30   C78   S    
C82   H27   S    
C19   C27   A    
C85   C86   S    
H4    C60   S    
O11   C3    A    
O34   H23   S    
C52   C67   A    
C35   C59   A    
O10   C2    A    
O17   V3    S    
C9    C81   S    
O18   V4    S    
C28   C36   A    
C83   C84   S    
C84   H32   S    
C76   O28   S    
O19   V1    S    
C90   H47   S    
C93   H58   S    
C81   H29   S    
C91   H54   S    
C16   C95   S    
C15   C55   A    
C40   C64   A    
C87   C88   S    
C43   C44   A    
H14   C70   S    
O28   H20   S    
C59   C67   A    
C91   C92   S    
C64   C72   A    
C77   O29   D    
C92   H52   S    
C21   C29   A    
C16   C56   A    
C47   C55   A    
O6    V2    S    
C25   C73   S    
C51   C68   A    
O3    C2    A    
C50   C65   A    
C17   C25   A    
O12   V1    S    
H6    C62   S    
O24   H18   S    
O15   C7    A    
C63   C71   A    
O16   C8    A    
C43   C51   A    
C79   O33   D    
C54   C69   A    
C58   C66   A    
C86   H35   S    
O5    C8    A    
C80   O36   S    
C57   C65   A    
H5    C61   S    
C32   C40   A    
C80   O35   D    
H16   C72   S    
C35   C43   A    
C78   O31   D    
C73   O22   S    
O5    V1    S    
C89   H48   S    
C62   C70   A    
C28   C76   S    
C11   C85   S    
C14   C91   S    
C37   C61   A    
C83   H33   S    
H10   C66   S    
C24   C32   A    
O30   H21   S    
C90   H46   S    
C75   O26   S    
H11   C67   S    
C91   H53   S    
C96   H60   S    
C10   C83   S    
C93   C94   S    
C11   C19   A    
H12   C68   S    
C20   C28   A    
C40   C48   A    
C78   O32   S    
O17   V1    S    
C85   H38   S    
O11   V2    S    
C44   C52   A    
C77   O30   S    
C84   H30   S    
C74   O23   D    
O19   V3    S    
C23   C31   A    
C12   C52   A    
O22   H17   S    
C86   H36   S    
C96   H61   S    
O4    V3    S    
C4    C22   S    
