data_mof_unit_51296.cif
_audit_creation_date              2012-10-26T19:15:01-0400
_audit_creation_method            fapswitch 2.2
_symmetry_space_group_name_H-M    P1
_symmetry_Int_Tables_number       1
_space_group_crystal_system       triclinic
_cell_length_a                    10.86629
_cell_length_b                    10.823862
_cell_length_c                    9.553972
_cell_angle_alpha                 90.28606
_cell_angle_beta                  90.747179
_cell_angle_gamma                 90.882178
_cell_volume                      1123.44866735

loop_
_atom_site_label
_atom_site_type_symbol
_atom_type_description
_atom_site_fract_x
_atom_site_fract_y
_atom_site_fract_z
_atom_type_partial_charge
C1    C     C_R   0.496244 0.262372 0.499625 0.550274
C2    C     C_R   0.483693 0.937486 0.625498 0.011468
C3    C     C_3   0.572535 0.934737 0.745842 -0.252121
C4    C     C_R   0.262460 0.496297 0.499086 0.544622
C5    C     C_3   0.570643 0.074755 0.746014 -0.247854
C6    C     C_R   0.544141 0.600264 0.075300 0.205910
C7    C     C_R   0.446501 0.406223 0.072999 0.014636
C8    C     C_R   0.447099 0.405912 0.924345 0.042123
C9    C     C_R   0.544017 0.600131 0.927482 0.130897
C10   C     C_3   0.672936 0.647388 0.925135 -0.243240
C11   C     C_3   0.672790 0.649530 0.083218 0.092492
C12   C     C_R   0.939059 0.464399 0.621944 -0.009732
C13   C     C_R   0.496705 0.737738 0.500152 0.563217
C14   C     C_R   0.737933 0.497283 0.500412 0.560672
C15   C     C_R   0.065910 0.462812 0.620668 0.078814
C16   C     C_R   0.129642 0.481433 0.496716 -0.018980
C17   C     C_R   0.062826 0.481018 0.369774 -0.145121
C18   C     C_R   0.934317 0.481663 0.370957 -0.131361
C19   C     C_R   0.871256 0.483671 0.498967 -0.002168
C20   C     C_3   0.938713 0.530090 0.759512 -0.233220
C21   C     C_3   0.078018 0.527841 0.758128 0.122942
C22   C     C_R   0.482852 0.064630 0.625020 0.019129
C23   C     C_R   0.481231 0.129298 0.499215 0.012505
C24   C     C_R   0.460064 0.063419 0.373779 -0.135228
C25   C     C_R   0.459615 0.934397 0.374421 -0.109505
C26   C     C_R   0.481906 0.870742 0.500121 0.017576
Cl1   Cl    Cl    0.681577 0.802412 0.153500 -0.635646
Cl2   Cl    Cl    0.140353 0.430376 0.890498 -0.640787
Cu1   Cu    Cu3+1 0.499990 0.499980 0.640670 0.974304
Cu2   Cu    Cu3+1 0.500010 0.500020 0.359330 0.989321
H1    H     H_    0.109133 0.487078 0.270277 0.181197
H2    H     H_    0.885477 0.486910 0.271954 0.146783
H3    H     H_    0.902224 0.625228 0.751115 0.107901
H4    H     H_    0.898707 0.470734 0.842391 0.176413
H5    H     H_    0.122543 0.620782 0.751256 0.137715
H6    H     H_    0.449940 0.110852 0.274850 0.137694
H7    H     H_    0.448015 0.885353 0.275996 0.182212
H8    H     H_    0.530593 0.893848 0.840816 0.167340
H9    H     H_    0.663223 0.897399 0.715666 0.143732
H10   H     H_    0.526951 0.114217 0.840454 0.141017
H11   H     H_    0.660265 0.118136 0.717546 0.154154
H12   H     H_    0.404460 0.329392 0.127371 0.130672
H13   H     H_    0.405633 0.328755 0.867918 0.155477
H14   H     H_    0.733216 0.576243 0.883185 0.110594
H15   H     H_    0.682792 0.739114 0.876070 0.156047
H16   H     H_    0.738752 0.584428 0.130998 0.138119
N1    N     N_R   0.500790 0.500930 0.147930 -0.259692
N2    N     N_R   0.500790 0.500890 0.852020 -0.242053
O1    O     O_R   0.500000 0.319640 0.618810 -0.511740
O2    O     O_R   0.500010 0.319680 0.381230 -0.518999
O3    O     O_R   0.319650 0.499970 0.618810 -0.469187
O4    O     O_R   0.319660 0.500010 0.381230 -0.505460
O5    O     O_R   0.499990 0.680320 0.618770 -0.508103
O6    O     O_R   0.500000 0.680360 0.381190 -0.466135
O7    O     O_R   0.680340 0.499990 0.618770 -0.509601
O8    O     O_R   0.680350 0.500030 0.381190 -0.502038

loop_
_geom_bond_atom_site_label_1
_geom_bond_atom_site_label_2
_ccdc_geom_bond_type
C2    C22   A    
C14   O8    A    
C23   C24   A    
C8    H13   S    
C4    C16   S    
Cu1   Cu2   S    
C21   H5    S    
C1    O2    A    
Cu1   O7    S    
C9    C10   S    
C13   O5    A    
C12   C15   A    
C11   Cl1   S    
C20   H4    S    
Cu2   O8    S    
C12   C20   S    
C10   H15   S    
C8    N2    A    
C14   O7    A    
Cu2   O2    S    
C3    H9    S    
C7    C8    A    
C2    C26   A    
Cu1   O1    S    
C20   C21   S    
Cu2   O6    S    
C24   H6    S    
Cu1   O5    S    
C4    O4    A    
C20   H3    S    
C12   C19   A    
C21   Cl2   S    
C1    C23   S    
C2    C3    S    
C10   C11   S    
C17   H1    S    
C13   C26   S    
C7    H12   S    
C18   H2    S    
C6    N1    A    
C4    O3    A    
C10   H14   S    
C15   C16   A    
Cu2   N1    S    
C15   C21   S    
C6    C9    A    
C24   C25   A    
C9    N2    A    
C17   C18   A    
C13   O6    A    
Cu1   O3    S    
C5    H10   S    
C6    C11   S    
C5    H11   S    
C22   C23   A    
C18   C19   A    
C11   H16   S    
Cu2   O4    S    
Cu1   N2    S    
C25   H7    S    
C25   C26   A    
C1    O1    A    
C14   C19   S    
C5    C22   S    
C3    H8    S    
C16   C17   A    
C3    C5    S    
C7    N1    A    
