data_mof_unit_28168.cif
_audit_creation_date              2012-10-26T19:21:07-0400
_audit_creation_method            fapswitch 2.2
_symmetry_space_group_name_H-M    P1
_symmetry_Int_Tables_number       1
_space_group_crystal_system       triclinic
_cell_length_a                    9.959653
_cell_length_b                    11.039535
_cell_length_c                    13.167525
_cell_angle_alpha                 96.356788
_cell_angle_beta                  79.33087
_cell_angle_gamma                 111.166205
_cell_volume                      1325.2369101

loop_
_atom_site_label
_atom_site_type_symbol
_atom_type_description
_atom_site_fract_x
_atom_site_fract_y
_atom_site_fract_z
_atom_type_partial_charge
C1    C     C_R   0.557141 0.744950 0.504305 0.561233
C2    C     C_R   0.365396 0.428282 0.798184 -0.050649
C3    C     C_2   0.583415 0.884156 0.511181 -0.111306
C4    C     C_R   0.418838 0.473665 0.690064 0.542055
C5    C     C_2   0.519769 0.938086 0.455958 -0.004594
C6    C     C_2   0.424126 0.117674 0.470255 -0.134179
C7    C     C_2   0.525464 0.071674 0.486949 -0.153155
C8    C     C_2   0.942452 0.516398 0.476789 0.083211
C9    C     C_2   0.083006 0.519710 0.506591 0.203489
C10   C     C_R   0.445406 0.255222 0.489988 0.541576
C11   C     C_R   0.578276 0.511234 0.307804 0.529745
C12   C     C_R   0.419172 0.400020 0.965978 0.016338
C13   C     C_R   0.785499 0.476106 0.039936 -0.138675
C14   C     C_R   0.618928 0.501698 0.193495 -0.012964
C15   C     C_R   0.219182 0.400524 0.843032 -0.108083
C16   C     C_R   0.168383 0.350110 0.942064 0.104125
C17   C     C_R   0.267897 0.346420 0.004947 0.036473
C18   C     C_3   0.469671 0.877508 0.353477 -0.234379
C19   C     C_3   0.305334 0.804532 0.362774 -0.411571
C20   C     C_3   0.924242 0.491244 0.362928 -0.230308
C21   C     C_3   0.042072 0.463973 0.279558 -0.496670
C22   C     C_3   0.828593 0.361161 0.827018 -0.290163
C23   C     C_R   0.460350 0.409454 0.858186 -0.012703
C24   C     C_3   0.829257 0.294589 0.718601 -0.459162
C25   C     C_3   0.213016 0.259915 0.098320 -0.277039
C26   C     C_3   0.262437 0.142293 0.078361 -0.431700
C27   C     C_R   0.531833 0.433653 0.026906 0.016706
C28   C     C_R   0.672385 0.434953 0.979762 0.047845
C29   C     C_R   0.695050 0.395679 0.873674 -0.005119
C30   C     C_R   0.589375 0.387146 0.813826 -0.090779
C31   C     C_R   0.510817 0.476048 0.131175 -0.128755
C32   C     C_R   0.758186 0.507931 0.145522 -0.152903
Cu1   Cu    Cu3+1 0.362000 0.479240 0.482530 0.930683
Cu2   Cu    Cu3+1 0.638000 0.520760 0.517470 0.895345
H1    H     H_    0.846438 0.540372 0.188796 0.111946
H2    H     H_    0.615281 0.133526 0.526118 0.136694
H3    H     H_    0.242036 0.844277 0.427027 0.143563
H4    H     H_    0.267549 0.808024 0.289273 0.113407
H5    H     H_    0.281009 0.701724 0.376367 0.197605
H6    H     H_    0.500702 0.956273 0.298573 0.133782
H7    H     H_    0.528519 0.811175 0.317162 0.138355
H8    H     H_    0.142894 0.701834 0.573087 0.205738
H9    H     H_    0.081129 0.581052 0.657150 0.193255
H10   H     H_    0.153608 0.529122 0.288469 0.164768
H11   H     H_    0.031450 0.360229 0.276492 0.125654
H12   H     H_    0.330103 0.057256 0.435673 0.109658
H13   H     H_    0.027315 0.480767 0.201817 0.122228
H14   H     H_    0.822849 0.406655 0.356862 0.191156
H15   H     H_    0.920629 0.583688 0.340529 0.175353
H16   H     H_    0.732188 0.204373 0.716997 0.144090
H17   H     H_    0.831818 0.360675 0.660505 0.155073
H18   H     H_    0.928374 0.267649 0.696891 0.152390
H19   H     H_    0.926976 0.450287 0.826372 0.142158
H20   H     H_    0.833027 0.290055 0.877653 0.199211
H21   H     H_    0.226186 0.086656 0.006756 0.154505
H22   H     H_    0.382850 0.173104 0.070390 0.162176
H23   H     H_    0.641683 0.940920 0.572612 0.075762
H24   H     H_    0.213828 0.077439 0.144348 0.131447
H25   H     H_    0.246645 0.311725 0.170889 0.142833
H26   H     H_    0.092746 0.221290 0.116823 0.135105
H27   H     H_    0.989627 0.338071 0.048730 0.222805
H28   H     H_    0.982791 0.197107 0.978495 0.234167
H29   H     H_    0.095647 0.361684 0.422254 0.194199
H30   H     H_    0.865342 0.574342 0.618723 0.202289
H31   H     H_    0.896085 0.486804 0.005646 0.127778
H32   H     H_    0.411649 0.494216 0.163543 0.121318
H33   H     H_    0.142428 0.407420 0.797752 0.140111
H34   H     H_    0.603172 0.355218 0.733619 0.161335
N1    N     N_2   0.845330 0.551960 0.543750 -0.366561
N2    N     N_2   0.154690 0.448120 0.456210 -0.327823
N3    N     N_3   0.145534 0.611106 0.586037 -0.536240
N4    N     N_3   0.014700 0.297969 0.975247 -0.689241
O1    O     O_R   0.426290 0.668220 0.490680 -0.450364
O2    O     O_R   0.659360 0.703290 0.520190 -0.483119
O3    O     O_R   0.326580 0.473880 0.629020 -0.460957
O4    O     O_R   0.559660 0.508940 0.658530 -0.498890
O5    O     O_R   0.340640 0.296710 0.479810 -0.494373
O6    O     O_R   0.573710 0.331780 0.509320 -0.508447
O7    O     O_R   0.440340 0.491060 0.341470 -0.503476
O8    O     O_R   0.673420 0.526120 0.370980 -0.516395

loop_
_geom_bond_atom_site_label_1
_geom_bond_atom_site_label_2
_ccdc_geom_bond_type
C24   H18   S    
C31   H32   S    
C22   C29   S    
C7    H2    S    
C13   C32   A    
C16   N4    S    
C14   C31   A    
C26   H21   S    
C10   O6    A    
C22   H20   S    
C13   H31   S    
C12   C23   A    
C8    N1    D    
C20   H15   S    
C1    O2    A    
C19   H5    S    
C28   C29   A    
C11   C14   S    
C15   C16   A    
C18   C19   S    
C18   H6    S    
C4    O3    A    
C19   H3    S    
Cu2   O8    S    
Cu1   O3    S    
C8    C9    S    
C12   C17   A    
C13   C28   A    
C25   H26   S    
C24   H17   S    
C10   O5    A    
C22   H19   S    
C21   H11   S    
C24   H16   S    
C12   C27   A    
C27   C31   A    
C32   H1    S    
C9    N2    D    
C18   H7    S    
C5    C7    S    
Cu1   O7    S    
C5    C18   S    
C25   C26   S    
C1    C3    S    
C2    C4    S    
C23   C30   A    
C29   C30   A    
C19   H4    S    
C21   H10   S    
H29   N2    S    
C15   H33   S    
Cu1   Cu2   S    
H28   N4    S    
C8    C20   S    
H30   N1    S    
C2    C15   A    
C26   H24   S    
Cu2   N1    S    
C20   H14   S    
C11   O7    A    
Cu1   N2    S    
Cu2   O2    S    
C3    H23   S    
H27   N4    S    
Cu1   O1    S    
C22   C24   S    
C2    C23   A    
H9    N3    S    
C6    H12   S    
C9    N3    S    
C14   C32   A    
C3    C5    D    
C26   H22   S    
C6    C10   S    
C6    C7    D    
C1    O1    A    
C17   C25   S    
Cu2   O6    S    
Cu1   O5    S    
C16   C17   A    
H8    N3    S    
C4    O4    A    
C11   O8    A    
C20   C21   S    
C27   C28   A    
C25   H25   S    
C30   H34   S    
Cu2   O4    S    
C21   H13   S    
