data_mof_unit_34475.cif
_audit_creation_date              2012-12-11T14:36:25-0500
_audit_creation_method            fapswitch 2.2
_symmetry_space_group_name_H-M    P1
_symmetry_Int_Tables_number       1
_space_group_crystal_system       triclinic
_cell_length_a                    13.536643
_cell_length_b                    13.520808
_cell_length_c                    27.592155
_cell_angle_alpha                 90.431693
_cell_angle_beta                  90.176565
_cell_angle_gamma                 60.025955
_cell_volume                      4374.52535217

loop_
_atom_site_label
_atom_site_type_symbol
_atom_type_description
_atom_site_fract_x
_atom_site_fract_y
_atom_site_fract_z
_atom_type_partial_charge
C1    C     C_R   0.619994 0.100733 0.570393 0.547452
C2    C     C_1   0.648887 0.705702 0.658676 -0.029470
C3    C     C_3   0.194339 0.058102 0.744719 0.435779
C4    C     C_R   0.599353 0.780064 0.568917 0.541843
C5    C     C_3   0.258302 0.089973 0.781966 0.425345
C6    C     C_1   0.095134 0.202827 0.901647 0.011255
C7    C     C_1   0.231203 0.137213 0.617773 0.016145
C8    C     C_3   0.079742 0.138759 0.770060 -0.127105
C9    C     C_3   0.145195 0.170802 0.807074 0.010906
C10   C     C_3   0.065176 0.237840 0.736960 -0.177871
C11   C     C_3   0.179614 0.155908 0.712161 0.005517
C12   C     C_1   0.630653 0.732958 0.616660 0.010390
C13   C     C_3   0.130093 0.270002 0.774674 -0.171330
C14   C     C_3   0.245000 0.187955 0.749224 -0.130476
C15   C     C_1   0.122444 0.184113 0.859483 0.001085
C16   C     C_R   0.278572 0.121385 0.569851 0.538078
C17   C     C_1   0.203255 0.146746 0.659845 -0.000764
C18   C     C_3   0.587913 0.279131 0.741695 0.113753
C19   C     C_3   0.552125 0.220543 0.780299 -0.076406
C20   C     C_1   0.691673 0.209041 0.902689 0.002810
C21   C     C_1   0.635292 0.132019 0.618611 0.011530
C22   C     C_3   0.698577 0.246386 0.770162 -0.098225
C23   C     C_3   0.595745 0.638702 0.772886 -0.069209
C24   C     C_3   0.663102 0.186785 0.808034 0.033194
C25   C     C_3   0.761603 0.132734 0.741186 -0.120106
C26   C     C_3   0.650838 0.166366 0.713301 0.049665
C27   C     C_3   0.726394 0.073428 0.779781 -0.107069
C28   C     C_R   0.620210 0.100304 0.431021 0.551609
C29   C     C_3   0.615374 0.106893 0.751253 -0.119519
C30   C     C_1   0.674874 0.198050 0.860484 -0.036333
C31   C     C_1   0.643726 0.150722 0.660852 -0.017569
C32   C     C_R   0.714210 0.750269 0.356883 -0.108424
C33   C     C_R   0.733085 0.721880 0.308064 -0.004436
C34   C     C_3   0.679451 0.654210 0.805443 0.041296
C35   C     C_R   0.748603 0.686523 0.206747 0.048944
C36   C     C_R   0.805994 0.738087 0.229969 0.179673
C37   C     C_R   0.793458 0.758950 0.279810 -0.078230
C38   C     C_R   0.742262 0.676420 0.155540 0.088823
C39   C     C_R   0.695556 0.611514 0.137095 0.002521
C40   C     C_R   0.602552 0.776913 0.430620 0.544956
C41   C     C_R   0.609612 0.648737 0.365147 -0.101369
C42   C     C_R   0.629478 0.618245 0.316441 0.005195
C43   C     C_R   0.687317 0.659076 0.287152 0.055027
C44   C     C_R   0.579369 0.560178 0.295625 -0.082572
C45   C     C_3   0.565401 0.751709 0.747145 -0.051987
C46   C     C_R   0.576104 0.552357 0.245748 0.098335
C47   C     C_R   0.637206 0.588181 0.216577 0.006381
C48   C     C_R   0.693093 0.642869 0.236797 0.005597
C49   C     C_R   0.643734 0.569111 0.167568 -0.122849
C50   C     C_R   0.646255 0.719860 0.384502 0.010762
C51   C     C_R   0.221403 0.051188 0.358445 0.388603
C52   C     C_R   0.277112 0.120729 0.431400 0.563166
C53   C     C_R   0.196836 0.063664 0.308505 0.017058
C54   C     C_R   0.148052 0.096500 0.208423 -0.008979
C55   C     C_R   0.194485 0.986186 0.228011 0.071028
C56   C     C_3   0.662945 0.683827 0.710943 0.034928
C57   C     C_R   0.222734 0.968912 0.277656 0.169604
C58   C     C_R   0.125437 0.115493 0.158641 -0.118906
C59   C     C_R   0.082014 0.224480 0.139581 -0.016410
C60   C     C_R   0.162359 0.251624 0.366408 -0.163978
C61   C     C_R   0.127934 0.269740 0.318216 -0.059800
C62   C     C_R   0.148837 0.174579 0.288619 -0.064541
C63   C     C_R   0.079163 0.379923 0.298311 0.138573
C64   C     C_3   0.693062 0.571171 0.735969 -0.099612
C65   C     C_R   0.053891 0.394777 0.249184 0.406515
C66   C     C_R   0.078206 0.301100 0.219413 0.013690
C67   C     C_3   0.649288 0.766896 0.780434 -0.084992
C68   C     C_R   0.124797 0.190486 0.238905 -0.021037
C69   C     C_R   0.057686 0.316830 0.170035 -0.074587
C70   C     C_R   0.214173 0.142479 0.385786 0.003316
C71   C     C_R   0.537261 0.213120 0.354766 0.072380
C72   C     C_R   0.547115 0.209263 0.304124 -0.005644
C73   C     C_R   0.571885 0.224043 0.203713 0.036578
C74   C     C_R   0.462724 0.264424 0.223601 0.105855
C75   C     C_R   0.450733 0.261052 0.273725 -0.073650
C76   C     C_3   0.777090 0.586224 0.769296 -0.115134
C77   C     C_R   0.587227 0.247559 0.155598 -0.102414
C78   C     C_3   0.746697 0.699419 0.743445 -0.118050
C79   C     C_R   0.697159 0.209944 0.138455 -0.001289
C80   C     C_R   0.740193 0.075085 0.361303 -0.144782
C81   C     C_R   0.753976 0.084341 0.312094 0.000642
C82   C     C_R   0.656463 0.150724 0.283236 0.012081
C83   C     C_R   0.862737 0.027022 0.290831 0.081024
C84   C     C_R   0.875218 0.047373 0.242656 -0.090448
C85   C     C_R   0.779155 0.116601 0.214582 -0.006535
C86   C     C_R   0.668925 0.162531 0.233675 0.036911
C87   C     C_R   0.792333 0.142219 0.167807 -0.102583
C88   C     C_1   0.697149 0.607353 0.899962 0.006627
C89   C     C_1   0.688262 0.633207 0.857783 -0.031532
C90   C     C_R   0.633302 0.136570 0.382843 -0.005032
C91   C     C_R   0.048418 0.236798 0.949622 0.547846
C92   C     C_R   0.711677 0.562508 0.948072 0.553175
C93   C     C_R   0.722448 0.225937 0.950728 0.549896
C94   C     C_R   0.043191 0.248154 0.089609 0.543483
C95   C     C_R   0.709042 0.572048 0.087079 0.565140
C96   C     C_R   0.721409 0.233955 0.089987 0.544166
Cr1   Cr    Cr6+3 0.417550 0.169090 0.500530 1.084205
Cr2   Cr    Cr6+3 0.669180 0.913420 0.499920 1.052923
Cr3   Cr    Cr6+3 0.413260 0.917540 0.499520 1.123186
Cr4   Cr    Cr6+3 0.909170 0.177380 0.020380 1.061182
Cr5   Cr    Cr6+3 0.912710 0.429210 0.018220 1.080262
Cr6   Cr    Cr6+3 0.657170 0.432570 0.019030 1.065393
F1    F     F_    0.253036 0.951412 0.381261 -0.577042
F2    F     F_    0.009398 0.500588 0.229992 -0.606113
F3    F     F_    0.357631 0.012963 0.805272 -0.632279
F4    F     F_    0.228429 0.948314 0.729017 -0.607959
H1    H     H_    0.864456 0.517988 0.778998 0.112726
H2    H     H_    0.711217 0.490770 0.717311 0.133700
H3    H     H_    0.744782 0.804200 0.372186 0.151382
H4    H     H_    0.834034 0.801879 0.296958 0.155500
H5    H     H_    0.611650 0.516142 0.152893 0.174787
H6    H     H_    0.530756 0.533455 0.317649 0.163936
H7    H     H_    0.558297 0.624811 0.386902 0.151100
H8    H     H_    0.140439 0.047222 0.133894 0.162943
H9    H     H_    0.808976 0.724226 0.730734 0.123978
H10   H     H_    0.019660 0.402278 0.155324 0.212488
H11   H     H_    0.154121 0.321080 0.388895 0.190249
H12   H     H_    0.103319 0.357905 0.787466 0.136813
H13   H     H_    0.515650 0.297350 0.131942 0.165868
H14   H     H_    0.365497 0.297294 0.288352 0.175492
H15   H     H_    0.878497 0.111190 0.154684 0.149106
H16   H     H_    0.631210 0.847273 0.799097 0.150247
H17   H     H_    0.959865 0.007791 0.226976 0.159557
H18   H     H_    0.812411 0.019971 0.383658 0.176208
H19   H     H_    0.478006 0.819833 0.737434 0.205898
H20   H     H_    0.533361 0.614073 0.785632 0.161849
H21   H     H_    0.313335 0.207717 0.740575 0.129340
H22   H     H_    0.985397 0.299263 0.718131 0.129426
H23   H     H_    0.012412 0.117661 0.778837 0.124381
H24   H     H_    0.466025 0.256576 0.796673 0.137412
H25   H     H_    0.581189 0.049124 0.743038 0.128383
H26   H     H_    0.783163 0.988451 0.795925 0.127070
H27   H     H_    0.847644 0.096906 0.724773 0.131083
H28   H     H_    0.732538 0.304369 0.778326 0.112268
I1    I     I_    0.478340 0.443221 0.711358 -0.384369
I2    I     I_    0.010495 0.906934 0.328626 -0.235255
I3    I     I_    0.764213 0.780505 0.103359 -0.260988
I4    I     I_    0.935314 0.765081 0.199709 -0.135093
I5    I     I_    0.450185 0.519396 0.217520 -0.260663
I6    I     I_    0.221440 0.844750 0.182421 -0.239635
I7    I     I_    0.318853 0.796269 0.302349 -0.131617
I8    I     I_    0.045010 0.528232 0.339308 -0.229626
I9    I     I_    0.385655 0.351328 0.386433 -0.273103
I10   I     I_    0.312181 0.337981 0.180855 -0.265327
O1    O     O_R   0.301710 0.195650 0.554160 -0.501620
O2    O     O_R   0.635520 0.542770 0.964420 -0.494659
O3    O     O_R   0.665950 0.325030 0.970100 -0.492508
O4    O     O_R   0.522390 0.158990 0.550460 -0.485577
O5    O     O_R   0.816620 0.158530 0.074540 -0.506129
O6    O     O_R   0.004460 0.188870 0.069750 -0.505229
O7    O     O_R   0.025800 0.341780 0.072300 -0.497660
O8    O     O_R   0.807650 0.528950 0.067500 -0.477879
O9    O     O_R   0.633420 0.550490 0.071810 -0.506206
O10   O     O_R   0.664000 0.332180 0.069640 -0.498180
O11   O     O_3   0.826350 0.346390 0.019210 -0.277560
O12   O     O_R   0.658900 0.818120 0.449760 -0.511926
O13   O     O_R   0.694390 0.003530 0.554040 -0.501092
O14   O     O_R   0.657700 0.819660 0.549320 -0.498743
O15   O     O_R   0.501930 0.803280 0.552920 -0.491681
O16   O     O_R   0.318170 0.023580 0.549580 -0.490215
O17   O     O_R   0.303010 0.193990 0.446760 -0.507922
O18   O     O_R   0.523600 0.157450 0.450900 -0.467801
O19   O     O_R   0.695690 0.001860 0.446640 -0.517966
O20   O     O_R   0.503220 0.801620 0.445520 -0.464755
O21   O     O_R   0.319370 0.022040 0.450020 -0.421897
O22   O     O_3   0.499990 0.000010 0.499990 -0.281393
O23   O     O_R   0.818720 0.150820 0.967160 -0.495642
O24   O     O_R   0.006410 0.181720 0.970200 -0.490352
O25   O     O_R   0.027890 0.334070 0.964920 -0.499938
O26   O     O_R   0.809600 0.521790 0.967960 -0.491634

loop_
_geom_bond_atom_site_label_1
_geom_bond_atom_site_label_2
_ccdc_geom_bond_type
C66   C68   A    
C20   C93   S    
C63   C65   A    
C69   H10   S    
C1    C21   S    
C23   C45   S    
Cr3   O15   S    
C27   C29   S    
C41   C42   A    
C78   H9    S    
C18   C26   S    
C24   C27   S    
C9    C15   S    
C2    C12   T    
C79   C87   A    
Cr2   O19   S    
C28   O18   A    
C47   C49   A    
C5    F3    S    
C85   C86   A    
C84   H17   S    
C21   C31   T    
C22   H28   S    
Cr4   O23   S    
C36   C37   A    
C76   C78   S    
C40   O20   A    
C80   H18   S    
C38   C39   A    
Cr6   O3    S    
C11   C14   S    
C66   C69   A    
C54   C68   A    
Cr5   O11   S    
C51   F1    S    
Cr1   O22   S    
C56   C78   S    
C18   C19   S    
C73   C74   A    
C61   C63   A    
C9    C13   S    
C4    O14   A    
C6    C15   T    
C54   C55   A    
C93   O23   A    
C38   I3    S    
C96   O10   A    
C35   C36   A    
C45   C56   S    
C92   O26   A    
C8    C9    S    
C7    C17   T    
C22   C25   S    
C45   C67   S    
C56   C64   S    
Cr5   O25   S    
C59   C94   S    
C4    C12   S    
C25   H27   S    
C43   C48   A    
Cr6   O10   S    
C52   O17   A    
C49   H5    S    
Cr3   O22   S    
C19   H24   S    
C85   C87   A    
C26   C31   S    
C13   C14   S    
C27   H26   S    
C67   C78   S    
C42   C44   A    
C72   C75   A    
C10   H22   S    
C35   C48   A    
C81   C83   A    
C44   C46   A    
C81   C82   A    
C77   C79   A    
C3    F4    S    
Cr2   O12   S    
C74   C75   A    
C91   O25   A    
C92   O2    A    
C33   C43   A    
C13   H12   S    
C91   O24   A    
C18   I1    S    
C35   C38   A    
C3    C11   S    
C84   C85   A    
C3    C8    S    
C32   H3    S    
C45   H19   S    
C87   H15   S    
C53   C57   A    
C20   C30   T    
Cr4   O6    S    
C58   C59   A    
C82   C86   A    
Cr5   O7    S    
C33   C37   A    
C55   I6    S    
C60   C61   A    
C95   O9    A    
C5    C9    S    
C52   O21   A    
C53   C62   A    
C40   O12   A    
C47   C48   A    
Cr2   O13   S    
C60   C70   A    
C23   C34   S    
C39   C95   S    
C64   C76   S    
Cr5   O26   S    
C25   C26   S    
C88   C92   S    
C88   C89   T    
Cr6   O9    S    
C32   C50   A    
C5    C14   S    
Cr2   O22   S    
C59   C69   A    
C23   H20   S    
C44   H6    S    
Cr4   O11   S    
C23   C64   S    
C51   C70   A    
C65   C66   A    
C76   H1    S    
Cr1   O17   S    
C55   C57   A    
C60   H11   S    
Cr1   O4    S    
C22   C24   S    
C83   C84   A    
C37   H4    S    
C42   C43   A    
C19   C29   S    
C67   H16   S    
C3    C5    S    
C41   C50   A    
C71   I9    S    
C54   C58   A    
C74   I10   S    
C46   C47   A    
C11   C17   S    
C39   C49   A    
C18   C22   S    
Cr1   O1    S    
C7    C16   S    
C75   H14   S    
C41   H7    S    
C80   C81   A    
C77   H13   S    
C10   C13   S    
C34   C67   S    
C62   C68   A    
Cr4   O5    S    
C25   C27   S    
Cr5   O8    S    
C57   I7    S    
Cr4   O24   S    
C32   C33   A    
C1    O13   A    
C19   C24   S    
C94   O7    A    
C34   C89   S    
C71   C72   A    
C2    C56   S    
Cr6   O2    S    
C29   H25   S    
C71   C90   A    
C40   C50   S    
C96   O5    A    
C63   I8    S    
C93   O3    A    
C80   C90   A    
C61   C62   A    
C24   C30   S    
C73   C86   A    
C52   C70   S    
C10   C11   S    
C14   H21   S    
Cr3   O20   S    
C4    O15   A    
Cr2   O14   S    
C94   O6    A    
C79   C96   S    
C16   O16   A    
C28   O19   A    
C26   C29   S    
C8    C10   S    
Cr1   O18   S    
C8    H23   S    
C58   H8    S    
C73   C77   A    
C16   O1    A    
C1    O4    A    
C28   C90   S    
C95   O8    A    
C65   F2    S    
C51   C53   A    
Cr3   O16   S    
C36   I4    S    
Cr6   O11   S    
C72   C82   A    
C6    C91   S    
C64   H2    S    
C34   C76   S    
C46   I5    S    
Cr3   O21   S    
C83   I2    S    
