data_mof_unit_62662.cif
_audit_creation_date              2012-12-11T16:54:06-0500
_audit_creation_method            fapswitch 2.2
_symmetry_space_group_name_H-M    P1
_symmetry_Int_Tables_number       1
_space_group_crystal_system       triclinic
_cell_length_a                    8.369706
_cell_length_b                    12.709358
_cell_length_c                    16.353785
_cell_angle_alpha                 95.330907
_cell_angle_beta                  92.364432
_cell_angle_gamma                 98.043965
_cell_volume                      1712.44537204

loop_
_atom_site_label
_atom_site_type_symbol
_atom_type_description
_atom_site_fract_x
_atom_site_fract_y
_atom_site_fract_z
_atom_type_partial_charge
Ba1   Ba    Ba6+2 0.162890 0.552530 0.460820 1.658053
Ba2   Ba    Ba6+2 0.647290 0.447460 0.539110 1.676725
C1    C     C_3   0.385487 0.826842 0.156177 -0.251526
C2    C     C_R   0.732743 0.817255 0.477541 -0.292132
C3    C     C_R   0.707669 0.996236 0.444854 -0.081436
C4    C     C_3   0.912620 0.833605 0.229844 0.356314
C5    C     C_R   0.641888 0.888587 0.445264 0.024303
C6    C     C_R   0.886495 0.851131 0.514401 0.050067
C7    C     C_R   0.951124 0.962836 0.520165 -0.053961
C8    C     C_R   0.860425 0.036807 0.483800 -0.053760
C9    C     C_R   0.922924 0.149079 0.490396 0.018512
C10   C     C_R   0.165005 0.111294 0.565241 -0.057436
C11   C     C_R   0.103770 0.002617 0.559862 -0.079086
C12   C     C_3   0.367768 0.789402 0.242445 0.319199
C13   C     C_R   0.628433 0.529183 0.265320 -0.306920
C14   C     C_R   0.473283 0.479983 0.240448 0.008500
C15   C     C_R   0.421903 0.467143 0.156998 -0.069583
C16   C     C_3   0.889720 0.905825 0.159456 -0.174825
C17   C     C_R   0.527983 0.504438 0.097373 0.254470
C18   C     C_R   0.687254 0.549159 0.123487 -0.168779
C19   C     C_R   0.737125 0.559896 0.207300 0.004855
C20   C     C_R   0.385333 0.512141 0.852387 -0.157679
C21   C     C_R   0.329823 0.515975 0.771322 -0.000365
C22   C     C_R   0.282729 0.463390 0.909213 0.282690
C23   C     C_3   0.546022 0.775052 0.653671 0.269404
C24   C     C_R   0.172349 0.472257 0.745900 -0.259165
C25   C     C_R   0.067005 0.423111 0.799276 -0.079971
C26   C     C_R   0.120911 0.418220 0.882257 -0.145192
C27   C     C_3   0.760450 0.306916 0.291598 0.298716
C28   C     C_3   0.735177 0.272425 0.199795 -0.362643
C29   C     C_3   0.042543 0.689404 0.708131 0.289334
C30   C     C_3   0.063284 0.720890 0.800516 -0.358976
C31   C     C_3   0.279947 0.226576 0.364103 0.277907
C32   C     C_3   0.302326 0.111348 0.346433 -0.370208
C33   C     C_2   0.318030 0.744759 0.086822 0.518502
C34   C     C_3   0.548620 0.894944 0.669558 -0.333849
C35   C     C_3   0.018511 0.895872 0.301577 -0.357705
C36   C     C_2   0.120452 0.295995 0.561312 0.606892
C37   C     C_2   0.007408 0.368111 0.940084 0.524137
C38   C     C_3   0.745006 0.802956 0.259757 -0.347519
C39   C     C_2   0.042031 0.947553 0.121108 0.536211
C40   C     C_3   0.867822 0.161131 0.732266 0.341323
C41   C     C_3   0.910466 0.072937 0.782296 -0.383826
C42   C     C_3   0.374521 0.210577 0.763541 0.339702
C43   C     C_3   0.392487 0.177263 0.849978 -0.349430
C44   C     C_R   0.069737 0.183285 0.535971 -0.305467
H1    H     H_    0.243097 0.757057 0.252139 0.125665
H2    H     H_    0.152247 0.230991 0.377189 0.030089
H3    H     H_    0.362049 0.259707 0.418022 0.114485
H4    H     H_    0.239525 0.080825 0.286452 0.119428
H5    H     H_    0.252702 0.064604 0.395857 0.106445
H6    H     H_    0.432366 0.105100 0.341521 0.137429
H7    H     H_    0.436939 0.722442 0.249252 0.015426
H8    H     H_    0.514260 0.852860 0.146024 0.035711
H9    H     H_    0.671101 0.758182 0.645232 0.021075
H10   H     H_    0.469342 0.747545 0.596498 0.057234
H11   H     H_    0.614915 0.924845 0.729021 0.123237
H12   H     H_    0.693285 0.336531 0.166881 0.063034
H13   H     H_    0.609099 0.936022 0.619831 0.072683
H14   H     H_    0.423043 0.913452 0.672042 0.139092
H15   H     H_    0.326194 0.898470 0.152528 0.093854
H16   H     H_    0.805662 0.859442 0.110206 0.103791
H17   H     H_    0.776964 0.126380 0.682072 0.075326
H18   H     H_    0.979897 0.194486 0.704270 -0.072050
H19   H     H_    0.949229 0.007859 0.741024 0.088865
H20   H     H_    0.010655 0.105480 0.828269 0.124486
H21   H     H_    0.804533 0.040204 0.815430 0.135185
H22   H     H_    0.247076 0.222679 0.751774 -0.075316
H23   H     H_    0.850510 0.254102 0.174569 0.148173
H24   H     H_    0.455508 0.287114 0.760617 0.090242
H25   H     H_    0.356573 0.239104 0.895238 0.095887
H26   H     H_    0.520078 0.167743 0.864676 0.150649
H27   H     H_    0.314077 0.100269 0.854783 0.123685
H28   H     H_    0.636791 0.047342 0.415024 0.107094
H29   H     H_    0.176919 0.950724 0.587548 0.109243
H30   H     H_    0.680977 0.734008 0.475309 0.063917
H31   H     H_    0.507176 0.549554 0.871119 0.113032
H32   H     H_    0.771077 0.577568 0.078952 0.112927
H33   H     H_    0.300814 0.427477 0.139194 0.154992
H34   H     H_    0.642810 0.200079 0.188860 0.124525
H35   H     H_    0.667725 0.538857 0.329824 0.071769
H36   H     H_    0.128665 0.481715 0.684386 0.062185
H37   H     H_    0.832603 0.976106 0.182342 0.018753
H38   H     H_    0.644554 0.325006 0.315510 0.009492
H39   H     H_    0.853782 0.378884 0.301435 0.052246
H40   H     H_    0.329334 0.764471 0.023983 0.024689
H41   H     H_    0.024320 0.847626 0.354381 0.145888
H42   H     H_    0.141250 0.915331 0.281482 0.121916
H43   H     H_    0.972099 0.971112 0.322266 0.063853
H44   H     H_    0.112169 0.323315 0.624554 -0.095735
H45   H     H_    0.158132 0.669038 0.685540 0.020067
H46   H     H_    0.878227 0.356354 0.925875 0.029254
H47   H     H_    0.672996 0.753530 0.208578 0.065784
H48   H     H_    0.744952 0.758301 0.314666 0.057930
H49   H     H_    0.692849 0.876741 0.276314 0.111485
H50   H     H_    0.128531 0.009365 0.154842 -0.027006
H51   H     H_    0.945517 0.619790 0.696134 0.060426
H52   H     H_    0.162828 0.788665 0.814170 0.138066
H53   H     H_    0.092469 0.652960 0.833305 0.063912
H54   H     H_    0.949641 0.745231 0.823668 0.135500
N1    N     N_2   0.479859 0.500359 0.011996 -0.236779
N2    N     N_2   0.334732 0.463749 0.993941 -0.154313
O1    O     O_2   0.158840 0.763480 0.539220 -0.467341
O2    O     O_2   0.732518 0.429561 0.790284 -0.491800
O3    O     O_3   0.801313 0.236688 0.783912 -0.600927
O4    O     O_3   0.888900 0.629060 0.541050 -0.487747
O5    O     O_3   0.432390 0.444990 0.403690 -0.464401
O6    O     O_2   0.627510 0.552390 0.696520 -0.455482
O7    O     O_3   0.484196 0.726771 0.721739 -0.641715
O8    O     O_2   0.499722 0.113308 0.554928 -0.486538
O9    O     O_3   0.417781 0.130693 0.706917 -0.601790
O10   O     O_3   0.391330 0.697380 0.393380 -0.490477
O11   O     O_2   0.307923 0.886098 0.447069 -0.488788
O12   O     O_3   0.315871 0.276777 0.293384 -0.639585
O13   O     O_3   0.001043 0.776461 0.670380 -0.645103
O14   O     O_3   0.416622 0.877979 0.300542 -0.647925
O15   O     O_2   0.182780 0.447540 0.303450 -0.441466
O16   O     O_3   0.969510 0.643060 0.352850 -0.497084
O17   O     O_2   0.062686 0.556047 0.209161 -0.422104
O18   O     O_2   0.250656 0.656785 0.099248 -0.542586
O19   O     O_2   0.194473 0.353626 0.516067 -0.543117
O20   O     O_2   0.055976 0.338212 0.004174 -0.570521
O21   O     O_2   0.066698 0.915559 0.050679 -0.583474
O22   O     O_3   0.985472 0.745165 0.197106 -0.582473
O23   O     O_2   0.651450 0.236450 0.460750 -0.485408
O24   O     O_3   0.921400 0.370930 0.458880 -0.460626
O25   O     O_3   0.418970 0.302610 0.606550 -0.459173
O26   O     O_3   0.811322 0.222671 0.329733 -0.642227
O27   O     O_3   0.377910 0.555000 0.596240 -0.446090
O28   O     O_3   0.840790 0.356930 0.647080 -0.484547
P1    P     P_3+3 0.983580 0.746680 0.563420 0.973524
P2    P     P_3+3 0.350740 0.415080 0.315970 1.025565
P3    P     P_3+3 0.939053 0.625196 0.244066 0.987707
P4    P     P_3+3 0.826720 0.253310 0.436510 0.982296
P5    P     P_3+3 0.861690 0.364858 0.755009 0.942386
P6    P     P_3+3 0.438476 0.836615 0.398913 0.923047
P7    P     P_3+3 0.454385 0.588022 0.698529 0.960766
P8    P     P_3+3 0.374916 0.163011 0.607435 0.951925

loop_
_geom_bond_atom_site_label_1
_geom_bond_atom_site_label_2
_ccdc_geom_bond_type
O23   P4    D    
N1    N2    D    
O2    P5    D    
C43   H25   S    
C35   H42   S    
O28   P5    S    
C23   H10   S    
C4    O22   S    
C38   H47   S    
C2    C6    A    
C34   H13   S    
C13   H35   S    
O13   P1    S    
C31   O12   S    
Ba2   P4    S    
C37   O20   D    
O22   P3    S    
C43   H27   S    
Ba1   O27   S    
Ba1   O10   S    
O6    P7    D    
C1    H8    S    
C39   H50   S    
C31   H3    S    
C13   C14   A    
Ba2   O5    S    
C15   H33   S    
Ba2   O27   S    
C40   H17   S    
O7    P7    S    
Ba1   Ba2   S    
C21   C24   A    
C19   P3    S    
C3    H28   S    
O15   P2    D    
C7    C11   A    
C15   C17   A    
C11   H29   S    
C6    C7    A    
O11   P6    D    
C42   H24   S    
O25   P8    S    
C7    C8    A    
Ba1   O1    S    
C27   H39   S    
C23   O7    S    
Ba1   O4    S    
O3    P5    S    
C28   H34   S    
Ba2   O25   S    
Ba1   P2    S    
C24   H36   S    
C43   H26   S    
C33   O18   D    
O10   P6    S    
C2    C5    A    
C29   O13   S    
C21   P7    S    
C16   H37   S    
C1    H15   S    
O4    P1    S    
C4    C16   S    
C32   H4    S    
C36   C44   S    
C22   C26   A    
O8    P8    D    
Ba1   O24   S    
C27   H38   S    
C10   C44   A    
C34   H11   S    
C16   C39   S    
C3    C5    A    
C16   H16   S    
C10   P8    S    
Ba1   O15   S    
C26   C37   S    
C34   H14   S    
Ba2   O4    S    
C30   H54   S    
Ba2   O23   S    
C27   C28   S    
O26   P4    S    
C22   N2    S    
C29   C30   S    
C1    C33   S    
C41   H19   S    
C6    P1    S    
C31   C32   S    
C32   H5    S    
C4    C35   S    
O17   P3    D    
C10   C11   A    
O16   P3    S    
C1    C12   S    
Ba1   O5    S    
Ba2   O24   S    
C29   H45   S    
C24   C25   A    
C20   C22   A    
C9    P4    S    
C40   C41   S    
C38   H49   S    
C40   H18   S    
C37   H46   S    
C28   H23   S    
C42   C43   S    
O12   P2    S    
C35   H41   S    
C23   H9    S    
C20   H31   S    
C38   H48   S    
O5    P2    S    
Ba1   P1    S    
C12   H1    S    
O14   P6    S    
C18   H32   S    
C36   H44   S    
C32   H6    S    
C30   H53   S    
C35   H43   S    
C25   P5    S    
C39   O21   D    
C17   C18   A    
C3    C8    A    
C17   N1    S    
C14   C15   A    
C13   C19   A    
C41   H20   S    
C12   O14   S    
C28   H12   S    
Ba2   O6    S    
Ba2   O28   S    
C30   H52   S    
C4    C38   S    
Ba1   O16   S    
C29   H51   S    
C14   P2    S    
C40   O3    S    
C2    H30   S    
C36   O19   D    
C42   H22   S    
C8    C9    A    
C23   C34   S    
C42   O9    S    
C5    P6    S    
C12   H7    S    
O27   P7    S    
C18   C19   A    
O24   P4    S    
C41   H21   S    
C27   O26   S    
C25   C26   A    
C31   H2    S    
C20   C21   A    
C9    C44   A    
O1    P1    D    
C33   H40   S    
O9    P8    S    
