data_mof_unit_26712.cif
_audit_creation_date              2012-12-11T14:33:51-0500
_audit_creation_method            fapswitch 2.2
_symmetry_space_group_name_H-M    P1
_symmetry_Int_Tables_number       1
_space_group_crystal_system       triclinic
_cell_length_a                    14.563893
_cell_length_b                    14.521788
_cell_length_c                    27.024816
_cell_angle_alpha                 90.171749
_cell_angle_beta                  89.93131
_cell_angle_gamma                 119.873333
_cell_volume                      4956.12081179

loop_
_atom_site_label
_atom_site_type_symbol
_atom_type_description
_atom_site_fract_x
_atom_site_fract_y
_atom_site_fract_z
_atom_type_partial_charge
C1    C     C_R   0.234923 0.786906 0.568157 0.545186
C2    C     C_R   0.213655 0.449025 0.568392 0.544338
C3    C     C_R   0.551442 0.764796 0.568328 0.540815
C4    C     C_3   0.680171 0.741845 0.790283 0.180015
C5    C     C_3   0.257990 0.933812 0.789874 0.182709
C6    C     C_3   0.063541 0.322762 0.790135 0.197975
C7    C     C_3   0.647954 0.722928 0.732593 0.221077
C8    C     C_3   0.273642 0.918870 0.731960 0.232598
C9    C     C_3   0.079597 0.357072 0.732705 0.221525
C10   C     C_1   0.686752 0.848062 0.865362 0.090867
C11   C     C_1   0.153932 0.836650 0.865637 0.077231
C12   C     C_1   0.160703 0.315560 0.865799 0.072739
C13   C     C_1   0.628932 0.815124 0.658217 0.078976
C14   C     C_1   0.179632 0.811267 0.657642 -0.013427
C15   C     C_1   0.190420 0.375033 0.658739 -0.022324
C16   C     C_1   0.600916 0.796974 0.615708 0.063796
C17   C     C_1   0.200621 0.803841 0.615212 0.046871
C18   C     C_1   0.197987 0.401281 0.616060 0.039795
C19   C     C_R   0.105988 0.221544 0.087275 0.560203
C20   C     C_R   0.780196 0.886402 0.087967 0.603548
C21   C     C_R   0.115048 0.893624 0.087189 0.596819
C22   C     C_R   0.106639 0.220885 0.952467 0.569036
C23   C     C_R   0.779311 0.886088 0.952387 0.584865
C24   C     C_R   0.113933 0.893182 0.952255 0.583470
C25   C     C_R   0.655250 0.907684 0.367252 -0.000265
C26   C     C_R   0.096690 0.745066 0.363726 -0.000877
C27   C     C_R   0.253821 0.345059 0.365945 0.005601
C28   C     C_R   0.683038 0.926568 0.316157 -0.029844
C29   C     C_R   0.080081 0.749987 0.311781 -0.025711
C30   C     C_R   0.240473 0.314359 0.315034 -0.025011
C31   C     C_R   0.709547 0.948511 0.211841 -0.029818
C32   C     C_R   0.062202 0.750144 0.206743 -0.027209
C33   C     C_R   0.235404 0.295082 0.210298 -0.031339
C34   C     C_R   0.234418 0.788085 0.431608 0.563932
C35   C     C_R   0.211210 0.444001 0.432469 0.554851
C36   C     C_R   0.555110 0.766344 0.432382 0.562790
C37   C     C_R   0.736445 0.037014 0.242290 -0.058216
C38   C     C_R   0.973949 0.685977 0.236258 -0.095569
C39   C     C_R   0.303644 0.274741 0.238913 -0.059132
C40   C     C_R   0.727264 0.028248 0.293600 0.066046
C41   C     C_R   0.979845 0.690169 0.287883 0.072106
C42   C     C_R   0.303115 0.278198 0.290426 0.074589
C43   C     C_R   0.728445 0.959197 0.160455 -0.026769
C44   C     C_R   0.052809 0.759075 0.155252 0.011063
C45   C     C_R   0.232050 0.284407 0.158335 -0.009618
C46   C     C_R   0.716459 0.870359 0.132950 0.014984
C47   C     C_R   0.137156 0.844102 0.129890 0.027791
C48   C     C_R   0.150224 0.287526 0.132093 -0.040657
C49   C     C_R   0.628339 0.728707 0.357687 0.259733
C50   C     C_R   0.276865 0.893751 0.354680 0.251215
C51   C     C_R   0.090442 0.352331 0.362167 0.255297
C52   C     C_R   0.626536 0.737702 0.306490 -0.016135
C53   C     C_R   0.268770 0.882110 0.303383 -0.020428
C54   C     C_R   0.088277 0.342608 0.310663 0.007373
C55   C     C_R   0.658420 0.837538 0.285432 -0.005373
C56   C     C_R   0.169953 0.813636 0.281632 -0.005563
C57   C     C_R   0.164757 0.326176 0.286654 -0.015396
C58   C     C_R   0.581432 0.646446 0.276720 -0.134128
C59   C     C_R   0.360322 0.930108 0.274064 -0.132918
C60   C     C_R   0.013749 0.354303 0.282915 -0.124866
C61   C     C_R   0.575726 0.654706 0.225748 0.045675
C62   C     C_R   0.353664 0.920529 0.222821 0.043850
C63   C     C_R   0.018048 0.358425 0.231642 0.067080
C64   C     C_R   0.632494 0.755742 0.203545 0.011043
C65   C     C_R   0.252825 0.874638 0.200248 0.007261
C66   C     C_R   0.091984 0.338502 0.206342 0.045090
C67   C     C_3   0.554941 0.834646 0.737552 0.431026
C68   C     C_3   0.156533 0.712877 0.736660 0.463902
C69   C     C_3   0.284186 0.450730 0.738907 0.431652
C70   C     C_R   0.667307 0.847530 0.233576 -0.003394
C71   C     C_R   0.161413 0.812786 0.229578 -0.002402
C72   C     C_R   0.163492 0.319084 0.234392 -0.021198
C73   C     C_R   0.661115 0.768215 0.153060 0.254569
C74   C     C_R   0.239140 0.894688 0.150408 0.256048
C75   C     C_R   0.092206 0.330246 0.154365 0.256152
C76   C     C_R   0.621080 0.805095 0.387040 0.024193
C77   C     C_R   0.198605 0.812945 0.384289 0.022053
C78   C     C_R   0.182453 0.372944 0.388168 0.011941
C79   C     C_3   0.755366 0.930218 0.726256 0.371079
C80   C     C_3   0.066798 0.824776 0.727416 0.390058
C81   C     C_3   0.180863 0.249714 0.727168 0.456487
C82   C     C_3   0.756771 0.946452 0.786118 0.234257
C83   C     C_3   0.053756 0.810150 0.787452 0.255682
C84   C     C_3   0.192552 0.247201 0.786347 0.248264
C85   C     C_1   0.721282 0.864656 0.906989 0.116547
C86   C     C_1   0.136572 0.855473 0.907142 0.114873
C87   C     C_1   0.143052 0.280190 0.907321 0.077772
C88   C     C_3   0.648699 0.826080 0.712389 0.078575
C89   C     C_3   0.168607 0.818221 0.711971 0.004547
C90   C     C_3   0.182322 0.356401 0.712909 -0.008972
C91   C     C_3   0.554898 0.818594 0.796292 0.246910
C92   C     C_3   0.178310 0.730825 0.795073 0.284829
C93   C     C_3   0.264405 0.449274 0.797436 0.302634
C94   C     C_3   0.668319 0.838550 0.810728 -0.081869
C95   C     C_3   0.161544 0.826751 0.810755 -0.104600
C96   C     C_3   0.171125 0.334766 0.811203 -0.086397
Cr1   Cr    Cr6+3 0.164410 0.584450 0.499910 1.096056
Cr2   Cr    Cr6+3 0.415550 0.579960 0.499910 1.113843
Cr3   Cr    Cr6+3 0.420040 0.835590 0.499910 1.117925
Cr4   Cr    Cr6+3 0.155170 0.075460 0.019960 1.137469
Cr5   Cr    Cr6+3 0.924540 0.079710 0.019960 1.122417
Cr6   Cr    Cr6+3 0.920290 0.844830 0.019960 1.141877
H1    H     H_    0.768837 0.115519 0.226775 0.215617
H2    H     H_    0.896962 0.637768 0.219678 0.191805
H3    H     H_    0.355380 0.250886 0.221645 0.214191
H4    H     H_    0.540934 0.568270 0.293427 0.187094
H5    H     H_    0.437989 0.968428 0.291195 0.183413
H6    H     H_    0.954997 0.367684 0.300764 0.159344
O1    O     O_R   0.137150 0.468200 0.553200 -0.479546
O2    O     O_R   0.531800 0.668950 0.553200 -0.488948
O3    O     O_R   0.331050 0.862850 0.553200 -0.478507
O4    O     O_R   0.179100 0.982980 0.967000 -0.504032
O5    O     O_R   0.017020 0.196120 0.967000 -0.507023
O6    O     O_R   0.803880 0.820900 0.967000 -0.501014
O7    O     O_R   0.173970 0.688730 0.549930 -0.503069
O8    O     O_R   0.311270 0.485240 0.549930 -0.499918
O9    O     O_R   0.514760 0.826030 0.549930 -0.494118
O10   O     O_R   0.140110 0.470540 0.446010 -0.459102
O11   O     O_R   0.529460 0.669570 0.446010 -0.426401
O12   O     O_R   0.330430 0.859890 0.446010 -0.422520
O13   O     O_R   0.176710 0.690910 0.450560 -0.495832
O14   O     O_R   0.309090 0.485800 0.450560 -0.482708
O15   O     O_R   0.514200 0.823290 0.450560 -0.490762
O16   O     O_3   0.333333 0.666667 0.499990 -0.346026
O17   O     O_R   0.176750 0.985260 0.074180 -0.446408
O18   O     O_R   0.014740 0.191490 0.074180 -0.467047
O19   O     O_R   0.808510 0.823250 0.074180 -0.447901
O20   O     O_R   0.146100 0.172630 0.068980 -0.483036
O21   O     O_R   0.827370 0.973470 0.068980 -0.499699
O22   O     O_R   0.026530 0.853900 0.068980 -0.498801
O23   O     O_3   0.000000 0.000000 0.020040 -0.293097
O24   O     O_R   0.148270 0.170520 0.969620 -0.473827
O25   O     O_R   0.829480 0.977750 0.969620 -0.471581
O26   O     O_R   0.022250 0.851730 0.969620 -0.467218
C97   C     C_2   0.522527 0.886388 0.827568 0.649215
O27   O     O_2   0.528289 0.967051 0.811279 -0.445032
O28   O     O_R   0.490815 0.858311 0.876775 -0.698799
H7    H     H_    0.473161 0.909693 0.893996 0.365700
C98   C     C_2   0.112772 0.632262 0.827407 0.694073
O29   O     O_2   0.028989 0.558643 0.813146 -0.440557
O30   O     O_R   0.147555 0.628358 0.875253 -0.667552
H8    H     H_    0.097719 0.560323 0.893286 0.376631
C99   C     C_2   0.361037 0.481167 0.830715 0.660075
O31   O     O_2   0.438128 0.477224 0.816227 -0.431436
O32   O     O_R   0.359190 0.513021 0.879490 -0.660977
H9    H     H_    0.426168 0.531014 0.898425 0.356819
O33   O     O_3   0.458555 0.756666 0.717287 -0.586509
H10   H     H_    0.403327 0.759099 0.737118 0.459492
O34   O     O_3   0.229215 0.686066 0.716199 -0.553030
H11   H     H_    0.206144 0.655441 0.682621 0.338931
O35   O     O_3   0.305960 0.550109 0.720055 -0.546027
H12   H     H_    0.336388 0.560081 0.686339 0.350615
O36   O     O_3   0.478840 0.712581 0.806735 -0.607930
H13   H     H_    0.481233 0.699812 0.842640 0.383910
O37   O     O_3   0.284633 0.758825 0.803201 -0.604625
H14   H     H_    0.301294 0.775002 0.838846 0.387709
O38   O     O_3   0.230750 0.522457 0.808651 -0.539622
H15   H     H_    0.290432 0.594954 0.803238 0.420290
C100  C     C_2   0.790973 0.764321 0.800999 0.629228
O39   O     O_2   0.855031 0.792725 0.767847 -0.396240
O40   O     O_R   0.823159 0.758862 0.849156 -0.593384
H16   H     H_    0.763196 0.716354 0.872976 0.331556
C101  C     C_2   0.239464 0.025276 0.801365 0.617289
O41   O     O_2   0.212919 0.063812 0.768669 -0.363967
O42   O     O_R   0.250487 0.065307 0.849505 -0.642404
H17   H     H_    0.289877 0.043258 0.873056 0.338253
C102  C     C_2   0.974637 0.211237 0.799606 0.631679
O43   O     O_2   0.936975 0.149566 0.765461 -0.410494
O44   O     O_R   0.937012 0.176349 0.847497 -0.607724
H18   H     H_    0.954043 0.235300 0.872100 0.332635
C103  C     C_2   0.764811 0.063089 0.135804 0.612724
O45   O     O_2   0.849496 0.140172 0.147224 -0.473636
O46   O     O_R   0.703781 0.070799 0.097922 -0.664237
H19   H     H_    0.737270 0.144830 0.083379 0.359698
C104  C     C_2   0.956898 0.682480 0.127419 0.577776
O47   O     O_2   0.966003 0.632739 0.092996 -0.474581
O48   O     O_R   0.858142 0.671172 0.138386 -0.707318
H20   H     H_    0.800503 0.616802 0.116154 0.356419
C105  C     C_2   0.313623 0.272444 0.130411 0.607931
O49   O     O_2   0.363266 0.335401 0.097472 -0.484307
O50   O     O_R   0.329319 0.186729 0.139342 -0.694589
H21   H     H_    0.386615 0.188692 0.117292 0.360037
C106  C     C_2   0.653123 0.989998 0.399081 0.633698
O51   O     O_2   0.703474 0.016652 0.437751 -0.449260
O52   O     O_R   0.591244 0.034653 0.385386 -0.659138
H22   H     H_    0.595643 0.089245 0.410172 0.359637
C107  C     C_2   0.011846 0.667422 0.396526 0.635787
O53   O     O_2   0.988298 0.698262 0.434058 -0.449795
O54   O     O_R   0.960934 0.559191 0.385192 -0.707478
H23   H     H_    0.904963 0.514353 0.410473 0.352244
C108  C     C_2   0.345740 0.356800 0.394723 0.637398
O55   O     O_2   0.331402 0.310722 0.434245 -0.448741
O56   O     O_R   0.448413 0.421218 0.376823 -0.673953
H24   H     H_    0.504166 0.422034 0.399534 0.361718
C109  C     C_2   0.775026 0.129358 0.321411 0.592730
O57   O     O_2   0.842266 0.147664 0.352862 -0.442958
O58   O     O_R   0.744439 0.204433 0.310862 -0.632358
H25   H     H_    0.779400 0.268611 0.333518 0.355300
C110  C     C_2   0.876758 0.640953 0.313818 0.592602
O59   O     O_2   0.858130 0.692564 0.343901 -0.484449
O60   O     O_R   0.799074 0.537127 0.301864 -0.657180
H26   H     H_    0.731855 0.511704 0.321850 0.348668
C111  C     C_2   0.359653 0.230911 0.316047 0.585090
O61   O     O_2   0.316138 0.167294 0.349546 -0.482418
O62   O     O_R   0.460941 0.255723 0.300316 -0.650213
H27   H     H_    0.491649 0.218828 0.320542 0.352201
O63   O     O_3   0.644962 0.683696 0.123487 -0.620522
H28   H     H_    0.659212 0.635359 0.143579 0.347129
O64   O     O_3   0.321383 0.969516 0.122129 -0.621430
H29   H     H_    0.367924 0.029730 0.143879 0.347871
O65   O     O_3   0.029822 0.356200 0.125820 -0.602607
H30   H     H_    0.061456 0.376421 0.092316 0.344052
C112  C     C_2   0.499573 0.559492 0.197742 0.588002
O66   O     O_2   0.491387 0.473218 0.206467 -0.502346
O67   O     O_R   0.436422 0.569265 0.161565 -0.626381
H31   H     H_    0.385613 0.499293 0.145348 0.362036
C113  C     C_2   0.451780 0.949768 0.194641 0.583860
O68   O     O_2   0.535443 0.027393 0.206813 -0.489916
O69   O     O_R   0.448181 0.887505 0.154309 -0.622881
H32   H     H_    0.519448 0.915315 0.137693 0.368802
C114  C     C_2   0.943128 0.384503 0.207107 0.671099
O70   O     O_2   0.847756 0.325888 0.212143 -0.444721
O71   O     O_R   0.981647 0.479036 0.180601 -0.634870
H33   H     H_    0.922355 0.488105 0.166344 0.362008
O72   O     O_3   0.567001 0.934292 0.725756 -0.639083
H34   H     H_    0.550992 0.934410 0.690032 0.365139
O73   O     O_3   0.053644 0.628392 0.727347 -0.646824
H35   H     H_    0.043445 0.615951 0.691117 0.338480
O74   O     O_3   0.371746 0.437344 0.729295 -0.639688
H36   H     H_    0.384783 0.441748 0.693075 0.341224
O75   O     O_3   0.626510 0.641736 0.379510 -0.619287
H37   H     H_    0.654231 0.609310 0.355920 0.348564
O76   O     O_3   0.364034 0.978505 0.376523 -0.612047
H38   H     H_    0.395239 0.039127 0.353321 0.351473
O77   O     O_3   0.005723 0.347485 0.387300 -0.603075
H39   H     H_    0.999003 0.408700 0.376227 0.347277
O78   O     O_3   0.840346 0.917595 0.709788 -0.646597
H40   H     H_    0.902367 0.988458 0.702935 0.397515
O79   O     O_3   0.079425 0.923409 0.712556 -0.619471
H41   H     H_    0.066226 0.921979 0.676483 0.369913
O80   O     O_3   0.084532 0.160949 0.712381 -0.584412
H42   H     H_    0.085242 0.151501 0.676046 0.349689
O81   O     O_3   0.761403 0.018073 0.700815 -0.589619
H43   H     H_    0.773935 0.011921 0.665146 0.334847
O82   O     O_3   0.975078 0.745110 0.703477 -0.568231
H44   H     H_    0.984833 0.751871 0.667100 0.312988
O83   O     O_3   0.263047 0.241953 0.703095 -0.574829
H45   H     H_    0.254487 0.242231 0.666721 0.308910
C115  C     C_2   0.738597 0.038425 0.802755 0.752382
O84   O     O_2   0.734872 0.054273 0.847063 -0.472192
O85   O     O_R   0.728235 0.106440 0.769510 -0.522896
H46   H     H_    0.718644 0.163363 0.786585 0.356792
C116  C     C_2   0.961880 0.700912 0.804732 0.749865
O86   O     O_2   0.948429 0.682121 0.849131 -0.476436
O87   O     O_R   0.890854 0.622895 0.772107 -0.524819
H47   H     H_    0.834572 0.557267 0.789647 0.356323
C117  C     C_2   0.301394 0.263998 0.804639 0.703362
O88   O     O_2   0.318102 0.266787 0.849165 -0.504016
O89   O     O_R   0.381745 0.275218 0.772481 -0.517267
H48   H     H_    0.446843 0.284276 0.790446 0.360055
O90   O     O_3   0.853971 0.970097 0.808725 -0.620941
H49   H     H_    0.909746 0.984552 0.784542 0.414258
O91   O     O_3   0.032168 0.884786 0.811098 -0.623616
H50   H     H_    0.027368 0.933901 0.787825 0.428358
O92   O     O_3   0.113531 0.145408 0.802493 -0.604826
H51   H     H_    0.122951 0.134926 0.837933 0.366164
O93   O     O_3   0.543041 0.639138 0.728517 -0.595270
H52   H     H_    0.542168 0.572842 0.737601 0.403298
O94   O     O_3   0.354446 0.893606 0.726642 -0.635774
H53   H     H_    0.422156 0.956887 0.735788 0.404881
O95   O     O_3   0.102114 0.462816 0.729322 -0.601437
H54   H     H_    0.037364 0.464626 0.738304 0.407988
C118  C     C_2   0.713597 0.686972 0.700921 0.670311
O96   O     O_2   0.715857 0.606866 0.712837 -0.466717
O97   O     O_R   0.768049 0.741476 0.658333 -0.633971
H55   H     H_    0.803527 0.705894 0.640619 0.357150
C119  C     C_2   0.312168 0.021669 0.700988 0.673623
O98   O     O_2   0.393441 0.102133 0.713383 -0.460889
O99   O     O_R   0.258782 0.025063 0.658677 -0.673683
H56   H     H_    0.295269 0.096985 0.641936 0.361687
C120  C     C_2   0.978998 0.293335 0.700333 0.658119
O100  O     O_2   0.897549 0.293222 0.711745 -0.462425
O101  O     O_R   0.978329 0.236867 0.658212 -0.684913
H57   H     H_    0.907443 0.201246 0.640611 0.363142
O102  O     O_3   0.613665 0.650015 0.817561 -0.675333
H58   H     H_    0.631539 0.594064 0.808970 0.356499
O103  O     O_3   0.350122 0.956697 0.816153 -0.681607
H59   H     H_    0.405912 0.030489 0.807929 0.363501
O104  O     O_3   0.037137 0.388498 0.817747 -0.633753
H60   H     H_    0.963455 0.369916 0.809051 0.350782

loop_
_geom_bond_atom_site_label_1
_geom_bond_atom_site_label_2
_ccdc_geom_bond_type
C15   C18   T    
C111  O61   D    
C2    O1    A    
O42   H17   S    
Cr2   O2    S    
C2    C18   S    
Cr5   O5    S    
O60   H26   S    
C63   C114  S    
C82   C115  S    
C83   O91   S    
C101  O41   D    
C24   O4    A    
C44   C104  S    
C20   O21   A    
C103  O45   D    
C27   C78   A    
C81   C84   S    
C6    C9    S    
Cr6   O26   S    
O32   H9    S    
C53   C59   A    
Cr4   O23   S    
Cr2   O11   S    
C102  O44   S    
C54   C60   A    
O50   H21   S    
C25   C28   A    
Cr2   O16   S    
C103  O46   S    
C75   O65   S    
C115  O84   D    
O38   H15   S    
C31   C43   A    
C83   C116  S    
C60   C63   A    
C82   C94   S    
C5    C101  S    
C80   O79   S    
Cr3   O15   S    
C101  O42   S    
O79   H41   S    
C91   O36   S    
C37   C40   A    
C69   C93   S    
C32   C38   A    
C80   C83   S    
C34   C77   S    
C116  O86   D    
C53   C56   A    
C4    C100  S    
C10   C94   S    
C11   C86   T    
C24   O26   A    
C99   O31   D    
C30   C57   A    
C25   C106  S    
C19   O20   A    
C80   C89   S    
C33   C45   A    
C104  O48   S    
C51   O77   S    
O80   H42   S    
C84   C96   S    
C67   O72   S    
C81   O80   S    
Cr1   O10   S    
C10   C85   T    
C36   O11   A    
C81   O83   S    
C39   C42   A    
C69   C90   S    
C38   H2    S    
C68   O34   S    
C3    O9    A    
C33   C72   A    
C68   C92   S    
Cr3   O12   S    
C2    O8    A    
C22   O5    A    
C66   C72   A    
O52   H22   S    
O33   H10   S    
C65   C71   A    
Cr5   O18   S    
Cr1   O13   S    
O77   H39   S    
C100  O40   S    
C26   C29   A    
C64   C70   A    
Cr1   O7    S    
C51   C54   A    
C36   C76   S    
O76   H38   S    
C60   H6    S    
C44   C47   A    
C41   C110  S    
O101  H57   S    
C22   O24   A    
C56   C71   A    
C58   C61   A    
C97   O27   D    
O95   H54   S    
C9    O95   S    
C63   C66   A    
C83   C95   S    
C110  O59   D    
C97   O28   S    
C119  O98   D    
C105  O50   S    
C27   C30   A    
C14   C17   T    
C42   C111  S    
O54   H23   S    
O30   H8    S    
C27   C108  S    
C4    C7    S    
Cr3   O16   S    
C79   C88   S    
C5    C95   S    
C28   C55   A    
C118  O96   D    
C32   C71   A    
C112  O67   S    
C34   O12   A    
C93   O38   S    
C115  O85   S    
C26   C77   A    
C23   O25   A    
C74   O64   S    
O63   H28   S    
C61   C112  S    
C62   C113  S    
C84   C117  S    
O85   H46   S    
C36   O15   A    
Cr6   O23   S    
C38   C41   A    
O64   H29   S    
Cr6   O19   S    
C102  O43   D    
C37   H1    S    
C21   C47   S    
C43   C103  S    
C19   C48   S    
C109  O57   D    
C45   C105  S    
C8    O94   S    
C113  O68   D    
O62   H27   S    
C120  O100  D    
C92   C95   S    
C59   H5    S    
O71   H33   S    
Cr4   O17   S    
C39   H3    S    
C117  O89   S    
C69   O35   S    
C49   O75   S    
C50   O76   S    
C7    O93   S    
O67   H31   S    
C108  O56   S    
C14   C89   S    
O102  H58   S    
Cr6   O6    S    
C69   O74   S    
O87   H47   S    
Cr3   O9    S    
C114  O70   D    
C111  O62   S    
C26   C107  S    
Cr2   O8    S    
O73   H35   S    
C112  O66   D    
O83   H45   S    
C49   C52   A    
Cr3   O3    S    
O99   H56   S    
C82   O90   S    
C67   C91   S    
O72   H34   S    
C67   C88   S    
C49   C76   A    
C9    C120  S    
O44   H18   S    
C33   C39   A    
C22   C87   S    
C48   C75   A    
C52   C58   A    
C20   O19   A    
C4    C94   S    
C81   C90   S    
Cr5   O23   S    
C91   C94   S    
O75   H37   S    
O97   H55   S    
C64   C73   A    
Cr4   O4    S    
C34   O13   A    
C79   O81   S    
C119  O99   S    
O103  H59   S    
C67   O33   S    
O69   H32   S    
C5    C8    S    
C113  O69   S    
C79   O78   S    
C5    O103  S    
O89   H48   S    
C50   C77   A    
C117  O88   D    
C8    C119  S    
C116  O87   S    
O92   H51   S    
C45   C48   A    
C11   C95   S    
C108  O55   D    
C99   O32   S    
C6    C102  S    
C59   C62   A    
C35   C78   S    
C62   C65   A    
C29   C41   A    
Cr4   O20   S    
C68   O73   S    
O48   H20   S    
C35   O14   A    
C30   C42   A    
Cr6   O22   S    
C47   C74   A    
O82   H44   S    
C7    C118  S    
C93   C99   S    
C9    C90   S    
C7    C88   S    
C79   C82   S    
C23   O6    A    
C98   O29   D    
Cr4   O24   S    
C29   C56   A    
Cr5   O25   S    
C93   C96   S    
C6    O104  S    
C1    O7    A    
O28   H7    S    
C80   O82   S    
C19   O18   A    
C6    C96   S    
C4    O102  S    
O74   H36   S    
O93   H52   S    
C120  O101  S    
C31   C70   A    
O91   H50   S    
Cr1   O1    S    
C100  O39   D    
C51   C78   A    
C107  O53   D    
C12   C87   T    
C104  O47   D    
O40   H16   S    
O34   H11   S    
C1    O3    A    
C61   C64   A    
C52   C55   A    
C98   O30   S    
C15   C90   S    
C106  O51   D    
O90   H49   S    
C24   C86   S    
C66   C75   A    
C13   C88   S    
O65   H30   S    
C118  O97   S    
C84   O92   S    
C92   O37   S    
Cr1   O16   S    
C57   C72   A    
C73   O63   S    
O58   H25   S    
C43   C46   A    
O78   H40   S    
C21   O22   A    
C107  O54   S    
C55   C70   A    
C65   C74   A    
O46   H19   S    
C105  O49   D    
C31   C37   A    
C25   C76   A    
C91   C97   S    
C1    C17   S    
C32   C44   A    
Cr2   O14   S    
C114  O71   S    
O56   H24   S    
C23   C85   S    
C13   C16   T    
C58   H4    S    
O37   H14   S    
C110  O60   S    
C28   C40   A    
O104  H60   S    
C12   C96   S    
C35   O10   A    
C106  O52   S    
C8    C89   S    
C3    O2    A    
C68   C89   S    
O36   H13   S    
O94   H53   S    
C92   C98   S    
C21   O17   A    
O35   H12   S    
C54   C57   A    
C46   C73   A    
C20   C46   S    
C3    C16   S    
O81   H43   S    
C50   C53   A    
C109  O58   S    
C40   C109  S    
Cr5   O21   S    
