data_mof_unit_22330.cif
_audit_creation_date              2012-10-26T19:13:11-0400
_audit_creation_method            fapswitch 2.2
_symmetry_space_group_name_H-M    P1
_symmetry_Int_Tables_number       1
_space_group_crystal_system       triclinic
_cell_length_a                    13.476098
_cell_length_b                    13.960684
_cell_length_c                    15.101636
_cell_angle_alpha                 89.401059
_cell_angle_beta                  90.997511
_cell_angle_gamma                 72.348366
_cell_volume                      2706.6073493

loop_
_atom_site_label
_atom_site_type_symbol
_atom_type_description
_atom_site_fract_x
_atom_site_fract_y
_atom_site_fract_z
_atom_type_partial_charge
C1    C     C_R   0.494390 0.501410 0.669869 0.516036
C2    C     C_R   0.815354 0.416740 0.496662 -0.009517
C3    C     C_R   0.517024 0.411370 0.906294 -0.095395
C4    C     C_R   0.700205 0.446603 0.496576 0.519262
C5    C     C_R   0.519582 0.412582 0.814442 -0.132103
C6    C     C_R   0.483984 0.503872 0.766532 -0.025433
C7    C     C_R   0.441243 0.595188 0.812408 -0.003230
C8    C     C_R   0.443432 0.592733 0.905028 -0.053910
C9    C     C_R   0.481068 0.501563 0.951423 0.036655
C10   C     C_R   0.561155 0.535964 0.090711 0.247662
C11   C     C_R   0.566774 0.536492 0.183739 -0.057959
C12   C     C_R   0.977212 0.463259 0.500893 0.060732
C13   C     C_R   0.496990 0.500460 0.233061 -0.119384
C14   C     C_R   0.421359 0.465490 0.189646 0.273099
C15   C     C_R   0.415186 0.466205 0.097129 0.258369
C16   C     C_R   0.500529 0.499965 0.330086 0.545624
C17   C     C_R   0.485062 0.501678 0.048006 -0.051409
C18   C     C_R   0.443375 0.907214 0.428649 0.014359
C19   C     C_R   0.442634 0.804990 0.434556 0.387545
C20   C     C_R   0.555453 0.778067 0.561310 0.080245
C21   C     C_R   0.535176 0.883658 0.570277 -0.024175
C22   C     C_R   0.486604 0.949402 0.498975 0.020407
C23   C     C_R   0.870247 0.486707 0.476197 0.027664
C24   C     C_R   0.579998 0.079799 0.521138 -0.094576
C25   C     C_R   0.581984 0.179528 0.530927 0.149328
C26   C     C_R   0.411287 0.239841 0.470480 0.062196
C27   C     C_R   0.400328 0.141437 0.472540 0.300686
C28   C     C_R   0.300440 0.554037 0.500669 0.514850
C29   C     C_R   0.488095 0.058617 0.496263 0.095541
C30   C     C_R   0.034433 0.691325 0.413413 -0.129844
C31   C     C_R   0.187218 0.586535 0.491355 -0.037299
C32   C     C_R   0.871605 0.319425 0.525695 -0.128574
C33   C     C_R   0.978777 0.292478 0.538871 -0.115229
C34   C     C_R   0.028795 0.537946 0.490614 0.058715
C35   C     C_R   0.031003 0.363525 0.527865 -0.072874
C36   C     C_2   0.388676 0.692472 0.766373 0.237212
C37   C     C_3   0.719255 0.489165 0.025638 -0.056820
C38   C     C_2   0.650647 0.566687 0.229253 0.244747
C39   C     C_3   0.267087 0.503303 0.260677 -0.089865
C40   C     C_3   0.261527 0.503543 0.016998 -0.091432
C41   C     C_2   0.399472 0.968559 0.348935 0.248736
C42   C     C_3   0.407709 0.767807 0.289436 -0.086873
C43   C     C_2   0.643330 0.708828 0.613186 0.244866
C44   C     C_2   0.555598 0.923342 0.658074 0.267289
C45   C     C_R   0.979835 0.624885 0.437888 0.037685
C46   C     C_2   0.667674 0.196018 0.584697 0.262390
C47   C     C_3   0.243663 0.184783 0.391713 -0.129113
C48   C     C_2   0.164373 0.476280 0.615004 0.213632
C49   C     C_R   0.877514 0.643776 0.408250 -0.102189
C50   C     C_R   0.822933 0.577375 0.428698 -0.094599
C51   C     C_R   0.128553 0.528697 0.528248 -0.011990
C52   C     C_R   0.138960 0.669545 0.436466 -0.146684
Cu1   Cu    Cu3+1 0.500000 0.403570 0.500010 0.957382
Cu2   Cu    Cu3+1 0.500000 0.596430 0.499990 0.977336
H1    H     H_    0.182784 0.716205 0.409591 0.167876
H2    H     H_    0.021479 0.216489 0.559729 0.161175
H3    H     H_    0.745214 0.596987 0.401443 0.151599
H4    H     H_    0.546104 0.340593 0.942403 0.146578
H5    H     H_    0.355147 0.694398 0.700377 0.143963
H6    H     H_    0.700794 0.428990 0.987280 0.103701
H7    H     H_    0.760557 0.457294 0.088708 0.125593
H8    H     H_    0.773462 0.517140 0.985873 0.164852
H9    H     H_    0.683050 0.530178 0.291221 0.079827
H10   H     H_    0.287024 0.564918 0.295813 0.103537
H11   H     H_    0.220601 0.472168 0.306361 0.135772
H12   H     H_    0.551483 0.341986 0.780907 0.145005
H13   H     H_    0.217339 0.534019 0.201368 0.120553
H14   H     H_    0.188833 0.482541 0.022936 0.158494
H15   H     H_    0.247732 0.578244 0.048599 0.079617
H16   H     H_    0.275188 0.510356 0.945298 0.146605
H17   H     H_    0.320394 0.976413 0.326758 0.124704
H18   H     H_    0.491661 0.760692 0.281028 0.160601
H19   H     H_    0.357638 0.833692 0.251777 0.110343
H20   H     H_    0.391952 0.702750 0.257518 0.134283
H21   H     H_    0.641944 0.636770 0.637536 0.178845
H22   H     H_    0.609250 0.875757 0.706213 0.175315
H23   H     H_    0.413053 0.661473 0.941704 0.170052
H24   H     H_    0.656750 0.265575 0.619480 0.149611
H25   H     H_    0.291116 0.188366 0.332815 0.165884
H26   H     H_    0.202343 0.261512 0.414292 0.096761
H27   H     H_    0.183275 0.150254 0.370400 0.146355
H28   H     H_    0.246114 0.452154 0.634436 0.132410
H29   H     H_    0.839243 0.710360 0.368557 0.138940
H30   H     H_    0.647973 0.018124 0.540598 0.167425
H31   H     H_    0.346222 0.302209 0.448926 0.138755
H32   H     H_    0.998028 0.756753 0.371818 0.128198
H33   H     H_    0.832681 0.264037 0.539313 0.178142
H34   H     H_    0.114409 0.338176 0.538035 0.136458
N1    N     N_R   0.500000 0.741310 0.499980 -0.248067
N2    N     N_R   0.500060 0.258650 0.499980 -0.284785
O1    O     O_R   0.499990 0.418570 0.628550 -0.517817
O2    O     O_3   0.629111 0.570345 0.040781 -0.497423
O3    O     O_2   0.684235 0.631494 0.198156 -0.463980
O4    O     O_3   0.356517 0.425103 0.237597 -0.509610
O5    O     O_3   0.344362 0.425963 0.056187 -0.518662
O6    O     O_2   0.451839 0.010157 0.307090 -0.501432
O7    O     O_3   0.377853 0.770229 0.379173 -0.555527
O8    O     O_2   0.723193 0.731061 0.626567 -0.518520
O9    O     O_2   0.507262 0.008265 0.680384 -0.477993
O10   O     O_2   0.750565 0.129662 0.594670 -0.530421
O11   O     O_3   0.303724 0.125428 0.461605 -0.573254
O12   O     O_R   0.499990 0.581440 0.628540 -0.546011
O13   O     O_2   0.101719 0.465125 0.668541 -0.475859
O14   O     O_R   0.650980 0.378820 0.499990 -0.523381
O15   O     O_R   0.650980 0.541690 0.499970 -0.527821
O16   O     O_R   0.500010 0.418560 0.371460 -0.441138
O17   O     O_R   0.500010 0.581430 0.371450 -0.488583
O18   O     O_R   0.349020 0.458310 0.500030 -0.536818
O19   O     O_R   0.349020 0.621180 0.500010 -0.452151
O20   O     O_2   0.380017 0.772253 0.802727 -0.478353

loop_
_geom_bond_atom_site_label_1
_geom_bond_atom_site_label_2
_ccdc_geom_bond_type
C47   O11   S    
C22   C29   S    
C27   C29   A    
C7    C36   S    
C30   C45   A    
C43   O8    D    
C47   H25   S    
C31   C52   A    
C36   H5    S    
C37   H8    S    
C19   O7    S    
C7    C8    A    
Cu1   Cu2   S    
C39   H10   S    
C12   C23   A    
C25   N2    A    
C40   H16   S    
Cu2   O17   S    
C3    C9    A    
C15   O5    S    
C5    C6    A    
C44   O9    D    
C41   O6    D    
Cu1   O14   S    
C2    C32   A    
C18   C19   A    
C44   H22   S    
C24   C29   A    
C46   O10   D    
C16   O17   A    
Cu1   O16   S    
C48   C51   S    
C8    C9    A    
Cu1   O1    S    
C30   H32   S    
C37   O2    S    
C52   H1    S    
C16   O16   A    
C41   H17   S    
C33   H2    S    
C10   O2    S    
C1    O1    A    
C21   C22   A    
C39   H11   S    
C47   H26   S    
C43   H21   S    
C42   H20   S    
C40   H15   S    
C1    C6    S    
C24   C25   A    
Cu2   N1    S    
C42   O7    S    
C46   H24   S    
C23   C50   A    
C48   O13   D    
C27   O11   S    
C34   C51   A    
Cu2   O19   S    
C11   C38   S    
C2    C4    S    
C39   O4    S    
C19   N1    A    
C21   C44   S    
C35   H34   S    
C45   C49   A    
C42   H18   S    
C26   C27   A    
C34   C45   A    
C12   C35   A    
C9    C17   S    
C36   O20   D    
C8    H23   S    
C18   C41   S    
C40   O5    S    
C12   C34   A    
C2    C23   A    
C20   C43   S    
C38   H9    S    
C4    O15   A    
C15   C17   A    
C30   C52   A    
C42   H19   S    
Cu2   O15   S    
C18   C22   A    
C50   H3    S    
C39   H13   S    
Cu2   O12   S    
C28   C31   S    
C31   C51   A    
C5    H12   S    
C3    C5    A    
C37   H7    S    
C6    C7    A    
C28   O19   A    
C26   N2    A    
C20   N1    A    
C32   C33   A    
C49   H29   S    
C24   H30   S    
C11   C13   A    
Cu1   O18   S    
C28   O18   A    
C26   H31   S    
C4    O14   A    
C38   O3    D    
C33   C35   A    
C48   H28   S    
C47   H27   S    
C1    O12   A    
C37   H6    S    
C10   C11   A    
C3    H4    S    
C32   H33   S    
C20   C21   A    
C49   C50   A    
C40   H14   S    
C13   C16   S    
Cu1   N2    S    
C14   C15   A    
C10   C17   A    
C13   C14   A    
C25   C46   S    
C14   O4    S    
