data_mof_unit_35055.cif
_audit_creation_date              2013-03-05T15:41:44-0500
_audit_creation_method            fapswitch 2.2
_symmetry_space_group_name_H-M    P1
_symmetry_Int_Tables_number       1
_space_group_crystal_system       triclinic
_cell_length_a                    6.960606
_cell_length_b                    13.908096
_cell_length_c                    20.316378
_cell_angle_alpha                 101.99027
_cell_angle_beta                  89.785586
_cell_angle_gamma                 90.770233
_cell_volume                      1923.7189882

loop_
_atom_site_label
_atom_site_type_symbol
_atom_site_description
_atom_site_fract_x
_atom_site_fract_y
_atom_site_fract_z
_atom_type_partial_charge
O1    O     O_R   0.506860 0.599390 0.449240 -0.560233
O2    O     O_R   0.180220 0.594600 0.586780 -0.596909
O3    O     O_R   0.004500 0.400610 0.550760 -0.557509
C1    C     C_R   0.348479 0.610668 0.615024 0.761347
O4    O     O_R   0.177490 0.611290 0.451970 -0.583575
O5    O     O_R   0.001750 0.417420 0.414990 -0.569801
C2    C     C_R   0.346079 0.631061 0.430806 0.842154
O6    O     O_R   0.509610 0.582580 0.585010 -0.532924
O7    O     O_3   0.337420 0.436370 0.488020 -0.267370
V1    V     V_3+5 0.064680 0.511800 0.502220 1.152261
O8    O     O_R   0.671710 0.405400 0.413220 -0.549662
C3    C     C_R   0.838951 0.389954 0.384939 0.859682
O9    O     O_R   0.674440 0.388710 0.548030 -0.531359
C4    C     C_R   0.841767 0.366866 0.568148 0.904507
V2    V     V_3+5 0.564010 0.488200 0.497780 1.203328
O10   O     O_3   0.841140 0.563630 0.511980 -0.282717
C5    C     C_R   0.804610 0.116795 0.610894 0.352867
C6    C     C_R   0.846870 0.288561 0.606386 -0.195165
C7    C     C_R   0.897468 0.315178 0.929889 0.332137
C8    C     C_R   0.928380 0.386757 0.891797 -0.062945
C9    C     C_R   0.927731 0.362626 0.821837 -0.129259
C10   C     C_R   0.893334 0.265087 0.786434 0.082498
C11   C     C_R   0.867521 0.191389 0.824804 -0.092337
C12   C     C_R   0.880013 0.239038 0.714465 -0.014487
C13   C     C_R   0.842519 0.138895 0.681622 -0.113295
C14   C     C_R   0.835478 0.065925 0.721362 0.384734
C15   C     C_R   0.844540 0.093348 0.791234 -0.132461
C16   C     C_R   0.896505 0.310591 0.674199 -0.167236
C17   C     C_R   0.786690 0.194027 0.576330 0.257519
C18   C     C_R   0.869497 0.216306 0.896414 -0.157513
H1    H     H_    0.936003 0.385982 0.694483 0.067051
H2    H     H_    0.954807 0.422860 0.797302 0.070517
H3    H     H_    0.952217 0.462795 0.916527 0.152265
H4    H     H_    0.833949 0.035369 0.819363 0.102501
C19   C     C_2   0.992921 0.312244 0.275487 -0.109951
C20   C     C_2   0.836206 0.332931 0.314793 -0.144026
H5    H     H_    0.130218 0.344468 0.294053 0.092185
H6    H     H_    0.695008 0.311572 0.294404 0.138084
C21   C     C_2   0.991234 0.248968 0.206022 -0.121657
C22   C     C_2   0.859824 0.177432 0.181826 0.230130
H7    H     H_    0.110798 0.260100 0.173790 0.115496
C23   C     C_2   0.206649 0.782136 0.785310 -0.043953
C24   C     C_2   0.364272 0.823997 0.817881 -0.163797
H8    H     H_    0.067230 0.796449 0.809271 0.117965
H9    H     H_    0.503010 0.815433 0.793798 0.178702
C25   C     C_2   0.208834 0.719957 0.715710 -0.139235
C26   C     C_2   0.361927 0.669594 0.684769 0.255491
H10   H     H_    0.072162 0.713309 0.689436 0.124768
C27   C     C_R   0.351462 0.877451 0.384461 0.330591
C28   C     C_R   0.354182 0.706737 0.391436 -0.165453
C29   C     C_R   0.397974 0.685843 0.068068 0.331526
C30   C     C_R   0.414336 0.611732 0.104672 -0.043986
C31   C     C_R   0.389490 0.631504 0.174069 -0.107181
C32   C     C_R   0.342802 0.726643 0.209764 0.075412
C33   C     C_R   0.319937 0.802385 0.172940 -0.082751
C34   C     C_R   0.330651 0.750303 0.281392 -0.019790
C35   C     C_R   0.311972 0.849755 0.314748 -0.095813
C36   C     C_R   0.255244 0.919719 0.278204 0.439757
C37   C     C_R   0.263162 0.896365 0.207663 -0.104045
C38   C     C_R   0.337601 0.678962 0.321484 -0.171162
C39   C     C_R   0.373910 0.805908 0.422912 0.297382
C40   C     C_R   0.353591 0.782364 0.102283 -0.166319
H11   H     H_    0.327446 0.601314 0.299871 0.075571
H12   H     H_    0.413266 0.571068 0.198631 0.092302
H13   H     H_    0.448945 0.537562 0.079248 0.157834
H14   H     H_    0.221645 0.951681 0.180330 0.076952
O11   O     O_R   0.203230 0.917310 0.915020 -0.560849
O12   O     O_R   0.535500 0.888690 0.048040 -0.554604
O13   O     O_R   0.711080 0.082610 0.085000 -0.512471
C41   C     C_R   0.365667 0.863179 0.065517 0.905735
O14   O     O_R   0.532630 0.905370 0.913230 -0.563891
O15   O     O_R   0.708190 0.099410 0.949230 -0.554092
C42   C     C_R   0.364379 0.885935 0.886227 0.875104
O16   O     O_R   0.206120 0.900510 0.050790 -0.556529
O17   O     O_3   0.375360 0.063570 0.011990 -0.265361
V3    V     V_3+5 0.648170 0.988200 0.997780 1.234062
O18   O     O_R   0.038240 0.111390 0.951940 -0.569158
C43   C     C_R   0.870728 0.138270 0.935747 0.886064
O19   O     O_R   0.041120 0.094710 0.086750 -0.585023
C44   C     C_R   0.872392 0.116827 0.112860 0.838802
V4    V     V_3+5 0.148810 0.011930 0.002180 1.211053
O20   O     O_3   0.871750 0.936430 0.988010 -0.282200
N1    N     N_R   0.696608 0.177151 0.511644 0.121193
O21   O     O_R   0.798538 0.184024 0.458990 -0.366671
O22   O     O_R   0.511903 0.188452 0.509521 -0.293562
N2    N     N_R   0.708629 0.152854 0.223334 0.044269
O23   O     O_R   0.531087 0.156447 0.204374 -0.426378
O24   O     O_R   0.749355 0.114441 0.274702 -0.356046
O25   O     O_3   0.536766 0.670984 0.717195 -0.621560
C45   C     C_3   0.538879 0.593074 0.751998 0.244765
H15   H     H_    0.546430 0.521113 0.715812 0.024318
H16   H     H_    0.409432 0.593460 0.784603 0.067137
C46   C     C_3   0.714848 0.604653 0.797230 -0.250170
H17   H     H_    0.715561 0.678066 0.831605 0.151730
H18   H     H_    0.711445 0.547512 0.828050 0.101794
H19   H     H_    0.847859 0.596923 0.766294 0.088222
O26   O     O_3   0.458164 0.834077 0.485749 -0.635939
C47   C     C_3   0.336325 0.818193 0.537927 0.278855
H20   H     H_    0.360705 0.744254 0.546960 0.045388
H21   H     H_    0.181937 0.825713 0.527721 0.029302
C48   C     C_3   0.393625 0.889897 0.601818 -0.195851
H22   H     H_    0.366391 0.966740 0.597438 0.162157
H23   H     H_    0.314187 0.873351 0.645599 0.102610
H24   H     H_    0.548920 0.881566 0.609681 0.211103
O27   O     O_3   0.160343 0.002630 0.312172 -0.619812
C49   C     C_3   0.248230 0.089010 0.300077 0.299750
H25   H     H_    0.188663 0.106919 0.253605 0.065837
H26   H     H_    0.406039 0.081859 0.295253 0.171785
C50   C     C_3   0.208625 0.173158 0.359295 -0.167321
H27   H     H_    0.256080 0.154814 0.407050 0.214621
H28   H     H_    0.288308 0.240149 0.352748 0.066292
H29   H     H_    0.052589 0.187727 0.363078 0.163177
N3    N     N_R   0.396131 0.977367 0.414900 0.108415
O28   O     O_R   0.539917 0.021079 0.391770 -0.316871
O29   O     O_R   0.326135 0.015516 0.473748 -0.361021
N4    N     N_R   0.818122 0.962799 0.693168 0.092919
O30   O     O_R   0.958874 0.918659 0.657611 -0.417495
O31   O     O_R   0.699816 0.909767 0.720887 -0.414119
N5    N     N_R   0.426952 0.661813 0.996287 0.080149
O32   O     O_R   0.540580 0.590591 0.969682 -0.368293
O33   O     O_R   0.322829 0.702235 0.956667 -0.402760
O34   O     O_3   0.768780 0.021612 0.576098 -0.604332
C51   C     C_3   0.921163 0.992632 0.529977 0.337415
H30   H     H_    0.053030 0.981860 0.557603 0.079930
H31   H     H_    0.956741 0.047325 0.498980 0.110209
C52   C     C_3   0.868294 0.897708 0.481304 -0.179003
H32   H     H_    0.747767 0.910842 0.449288 0.198894
H33   H     H_    0.990372 0.872804 0.447209 0.017760
H34   H     H_    0.829612 0.839486 0.509208 0.150965
N6    N     N_R   0.898403 0.343894 0.002272 0.080428
O35   O     O_R   0.995526 0.421309 0.032005 -0.352010
O36   O     O_R   0.786040 0.300008 0.038427 -0.388461

loop_
_geom_bond_atom_site_label_1
_geom_bond_atom_site_label_2
_geom_bond_distance
_ccdc_geom_bond_type
C24   C42   1.474153 S    
C27   N3    1.429325 S    
C46   H17   1.110808 S    
C33   C37   1.411022 A    
C5    C17   1.407179 A    
C4    C6    1.464113 S    
N6    O36   1.301129 A    
C7    C8    1.396207 A    
O15   V3    2.037942 S    
O26   C47   1.406161 S    
C45   H15   1.113699 S    
C51   H30   1.105631 S    
C21   H7    1.086274 S    
O18   C43   1.293518 A    
N4    O30   1.298144 A    
C14   C15   1.392705 A    
C52   H32   1.103554 S    
C38   H11   1.079462 S    
C19   H5    1.085075 S    
C17   N1    1.431564 S    
C50   H28   1.109261 S    
C37   H14   1.080949 S    
O5    C3    1.303608 A    
O14   V3    2.021830 S    
C31   H12   1.077752 S    
N2    O24   1.301084 A    
C51   H31   1.108767 S    
C49   H25   1.108512 S    
V2    O10   2.174588 S    
C33   C40   1.423451 A    
C27   C35   1.415358 A    
C34   C35   1.415659 A    
C40   C41   1.474505 S    
O13   V3    2.019768 S    
C23   C25   1.496548 S    
C22   N2    1.427942 S    
O15   C43   1.299952 A    
C32   C33   1.423930 A    
O8    V2    2.007757 S    
C19   C20   1.347905 D    
C41   O16   1.294195 A    
C29   N5    1.440891 S    
C22   C44   1.480439 S    
O11   C42   1.301147 A    
C11   C15   1.399499 A    
C3    C20   1.480047 S    
O7    V1    2.170616 S    
C1    O6    1.300016 A    
C7    N6    1.441553 S    
C48   H23   1.108064 S    
O9    C4    1.296363 A    
C26   O25   1.384010 S    
C29   C40   1.415119 A    
C23   H8    1.086162 S    
C48   H22   1.109577 S    
V4    O20   2.174569 S    
C25   H10   1.086012 S    
N5    O33   1.300999 A    
C15   H4    1.082497 S    
C9    H2    1.074406 S    
C32   C34   1.426166 A    
C27   C39   1.397428 A    
C29   C30   1.396677 A    
C11   C18   1.423884 A    
C6    C16   1.391637 A    
C12   C13   1.434790 A    
C50   H29   1.106984 S    
V3    O20   1.717027 S    
C21   C22   1.357901 D    
O19   V4    2.007767 S    
N2    O23   1.300500 A    
O17   V4    1.718917 S    
C51   C52   1.517717 S    
C52   H34   1.110548 S    
C13   C14   1.422342 A    
C31   C32   1.411908 A    
C34   C38   1.409845 A    
C19   C21   1.500033 S    
O17   V3    2.170661 S    
C45   H16   1.115728 S    
N1    O21   1.300713 A    
O18   V4    2.041767 S    
N5    O32   1.301671 A    
C6    C17   1.389431 A    
C24   H9    1.077722 S    
O3    C4    1.296031 A    
O1    V2    2.043366 S    
C8    H3    1.083279 S    
N1    O22   1.299291 A    
O11   V4    2.012737 S    
C46   H19   1.110854 S    
C47   H21   1.105660 S    
O9    V2    2.041848 S    
C10   C12   1.434478 A    
O12   V3    2.031043 S    
C23   C24   1.344910 D    
O16   V4    2.047257 S    
O2    V1    2.021817 S    
C30   C31   1.389851 A    
C45   C46   1.520618 S    
O4    C2    1.293918 A    
N3    O28   1.300360 A    
C25   C26   1.361410 D    
C52   H33   1.107093 S    
O1    C2    1.292930 A    
C16   H1    1.076305 S    
C39   O26   1.385211 S    
C12   C16   1.416772 A    
C2    C28   1.448649 S    
O5    V1    2.019755 S    
O8    C3    1.296851 A    
O6    V2    2.012188 S    
C47   C48   1.514548 S    
O27   C49   1.407021 S    
C36   O27   1.388798 S    
C28   C38   1.397935 A    
C20   H6    1.081585 S    
N6    O35   1.301710 A    
C36   C37   1.403166 A    
C5    C13   1.430395 A    
O4    V1    2.031063 S    
O3    V1    2.037789 S    
V1    O10   1.717109 S    
C50   H27   1.105898 S    
C35   C36   1.402391 A    
C46   H18   1.109208 S    
C49   H26   1.106420 S    
O2    C1    1.302156 A    
N4    O31   1.300797 A    
O7    V2    1.720148 S    
C14   N4    1.433305 S    
O19   C44   1.300998 A    
C18   C43   1.475555 S    
C5    O34   1.384940 S    
C8    C9    1.390918 A    
O12   C41   1.298979 A    
C47   H20   1.096961 S    
O14   C42   1.296249 A    
O34   C51   1.418659 S    
C28   C39   1.399745 A    
C10   C11   1.420050 A    
O13   C44   1.298481 A    
C48   H24   1.104419 S    
O25   C45   1.411797 S    
C9    C10   1.414958 A    
C7    C18   1.413018 A    
C49   C50   1.521286 S    
C30   H13   1.083202 S    
N3    O29   1.298969 A    
C1    C26   1.484803 S    
