data_mof_unit_33741.cif
_audit_creation_date              2012-12-11T16:51:34-0500
_audit_creation_method            fapswitch 2.2
_symmetry_space_group_name_H-M    P1
_symmetry_Int_Tables_number       1
_space_group_crystal_system       triclinic
_cell_length_a                    24.771856
_cell_length_b                    17.320239
_cell_length_c                    15.594672
_cell_angle_alpha                 90.029481
_cell_angle_beta                  129.657941
_cell_angle_gamma                 90.08694
_cell_volume                      5151.14498582

loop_
_atom_site_label
_atom_site_type_symbol
_atom_type_description
_atom_site_fract_x
_atom_site_fract_y
_atom_site_fract_z
_atom_type_partial_charge
C1    C     C_R   0.835844 0.881710 0.207533 -0.134213
C2    C     C_R   0.164684 0.883162 0.793320 -0.138120
C3    C     C_R   0.333919 0.387031 0.202414 -0.142647
C4    C     C_R   0.667163 0.388315 0.797305 -0.120560
C5    C     C_R   0.890389 0.109252 0.594804 -0.126149
C6    C     C_R   0.115575 0.101978 0.409663 -0.164823
C7    C     C_R   0.402182 0.634061 0.592778 -0.102703
C8    C     C_R   0.595323 0.633752 0.405196 -0.113034
C9    C     C_R   0.825544 0.132004 0.503852 0.143576
C10   C     C_R   0.184148 0.113468 0.504131 0.108545
C11   C     C_R   0.346205 0.671216 0.499184 0.051151
C12   C     C_R   0.650444 0.672918 0.496024 0.067070
C13   C     C_R   0.882226 0.181507 0.207303 0.111712
C14   C     C_R   0.119385 0.181110 0.794343 0.114888
C15   C     C_R   0.370452 0.667496 0.180232 0.117939
C16   C     C_R   0.628246 0.669922 0.816121 0.108426
C17   C     C_R   0.720116 0.793784 0.395764 0.127505
C18   C     C_R   0.200902 0.800520 0.399599 0.259836
C19   C     C_R   0.315324 0.254068 0.590865 0.101652
C20   C     C_R   0.687344 0.237834 0.472616 0.147271
C21   C     C_R   0.757930 0.848779 0.480258 0.088339
C22   C     C_R   0.230284 0.851145 0.489071 0.057562
C23   C     C_R   0.314879 0.258043 0.501663 -0.034897
C24   C     C_R   0.716350 0.311902 0.501121 0.035218
C25   C     C_R   0.742483 0.860643 0.552431 0.021982
C26   C     C_R   0.304109 0.853918 0.573819 -0.068009
C27   C     C_R   0.284415 0.196403 0.423300 -0.083131
C28   C     C_R   0.787139 0.324132 0.551820 -0.088557
C29   C     C_R   0.244054 0.141652 0.427533 -0.141582
C30   C     C_R   0.823933 0.261807 0.555991 -0.177908
C31   C     C_R   0.705661 0.802083 0.558102 -0.284470
C32   C     C_R   0.343872 0.794722 0.576685 -0.298211
C33   C     C_R   0.241221 0.145138 0.514447 0.075594
C34   C     C_R   0.789822 0.190610 0.510587 -0.008316
C35   C     C_R   0.681226 0.738143 0.486731 0.079058
C36   C     C_R   0.310074 0.736979 0.494429 0.039243
C37   C     C_R   0.286319 0.194109 0.604529 0.058768
C38   C     C_R   0.723926 0.177248 0.476912 0.081278
C39   C     C_R   0.681266 0.739687 0.397763 0.005019
C40   C     C_R   0.240028 0.744742 0.402005 0.005243
C41   C     C_3   0.700919 0.677345 0.355292 -0.208016
C42   C     C_3   0.180902 0.687268 0.342409 -0.263262
C43   C     C_3   0.273070 0.243413 0.668923 -0.297697
C44   C     C_3   0.660539 0.141205 0.372983 -0.261652
C45   C     C_R   0.114045 0.905853 0.406494 -0.067041
C46   C     C_R   0.885055 0.895564 0.589674 -0.020052
C47   C     C_R   0.611765 0.392998 0.407471 -0.056571
C48   C     C_R   0.405943 0.363259 0.593032 0.050398
C49   C     C_3   0.744367 0.737706 0.353239 -0.578062
C50   C     C_3   0.137063 0.749703 0.339840 -0.605797
C51   C     C_3   0.295562 0.311817 0.638641 -0.521433
C52   C     C_3   0.619122 0.208124 0.368649 -0.573491
C53   C     C_2   0.190778 0.826350 0.964801 -0.314298
C54   C     C_2   0.810540 0.823309 0.037449 -0.333232
C55   C     C_2   0.697798 0.341371 0.977563 -0.309689
C56   C     C_2   0.306306 0.333414 0.027662 -0.296409
C57   C     C_2   0.259579 0.843343 0.039597 -0.031149
C58   C     C_2   0.742618 0.843288 0.960739 -0.020690
C59   C     C_2   0.767545 0.354256 0.049700 -0.010468
C60   C     C_2   0.237654 0.351812 0.952028 -0.034721
C61   C     C_2   0.857122 0.254388 0.145288 -0.155165
C62   C     C_2   0.146777 0.253005 0.859109 -0.136031
C63   C     C_2   0.341507 0.737436 0.112995 -0.168066
C64   C     C_2   0.657426 0.740163 0.883113 -0.161533
C65   C     C_2   0.810099 0.297740 0.139582 -0.075485
C66   C     C_2   0.192051 0.296994 0.860770 -0.056800
C67   C     C_2   0.304078 0.785473 0.124436 -0.060818
C68   C     C_2   0.696640 0.786903 0.873830 -0.070228
C69   C     C_R   0.187449 0.896460 0.590891 -0.122618
C70   C     C_R   0.812181 0.898333 0.405099 -0.144933
C71   C     C_R   0.684674 0.388545 0.592978 -0.174353
C72   C     C_R   0.330027 0.363177 0.406798 -0.108833
C73   C     C_R   0.076086 0.885271 0.798276 -0.120538
C74   C     C_R   0.925323 0.882628 0.204273 -0.142197
C75   C     C_R   0.581846 0.395452 0.807413 -0.138551
C76   C     C_R   0.423208 0.387383 0.199704 -0.135327
C77   C     C_R   0.856752 0.858143 0.148043 0.152183
C78   C     C_R   0.144593 0.861152 0.854363 0.142438
C79   C     C_R   0.353475 0.366035 0.140406 0.132523
C80   C     C_R   0.650439 0.372315 0.864011 0.106587
C81   C     C_R   0.181444 0.886941 0.497217 0.095037
C82   C     C_R   0.816475 0.881542 0.494623 0.085543
C83   C     C_R   0.676553 0.369709 0.500190 0.020980
C84   C     C_R   0.350378 0.323186 0.499977 -0.050400
C85   C     C_R   0.814816 0.110830 0.409171 -0.128385
C86   C     C_R   0.189018 0.097051 0.594031 -0.113107
C87   C     C_R   0.327332 0.632550 0.406751 -0.084354
C88   C     C_R   0.671466 0.635416 0.591003 -0.131121
C89   C     C_R   0.940622 0.139710 0.239989 -0.127836
C90   C     C_R   0.060963 0.139327 0.762414 -0.113192
C91   C     C_R   0.431815 0.629905 0.220136 -0.120299
C92   C     C_R   0.566948 0.631919 0.776835 -0.110278
C93   C     C_R   0.150020 0.140077 0.758907 -0.135327
C94   C     C_R   0.850166 0.140155 0.240381 -0.118394
C95   C     C_R   0.656721 0.631412 0.775955 -0.132466
C96   C     C_R   0.342596 0.630013 0.222032 -0.135230
H1    H     H_    0.783892 0.877763 0.182323 0.091378
H2    H     H_    0.216349 0.879196 0.817507 0.090748
H3    H     H_    0.281554 0.385730 0.175669 0.096160
H4    H     H_    0.718344 0.385082 0.819747 0.087975
H5    H     H_    0.212557 0.099462 0.361552 0.190069
H6    H     H_    0.877403 0.269466 0.587965 0.178798
H7    H     H_    0.697679 0.805130 0.618765 0.127265
H8    H     H_    0.400045 0.792259 0.643884 0.142166
H9    H     H_    0.732718 0.630507 0.417029 0.179936
H10   H     H_    0.162782 0.672187 0.258291 0.178598
H11   H     H_    0.217657 0.247127 0.634612 0.174688
H12   H     H_    0.661898 0.141156 0.303034 0.170048
H13   H     H_    0.725045 0.753493 0.268653 0.187003
H14   H     H_    0.120812 0.737254 0.390533 0.186766
H15   H     H_    0.338158 0.344783 0.712949 0.224505
H16   H     H_    0.582141 0.191889 0.383331 0.188202
H17   H     H_    0.793107 0.282017 0.186477 0.125906
H18   H     H_    0.204219 0.284075 0.806778 0.160238
H19   H     H_    0.296619 0.774313 0.184845 0.124116
H20   H     H_    0.704572 0.775197 0.814095 0.110850
H21   H     H_    0.872910 0.269202 0.096389 0.160928
H22   H     H_    0.134689 0.266324 0.913335 0.161540
H23   H     H_    0.348924 0.748727 0.052565 0.146316
H24   H     H_    0.649608 0.752053 0.942955 0.144193
H25   H     H_    0.977072 0.155126 0.226694 0.111471
H26   H     H_    0.026189 0.154459 0.779060 0.105017
H27   H     H_    0.461284 0.639394 0.192110 0.098952
H28   H     H_    0.536073 0.643061 0.801956 0.101114
H29   H     H_    0.913128 0.112887 0.681248 0.111243
H30   H     H_    0.095239 0.102778 0.324335 0.111234
H31   H     H_    0.424566 0.645235 0.677645 0.102109
H32   H     H_    0.570345 0.644496 0.319484 0.098362
N1    N     N_R   0.888400 0.921830 0.294620 -0.043257
N2    N     N_R   0.111600 0.921830 0.705380 -0.042942
N3    N     N_R   0.388400 0.421830 0.294620 -0.047215
N4    N     N_R   0.611600 0.421830 0.705380 -0.046889
N5    N     N_R   0.079940 0.922160 0.443410 -0.075765
N6    N     N_R   0.920060 0.922160 0.556590 -0.079489
N7    N     N_R   0.579940 0.422160 0.443410 -0.075402
N8    N     N_R   0.420060 0.422160 0.556590 -0.049214
N9    N     N_R   0.125650 0.922400 0.556620 -0.047518
N10   N     N_R   0.874350 0.922400 0.443380 -0.047198
N11   N     N_R   0.625650 0.422400 0.556620 -0.038730
N12   N     N_R   0.374350 0.422400 0.443380 -0.049338
N13   N     N_R   0.054230 0.922730 0.705400 -0.056459
N14   N     N_R   0.945770 0.922730 0.294600 -0.053078
N15   N     N_R   0.554230 0.422730 0.705400 -0.052475
N16   N     N_R   0.445770 0.422730 0.294600 -0.055632
N17   N     N_R   0.873790 0.077030 0.443380 -0.041922
N18   N     N_R   0.126210 0.077030 0.556620 -0.047906
N19   N     N_R   0.373790 0.577030 0.443380 -0.043768
N20   N     N_R   0.626210 0.577030 0.556620 -0.041603
N21   N     N_R   0.945200 0.076700 0.294600 -0.048722
N22   N     N_R   0.054800 0.076700 0.705400 -0.048972
N23   N     N_R   0.445200 0.576700 0.294600 -0.046766
N24   N     N_R   0.554800 0.576700 0.705400 -0.042476
N25   N     N_R   0.111030 0.077600 0.705380 -0.048399
N26   N     N_R   0.888970 0.077600 0.294620 -0.045777
N27   N     N_R   0.611030 0.577600 0.705380 -0.045736
N28   N     N_R   0.388970 0.577600 0.294620 -0.044855
N29   N     N_R   0.919490 0.077280 0.556590 -0.051423
N30   N     N_R   0.080510 0.077280 0.443410 -0.046184
N31   N     N_R   0.419490 0.577280 0.556590 -0.037580
N32   N     N_R   0.580510 0.577280 0.443410 -0.049125
Ni1   Ni    Ni4+2 0.882160 0.999430 0.370180 0.218191
Ni2   Ni    Ni4+2 0.117840 0.999430 0.629820 0.227525
Ni3   Ni    Ni4+2 0.382160 0.499430 0.370180 0.230407
Ni4   Ni    Ni4+2 0.617840 0.499430 0.629820 0.209459
Ni5   Ni    Ni4+2 0.012460 0.999430 0.370180 0.210591
Ni6   Ni    Ni4+2 0.987540 0.999430 0.629820 0.216067
Ni7   Ni    Ni4+2 0.512460 0.499430 0.370180 0.208083
Ni8   Ni    Ni4+2 0.487540 0.499430 0.629820 0.271606
C97   C     C_2   0.639797 0.649266 0.240949 0.554868
H33   H     H_    0.603862 0.690133 0.175411 0.009504
O1    O     O_2   0.630109 0.580174 0.221142 -0.569038
C98   C     C_2   0.193284 0.618767 0.412386 0.630716
H34   H     H_    0.211232 0.627020 0.496043 0.000289
O2    O     O_2   0.183588 0.553450 0.375636 -0.574432
C99   C     C_2   0.325987 0.224322 0.791371 0.565179
H35   H     H_    0.381224 0.219475 0.831214 0.041145
O3    O     O_2   0.307883 0.214218 0.846971 -0.650025
C100  C     C_2   0.643162 0.064389 0.394680 0.687467
H36   H     H_    0.639786 0.058180 0.460429 -0.000043
O4    O     O_2   0.633041 0.008244 0.338727 -0.589845
H37   H     H_    0.801643 0.726100 0.414751 0.219408
H38   H     H_    0.094089 0.770545 0.254128 0.224115
H39   H     H_    0.250570 0.348238 0.572641 0.224393
H40   H     H_    0.596136 0.245903 0.295282 0.236407
C101  C     C_2   0.291509 0.914961 0.036684 0.574420
H41   H     H_    0.258816 0.962365 0.982142 0.012167
O5    O     O_2   0.355132 0.922357 0.097665 -0.562371
C102  C     C_2   0.712855 0.916810 0.963443 0.535579
H42   H     H_    0.746926 0.963044 0.019843 0.005534
O6    O     O_2   0.649538 0.927062 0.900300 -0.578737
C103  C     C_2   0.801557 0.420519 0.039873 0.557591
H43   H     H_    0.770256 0.466645 0.980996 0.000815
O7    O     O_2   0.865336 0.425567 0.100518 -0.568544
C104  C     C_2   0.207050 0.423076 0.958560 0.553720
H44   H     H_    0.240607 0.468775 0.016867 0.001300
O8    O     O_2   0.143622 0.432330 0.896226 -0.552485
H45   H     H_    0.169647 0.777491 0.978858 0.170378
H46   H     H_    0.830454 0.772801 0.024157 0.170697
H47   H     H_    0.675352 0.297704 0.996819 0.164308
H48   H     H_    0.326842 0.285166 0.011874 0.215925
C105  C     C_2   0.090966 0.936046 0.298814 0.470870
H49   H     H_    0.040063 0.962984 0.241353 0.003864
O9    O     O_2   0.129711 0.936084 0.275813 -0.577666
C106  C     C_2   0.913027 0.896089 0.705664 0.528670
H50   H     H_    0.947890 0.942243 0.760966 -0.002625
O10   O     O_2   0.898117 0.844677 0.740861 -0.598979
C107  C     C_2   0.592720 0.412001 0.299097 0.523831
H51   H     H_    0.549798 0.451254 0.243064 0.023562
O11   O     O_2   0.626620 0.386840 0.273267 -0.558360
C108  C     C_2   0.437467 0.353067 0.709666 0.412783
H52   H     H_    0.452599 0.296139 0.747239 0.015478
O12   O     O_2   0.443113 0.408611 0.763238 -0.596697
H53   H     H_    0.234656 0.892973 0.676893 0.118584
H54   H     H_    0.765085 0.902032 0.318864 0.121905
H55   H     H_    0.730860 0.381649 0.679253 0.108989
H56   H     H_    0.285374 0.351691 0.320928 0.108768
H57   H     H_    0.049565 0.884210 0.832246 0.112112
H58   H     H_    0.953602 0.878796 0.173231 0.100308
H59   H     H_    0.561507 0.405643 0.849898 0.176815
H60   H     H_    0.450907 0.385842 0.167609 0.099982
H61   H     H_    0.767412 0.116582 0.323756 0.097114
H62   H     H_    0.236376 0.090452 0.679482 0.144947
H63   H     H_    0.282013 0.642663 0.321437 0.093813
H64   H     H_    0.717683 0.647610 0.675182 0.106222
H65   H     H_    0.196801 0.154024 0.771286 0.161452
H66   H     H_    0.802285 0.154224 0.225046 0.095126
H67   H     H_    0.708250 0.639982 0.801590 0.096313
H68   H     H_    0.290838 0.638115 0.195510 0.095993
C109  C     C_2   0.763145 0.930934 0.621315 0.533686
H69   H     H_    0.758622 0.932166 0.686102 0.011555
O13   O     O_2   0.783254 0.988883 0.604477 -0.634665
C110  C     C_2   0.341004 0.914943 0.660263 0.511186
H70   H     H_    0.394894 0.906163 0.734979 0.026635
O14   O     O_2   0.313024 0.976716 0.647276 -0.602741
C111  C     C_2   0.292677 0.188940 0.337411 0.536921
H71   H     H_    0.331999 0.222313 0.343390 0.010259
O15   O     O_2   0.256443 0.143935 0.259646 -0.566947
C112  C     C_2   0.821006 0.401276 0.593162 0.572094
H72   H     H_    0.791070 0.451147 0.583375 0.006401
O16   O     O_2   0.882957 0.410153 0.638662 -0.555616

loop_
_geom_bond_atom_site_label_1
_geom_bond_atom_site_label_2
_ccdc_geom_bond_type
C25   C31   A    
C104  O8    D    
C26   C32   A    
C75   N15   A    
C55   C59   D    
C27   C29   A    
C15   C91   A    
C1    C77   A    
C105  H49   S    
N26   Ni1   S    
C59   C103  S    
C76   C79   A    
N8    N12   A    
C3    C79   A    
C103  O7    D    
C100  H36   S    
C60   C104  S    
C39   C41   S    
C73   N13   A    
N12   Ni3   S    
N5    N9    A    
N18   Ni2   S    
C25   C109  S    
N13   Ni6   S    
C56   C79   S    
C87   N19   A    
C47   C107  S    
C3    N3    A    
C96   H68   S    
N11   Ni4   S    
C24   C83   S    
C85   N17   A    
N2    Ni2   S    
C4    C80   A    
C51   H39   S    
C92   H28   S    
N20   N32   A    
N9    Ni2   S    
C71   H55   S    
C101  O5    D    
C7    N31   A    
C52   H16   S    
C17   C21   A    
C14   C62   S    
C3    H3    S    
C29   C33   A    
C50   H14   S    
C20   C38   A    
N31   Ni8   S    
C102  O6    D    
C97   H33   S    
N32   Ni7   S    
C46   C106  S    
N2    N13   A    
C67   H19   S    
C14   C90   A    
C18   C40   A    
C19   C37   A    
C9    C85   A    
C88   H64   S    
C46   C82   A    
C43   C99   S    
C8    H32   S    
C90   H26   S    
C20   C24   A    
N28   Ni3   S    
C11   C87   A    
N22   N25   A    
C92   N24   A    
C51   H15   S    
C111  H71   S    
C32   H8    S    
C47   C83   A    
C8    C12   A    
N10   Ni1   S    
C18   C22   A    
C75   C80   A    
C14   C93   A    
C57   C101  S    
C90   N22   A    
C54   C77   S    
C28   C112  S    
C44   C52   S    
N4    N15   A    
C40   C42   S    
N6    N10   A    
C74   N14   A    
N19   N31   A    
C73   H57   S    
C91   H27   S    
C105  O9    D    
C42   C98   S    
C30   H6    S    
C50   H38   S    
C17   C49   S    
C57   C67   S    
C86   N18   A    
C41   C49   S    
C6    N30   A    
C98   O2    D    
C7    C11   A    
C71   C83   A    
C44   H12   S    
C69   N9    A    
C5    N29   A    
C112  O16   D    
C23   C84   S    
C30   C34   A    
N16   Ni7   S    
C58   C102  S    
C107  H51   S    
C70   H54   S    
C22   C81   S    
C24   C28   A    
C55   H47   S    
C36   C40   A    
N21   Ni5   S    
C6    H30   S    
C99   O3    D    
C44   C100  S    
C15   C96   A    
C62   C66   D    
N20   Ni4   S    
C71   N11   A    
N1    N14   A    
N8    Ni8   S    
C26   C110  S    
C41   C97   S    
C74   C77   A    
C33   C37   A    
C48   C84   A    
C102  H42   S    
C31   H7    S    
C37   C43   S    
N17   Ni1   S    
C19   C23   A    
N21   N26   A    
N4    Ni4   S    
C63   C67   D    
C38   C44   S    
C109  H69   S    
C2    C78   A    
N5    Ni5   S    
C46   N6    A    
C13   C61   S    
N17   N29   A    
C45   N5    A    
C99   H35   S    
N24   N27   A    
C75   H59   S    
C73   C78   A    
C12   C88   A    
C68   H20   S    
C74   H58   S    
N6    Ni6   S    
C88   N20   A    
C29   H5    S    
C43   H11   S    
N23   N28   A    
C21   C82   S    
C12   C35   S    
C42   H10   S    
C72   C84   A    
C41   H9    S    
C42   C50   S    
C49   H37   S    
C76   N16   A    
C108  O12   D    
C58   C68   S    
C17   C39   A    
C72   H56   S    
C106  O10   D    
C70   N10   A    
C23   C27   A    
C4    H4    S    
C111  O15   D    
C9    C34   S    
C31   C35   A    
N24   Ni8   S    
C1    H1    S    
C8    N32   A    
C64   C68   D    
C98   H34   S    
C18   C50   S    
C49   H13   S    
C54   C58   D    
C103  H43   S    
C21   C25   A    
C112  H72   S    
C11   C36   S    
C16   C95   A    
C53   C57   D    
C66   H18   S    
C47   N7    A    
C110  O14   D    
C34   C38   A    
C65   H17   S    
C48   N8    A    
C45   C81   A    
C52   H40   S    
C48   C108  S    
C54   H46   S    
N29   Ni6   S    
C6    C10   A    
C100  O4    D    
C32   C36   A    
C10   C86   A    
C16   C92   A    
N18   N30   A    
C27   C111  S    
N27   Ni4   S    
C13   C89   A    
C16   C64   S    
N25   Ni2   S    
C1    N1    A    
C64   H24   S    
C69   H53   S    
C15   C63   S    
C13   C94   A    
C20   C52   S    
N7    N11   A    
C53   H45   S    
C93   N25   A    
C53   C78   S    
C28   C30   A    
C109  O13   D    
C61   H21   S    
N19   Ni3   S    
C59   C65   S    
N14   Ni5   S    
C91   N23   A    
C55   C80   S    
C4    N4    A    
C43   C51   S    
C101  H41   S    
C96   N28   A    
C94   N26   A    
C89   H25   S    
C76   H60   S    
C19   C51   S    
N23   Ni7   S    
C35   C39   A    
N1    Ni1   S    
C89   N21   A    
C110  H70   S    
C2    N2    A    
C104  H44   S    
C10   C33   S    
C95   N27   A    
C61   C65   D    
C70   C82   A    
C95   H67   S    
N15   Ni8   S    
C62   H22   S    
C69   C81   A    
C94   H66   S    
C60   C66   S    
C93   H65   S    
C72   N12   A    
N3    Ni3   S    
C56   C60   D    
C106  H50   S    
C2    H2    S    
C45   C105  S    
C108  H52   S    
C22   C26   A    
C5    H29   S    
C107  O11   D    
C63   H23   S    
N7    Ni7   S    
C5    C9    A    
C86   H62   S    
C7    H31   S    
C85   H61   S    
N3    N16   A    
N30   Ni5   S    
C87   H63   S    
C56   H48   S    
C97   O1    D    
N22   Ni6   S    
