data_mof_unit_67978.cif
_audit_creation_date              2013-03-05T16:49:25-0500
_audit_creation_method            fapswitch 2.2
_symmetry_space_group_name_H-M    P1
_symmetry_Int_Tables_number       1
_space_group_crystal_system       triclinic
_cell_length_a                    10.811975
_cell_length_b                    8.980687
_cell_length_c                    8.196734
_cell_angle_alpha                 91.261783
_cell_angle_beta                  91.751553
_cell_angle_gamma                 90.077084
_cell_volume                      795.327981553

loop_
_atom_site_label
_atom_site_type_symbol
_atom_site_description
_atom_site_fract_x
_atom_site_fract_y
_atom_site_fract_z
_atom_type_partial_charge
O1    O     O_R   0.499990 0.285340 0.636850 -0.595754
O2    O     O_R   0.500010 0.714660 0.363150 -0.595303
O3    O     O_R   0.500010 0.285350 0.363100 -0.604948
O4    O     O_R   0.499990 0.714650 0.636900 -0.605152
C1    C     C_R   0.499888 0.218255 0.498840 0.948925
C2    C     C_R   0.500109 0.781744 0.501159 0.948963
O5    O     O_R   0.316750 0.500000 0.636870 -0.665615
O6    O     O_R   0.683250 0.500000 0.363130 -0.665657
O7    O     O_R   0.316770 0.500020 0.363120 -0.604905
O8    O     O_R   0.683230 0.499980 0.636880 -0.604802
C3    C     C_R   0.259619 0.499197 0.497434 0.886697
C4    C     C_R   0.740379 0.500799 0.502564 0.886967
Zn1   Zn    Zn3+2 0.499990 0.499990 0.682780 1.042398
Zn2   Zn    Zn3+2 0.500010 0.500010 0.317220 1.042631
H1    H     H_    0.293055 0.272168 0.827010 0.216984
H2    H     H_    0.707954 0.727935 0.173800 0.217446
C5    C     C_R   0.219336 0.449440 0.972850 -0.255478
C6    C     C_R   0.780788 0.550645 0.027250 -0.256139
H3    H     H_    0.259079 0.536330 0.903529 0.211184
H4    H     H_    0.740939 0.463795 0.096517 0.211316
C7    C     C_R   0.150085 0.490467 0.105758 0.302205
C8    C     C_R   0.849873 0.509554 0.894220 0.302403
C9    C     C_R   0.109741 0.379808 0.211515 -0.176246
C10   C     C_R   0.890284 0.620186 0.788498 -0.176650
C11   C     C_R   0.132855 0.227291 0.175249 0.204766
C12   C     C_R   0.867563 0.772733 0.825038 0.204640
C13   C     C_R   0.196725 0.188624 0.032176 0.317699
C14   C     C_R   0.804261 0.811513 0.968558 0.317691
C15   C     C_R   0.241461 0.300666 0.934216 -0.205978
C16   C     C_R   0.759207 0.699458 0.066299 -0.205347
C17   C     C_R   0.929921 0.427766 0.376612 -0.075694
C18   C     C_R   0.070073 0.572238 0.623373 -0.075866
H5    H     H_    0.875832 0.370688 0.281173 0.177725
H6    H     H_    0.124164 0.629316 0.718811 0.177477
C19   C     C_R   0.872948 0.499363 0.506494 -0.068169
C20   C     C_R   0.127046 0.500633 0.493498 -0.068046
C21   C     C_R   0.943365 0.570838 0.632799 0.098032
C22   C     C_R   0.056628 0.429165 0.367189 0.097790
C23   C     C_1   0.499954 0.065131 0.498384 -0.046815
C24   C     C_1   0.500040 0.934869 0.501614 -0.046802
N1    N     N_1   0.500020 0.500030 0.073640 -0.024825
N2    N     N_1   0.499980 0.499970 0.926360 -0.024918
N3    N     N_R   0.139282 0.646149 0.146474 0.225273
O9    O     O_R   0.035750 0.701640 0.196693 -0.349151
O10   O     O_R   0.236852 0.730939 0.144319 -0.289560
N4    N     N_R   0.860586 0.353871 0.853474 0.225533
O11   O     O_R   0.964082 0.298340 0.803131 -0.348304
O12   O     O_R   0.763042 0.269073 0.856004 -0.290241
N5    N     N_R   0.102586 0.114047 0.288911 0.250293
O13   O     O_R   0.184372 0.014286 0.329592 -0.307533
O14   O     O_R   0.994444 0.110714 0.354011 -0.269506
N6    N     N_R   0.897567 0.885930 0.711206 0.250828
O15   O     O_R   0.815490 0.985313 0.670328 -0.307628
O16   O     O_R   0.005544 0.889259 0.645671 -0.269672
N7    N     N_R   0.213670 0.036312 0.982518 0.263625
O17   O     O_R   0.314973 0.995227 0.912429 -0.355752
O18   O     O_R   0.119355 0.946282 0.977548 -0.251075
N8    N     N_R   0.788535 0.963858 0.019062 0.264367
O19   O     O_R   0.689128 0.005089 0.093363 -0.355926
O20   O     O_R   0.882700 0.053874 0.020035 -0.250400

loop_
_geom_bond_atom_site_label_1
_geom_bond_atom_site_label_2
_geom_bond_distance
_ccdc_geom_bond_type
O6    Zn2   2.005277 S    
O7    Zn2   2.027859 S    
C17   H5    1.081804 S    
C5    H3    1.072359 S    
C6    C16   1.389079 A    
C12   N6    1.438275 S    
C11   C13   1.415975 A    
C9    C22   1.474798 S    
C5    C15   1.389065 A    
N1    N2    1.207189 T    
C12   C14   1.416137 A    
C17   C22   1.374543 A    
O6    C4    1.282295 A    
N3    O9    1.300555 A    
C11   N5    1.438354 S    
N7    O17   1.302330 A    
C1    C23   1.375086 S    
C10   C21   1.474816 S    
C7    N3    1.435993 S    
C18   C21   1.374551 A    
C4    C19   1.432790 S    
O5    C3    1.282314 A    
N3    O10   1.300987 A    
O7    C3    1.279010 A    
O2    C2    1.269860 A    
O3    Zn2   1.972243 S    
O8    C4    1.279009 A    
Zn2   N1    1.996568 S    
O1    C1    1.269863 A    
C18   C20   1.391855 A    
C8    C10   1.410281 A    
C14   C16   1.396384 A    
Zn1   N2    1.996568 S    
C19   C21   1.408802 A    
N6    O16   1.300509 A    
H1    C15   1.081346 S    
C14   N8    1.432535 S    
N7    O18   1.299632 A    
C7    C9    1.410403 A    
O2    Zn2   1.955971 S    
C13   N7    1.432130 S    
C13   C15   1.396127 A    
N8    O20   1.298900 A    
C20   C22   1.408807 A    
N4    O12   1.300979 A    
O5    Zn1   2.005277 S    
C2    C24   1.375087 S    
O1    Zn1   1.955969 S    
N6    O15   1.301351 A    
C6    H4    1.072330 S    
O4    C2    1.276962 A    
C9    C11   1.419317 A    
N5    O14   1.300567 A    
C23   C24   1.170725 T    
N5    O13   1.301174 A    
N4    O11   1.300694 A    
C3    C20   1.432835 S    
C17   C19   1.391869 A    
C8    N4    1.435957 S    
N8    O19   1.301659 A    
C6    C8    1.384171 A    
H2    C16   1.081310 S    
C5    C7    1.384238 A    
O4    Zn1   1.972244 S    
C10   C12   1.419231 A    
O3    C1    1.276960 A    
O8    Zn1   2.027859 S    
C18   H6    1.081813 S    
