data_mof_unit_32485.cif
_audit_creation_date              2012-12-10T19:01:23-0500
_audit_creation_method            fapswitch 2.2
_symmetry_space_group_name_H-M    P1
_symmetry_Int_Tables_number       1
_space_group_crystal_system       triclinic
_cell_length_a                    9.568967
_cell_length_b                    10.835807
_cell_length_c                    15.384106
_cell_angle_alpha                 89.269174
_cell_angle_beta                  74.226248
_cell_angle_gamma                 89.64508
_cell_volume                      1534.93938815

loop_
_atom_site_label
_atom_site_type_symbol
_atom_type_description
_atom_site_fract_x
_atom_site_fract_y
_atom_site_fract_z
_atom_type_partial_charge
C1    C     C_R   0.000711 0.262416 0.499204 0.793242
C2    C     C_R   0.666183 0.557069 0.902590 0.110696
C3    C     C_R   0.763875 0.601266 0.949419 0.154251
C4    C     C_R   0.514137 0.554794 0.945821 -0.007607
C5    C     C_R   0.467222 0.568034 0.041348 0.053511
C6    C     C_R   0.567765 0.612682 0.086131 -0.196821
C7    C     C_R   0.712487 0.632352 0.040037 -0.222788
C8    C     C_R   0.407042 0.539613 0.897852 -0.034999
C9    C     C_R   0.266593 0.504329 0.944875 -0.284149
C10   C     C_R   0.224176 0.499350 0.038857 0.129294
C11   C     C_R   0.321730 0.536149 0.088338 0.094347
C12   C     C_R   0.917956 0.503165 0.672381 0.799357
C13   C     C_R   0.082878 0.461216 0.083931 -0.190309
C14   C     C_R   0.036955 0.458979 0.177874 -0.125678
C15   C     C_R   0.271339 0.534813 0.183312 -0.234681
C16   C     C_R   0.125358 0.062578 0.500986 0.133112
C17   C     C_R   0.004320 0.129282 0.492486 -0.093793
C18   C     C_R   0.887914 0.065645 0.474465 -0.211622
C19   C     C_R   0.886937 0.937093 0.475372 -0.191118
C20   C     C_R   0.002611 0.870972 0.493628 -0.090180
C21   C     C_R   0.124090 0.935292 0.501934 0.110166
C22   C     C_3   0.198390 0.927426 0.575617 -0.449824
C23   C     C_R   0.999876 0.737602 0.499568 0.806036
C24   C     C_3   0.201358 0.067262 0.573858 -0.468475
C25   C     C_R   0.581464 0.604555 0.477902 0.198225
C26   C     C_R   0.561847 0.400470 0.530141 -0.029591
C27   C     C_R   0.413568 0.400214 0.529558 -0.036963
C28   C     C_R   0.432953 0.605977 0.481587 0.236066
C29   C     C_3   0.454685 0.685093 0.399420 -0.537519
C30   C     C_3   0.616758 0.677586 0.390785 -0.256898
C31   C     C_R   0.082369 0.498780 0.327485 0.803145
C32   C     C_R   0.871402 0.524961 0.770136 -0.059163
C33   C     C_R   0.129543 0.498339 0.228096 -0.039619
C34   C     C_R   0.912411 0.612088 0.905190 -0.216908
C35   C     C_R   0.965342 0.576777 0.815265 -0.193338
C36   C     C_R   0.724873 0.509118 0.815900 -0.180349
Cu1   Cu    Cu3+1 0.140670 0.499980 0.500000 0.958372
Cu2   Cu    Cu3+1 0.859330 0.500020 0.500000 0.980427
H1    H     H_    0.785871 0.667363 0.076496 0.187614
H2    H     H_    0.008198 0.431999 0.046436 0.142014
H3    H     H_    0.795094 0.114602 0.463395 0.163680
H4    H     H_    0.127673 0.887925 0.639468 0.203972
H5    H     H_    0.308281 0.885438 0.552970 0.195521
H6    H     H_    0.133846 0.109462 0.637024 0.201102
H7    H     H_    0.313163 0.104533 0.548792 0.190073
H8    H     H_    0.606879 0.319176 0.553863 0.133908
H9    H     H_    0.348898 0.319118 0.552945 0.135873
H10   H     H_    0.418518 0.640062 0.344924 0.222967
H11   H     H_    0.341087 0.559505 0.224369 0.149423
H12   H     H_    0.409659 0.779294 0.415526 0.180828
H13   H     H_    0.664666 0.769080 0.396309 0.132594
H14   H     H_    0.930158 0.424588 0.211402 0.159309
H15   H     H_    0.187365 0.485736 0.908052 0.180866
H16   H     H_    0.987032 0.649555 0.939814 0.150377
H17   H     H_    0.078592 0.591906 0.780761 0.189750
H18   H     H_    0.657267 0.458954 0.782670 0.148500
H19   H     H_    0.537666 0.636150 0.156580 0.153823
N1    N     N_R   0.648210 0.500930 0.499430 -0.182580
N2    N     N_R   0.352300 0.500890 0.499430 -0.175345
O1    O     O_R   0.118810 0.319640 0.500000 -0.582143
O2    O     O_R   0.881230 0.319680 0.499990 -0.596487
O3    O     O_R   0.055580 0.499970 0.629840 -0.577893
O4    O     O_R   0.818000 0.500010 0.629830 -0.564705
O5    O     O_R   0.118770 0.680320 0.500010 -0.583868
O6    O     O_R   0.881190 0.680360 0.500000 -0.582234
O7    O     O_R   0.182000 0.499990 0.370170 -0.579262
O8    O     O_R   0.944420 0.500030 0.370160 -0.559624
H20   H     H_    0.793292 0.890220 0.465588 0.156555
C37   C     C_2   0.695146 0.606737 0.308337 0.914743
O9    O     O_2   0.799791 0.653150 0.254142 -0.627190
O10   O     O_R   0.643053 0.491493 0.291620 -0.770004
H21   H     H_    0.692162 0.460003 0.229023 0.311449
C38   C     C_2   0.429131 0.578594 0.802083 0.814931
O11   O     O_2   0.507336 0.666553 0.771363 -0.585387
O12   O     O_R   0.356011 0.517750 0.747973 -0.788588
H22   H     H_    0.375351 0.556233 0.685483 0.327584

loop_
_geom_bond_atom_site_label_1
_geom_bond_atom_site_label_2
_ccdc_geom_bond_type
C8    C9    A    
C31   O7    A    
C30   H13   S    
C16   C21   A    
C38   O11   D    
C19   C20   A    
C4    C8    A    
Cu1   O5    S    
C14   C33   A    
Cu1   O3    S    
C25   C28   A    
C31   O8    A    
C26   C27   A    
Cu1   Cu2   S    
C24   H7    S    
C32   C36   A    
C28   C29   S    
C5    C11   A    
C3    C7    A    
C5    C6    A    
C27   H9    S    
C34   C35   A    
C37   O10   S    
C13   H2    S    
Cu2   N1    S    
C11   C15   A    
C14   H14   S    
C16   C17   A    
C20   C23   S    
C9    C10   A    
Cu2   O2    S    
C16   C24   S    
C13   C14   A    
C12   C32   S    
C38   O12   S    
C6    H19   S    
C29   H12   S    
C29   H10   S    
C35   H17   S    
C32   C35   A    
C18   H3    S    
C12   O4    A    
C18   C19   A    
C3    C34   A    
C2    C4    A    
O12   H22   S    
C29   C30   S    
C36   H18   S    
C12   O3    A    
C22   H5    S    
Cu2   O6    S    
Cu1   O7    S    
C31   C33   S    
C17   C18   A    
C19   H20   S    
C20   C21   A    
C26   N1    A    
Cu1   N2    S    
C23   O5    A    
C34   H16   S    
C24   H6    S    
C22   C24   S    
C1    O1    A    
C9    H15   S    
C25   N1    A    
C30   C37   S    
Cu2   O4    S    
C28   N2    A    
C2    C36   A    
C25   C30   S    
C4    C5    A    
C10   C13   A    
C1    O2    A    
C6    C7    A    
C1    C17   S    
C23   O6    A    
C2    C3    A    
O10   H21   S    
C27   N2    A    
C22   H4    S    
C8    C38   S    
C15   H11   S    
C37   O9    D    
Cu1   O1    S    
C10   C11   A    
C26   H8    S    
Cu2   O8    S    
C7    H1    S    
C21   C22   S    
C15   C33   A    
