data_mof_unit_68494.cif
_audit_creation_date              2013-03-05T16:02:15-0500
_audit_creation_method            fapswitch 2.2
_symmetry_space_group_name_H-M    P1
_symmetry_Int_Tables_number       1
_space_group_crystal_system       triclinic
_cell_length_a                    8.447291
_cell_length_b                    14.301872
_cell_length_c                    15.16846
_cell_angle_alpha                 95.855391
_cell_angle_beta                  97.992254
_cell_angle_gamma                 91.849289
_cell_volume                      1803.25685488

loop_
_atom_site_label
_atom_site_type_symbol
_atom_site_description
_atom_site_fract_x
_atom_site_fract_y
_atom_site_fract_z
_atom_type_partial_charge
P1    P     P_3+3 0.018600 0.416790 0.295970 0.449045
O1    O     O_2   0.841230 0.444160 0.280430 -0.369898
O2    O     O_3   0.112860 0.447350 0.393710 -0.412980
O3    O     O_3   0.597940 0.615700 0.327690 -0.350007
O4    O     O_2   0.698740 0.553095 0.180315 -0.392648
O5    O     O_3   0.004286 0.293785 0.276376 -0.577157
O6    O     O_3   0.596910 0.722602 0.186845 -0.496210
H1    H     H_    0.409801 0.768585 0.252730 0.058344
C1    C     C_3   0.495397 0.879386 0.179993 0.611626
P2    P     P_3+3 0.635660 0.716530 0.560900 0.466770
P3    P     P_3+3 0.043229 0.786527 0.372493 0.512839
O7    O     O_2   0.802240 0.729740 0.532850 -0.364603
O8    O     O_3   0.017180 0.664790 0.371080 -0.394581
O9    O     O_2   0.931816 0.833099 0.434717 -0.329842
O10   O     O_3   0.657992 0.757558 0.673620 -0.595979
O11   O     O_3   0.970544 0.814457 0.265413 -0.444151
C2    C     C_3   0.009261 0.741026 0.204447 0.440049
H2    H     H_    0.943300 0.674360 0.211354 0.155121
H3    H     H_    0.139617 0.730144 0.214059 -0.045033
C3    C     C_3   0.960978 0.764202 0.109995 -0.763951
H4    H     H_    0.828973 0.764582 0.095212 0.279049
H5    H     H_    0.012413 0.834028 0.100553 0.288661
C4    C     C_3   0.222495 0.755130 0.660625 0.213038
H6    H     H_    0.329124 0.725502 0.634976 0.068647
H7    H     H_    0.121275 0.752935 0.605062 0.102404
C5    C     C_3   0.263276 0.857280 0.703737 0.289326
H8    H     H_    0.379974 0.857534 0.747599 0.188424
Ba1   Ba    Ba6+2 0.833400 0.543310 0.453520 1.547396
C6    C     C_3   0.976377 0.254167 0.353455 0.363380
H9    H     H_    0.855010 0.270930 0.367511 0.102831
H10   H     H_    0.067613 0.279486 0.411770 0.133766
C7    C     C_3   0.986081 0.147922 0.335762 -0.851072
H11   H     H_    0.899416 0.120501 0.276170 0.302446
H12   H     H_    0.958343 0.113013 0.394080 0.229160
H13   H     H_    0.108682 0.130364 0.323135 0.237209
C8    C     C_3   0.762263 0.703756 0.724094 0.218723
H14   H     H_    0.887300 0.724603 0.718826 0.155576
H15   H     H_    0.739033 0.627160 0.703089 0.058467
C9    C     C_3   0.728550 0.724572 0.819600 0.270004
H16   H     H_    0.602571 0.702836 0.816923 0.177750
P4    P     P_3+3 0.171090 0.583290 0.704030 0.490196
O12   O     O_2   0.348480 0.555870 0.719620 -0.344716
O13   O     O_3   0.076830 0.552730 0.606300 -0.426336
O14   O     O_3   0.591760 0.384380 0.672320 -0.350961
O15   O     O_3   0.177338 0.705370 0.728331 -0.540570
P5    P     P_3+3 0.146861 0.213236 0.628021 0.423238
O16   O     O_3   0.629090 0.386350 0.459240 -0.404175
O17   O     O_3   0.172520 0.335290 0.628920 -0.409572
O18   O     O_2   0.271834 0.168344 0.573589 -0.388725
O19   O     O_3   0.208291 0.186876 0.737672 -0.529032
Ba2   Ba    Ba6+2 0.356420 0.456770 0.546480 1.526445
P6    P     P_3+3 0.558121 0.607488 0.211667 0.462861
C10   C     C_3   0.457793 0.773737 0.188656 0.128295
H17   H     H_    0.365657 0.744728 0.132043 0.087040
O20   O     O_3   0.560610 0.613730 0.540770 -0.406407
C11   C     C_3   0.453628 0.311859 0.277244 0.398876
H18   H     H_    0.341362 0.332136 0.302939 0.066019
H19   H     H_    0.540899 0.373308 0.288540 0.102826
C12   C     C_3   0.414946 0.282931 0.176444 -0.449084
H20   H     H_    0.311417 0.230982 0.162565 0.220566
H21   H     H_    0.380429 0.345653 0.142152 0.171334
P7    P     P_3+3 0.556888 0.268367 0.434698 0.432469
O21   O     O_2   0.387460 0.270290 0.467210 -0.368156
O22   O     O_3   0.518052 0.236000 0.319311 -0.549167
H22   H     H_    0.005410 0.709079 0.064167 0.214438
C13   C     C_3   0.171292 0.262164 0.797638 0.524903
H23   H     H_    0.239006 0.328008 0.789764 0.154262
H24   H     H_    0.041420 0.273585 0.786557 -0.016676
C14   C     C_3   0.216650 0.240615 0.893938 -1.000262
H25   H     H_    0.346272 0.256059 0.915451 0.273699
H26   H     H_    0.150926 0.285782 0.939052 0.221503
H27   H     H_    0.187558 0.165768 0.900787 0.286475
P8    P     P_3+3 0.636392 0.386212 0.789267 0.433715
C15   C     C_3   0.680745 0.205411 0.785824 0.631577
H28   H     H_    0.779232 0.234496 0.753781 -0.015288
O23   O     O_2   0.516407 0.452505 0.828096 -0.398409
O24   O     O_3   0.582882 0.275355 0.818985 -0.545001
C16   C     C_3   0.759130 0.152774 0.864227 -0.109183
H29   H     H_    0.833415 0.205994 0.912474 0.162102
C17   C     C_R   0.849452 0.429134 0.830996 0.103745
C18   C     C_R   0.914772 0.438911 0.923249 0.004883
C19   C     C_R   0.048863 0.458554 0.109737 -0.004601
C20   C     C_R   0.900788 0.410611 0.078685 -0.097141
C21   C     C_R   0.835142 0.401204 0.988074 -0.244285
C22   C     C_R   0.116771 0.467373 0.202720 0.236840
H30   H     H_    0.834240 0.378470 0.123925 0.165415
H31   H     H_    0.720848 0.363160 0.969587 0.169383
C23   C     C_R   0.272677 0.507599 0.225244 -0.560963
C24   C     C_R   0.078076 0.522372 0.793836 0.231201
C25   C     C_R   0.137703 0.536649 0.888530 -0.277485
C26   C     C_R   0.063476 0.488826 0.951641 0.039261
C27   C     C_R   0.267624 0.598783 0.924143 0.364676
C28   C     C_R   0.361042 0.581298 0.003736 0.099433
C29   C     C_R   0.288396 0.541363 0.071283 -0.103738
C30   C     C_R   0.132784 0.497248 0.044842 -0.003843
C31   C     C_R   0.359159 0.546206 0.163297 0.197184
C32   C     C_R   0.940906 0.461443 0.767374 -0.156533
H32   H     H_    0.330641 0.505913 0.292904 0.160245
C33   C     C_R   0.708304 0.934994 0.539640 -0.076619
C34   C     C_R   0.515565 0.796727 0.490988 0.288699
C35   C     C_R   0.366701 0.762845 0.441699 -0.156976
C36   C     C_R   0.253607 0.826584 0.411083 0.173210
C37   C     C_R   0.297602 0.921191 0.413415 -0.350002
C38   C     C_R   0.451488 0.955148 0.451403 0.109651
C39   C     C_R   0.560794 0.894532 0.493833 -0.036435
C40   C     C_R   0.642059 0.089420 0.493420 0.003138
C41   C     C_R   0.751427 0.030515 0.537594 0.065443
C42   C     C_R   0.685404 0.185772 0.493788 0.237453
C43   C     C_R   0.836888 0.220636 0.534956 -0.516516
C44   C     C_R   0.945211 0.163475 0.578759 0.250503
C45   C     C_R   0.902145 0.068412 0.580410 -0.297958
C46   C     C_R   0.492639 0.050661 0.451289 -0.037933
H33   H     H_    0.210032 0.968700 0.386949 0.172230
H34   H     H_    0.986495 0.024181 0.614127 0.196296
H35   H     H_    0.873958 0.292102 0.528380 0.148950
H36   H     H_    0.791895 0.893526 0.577078 0.200692
H37   H     H_    0.406269 0.094035 0.417605 0.154505
C47   C     C_3   0.280890 0.926831 0.636125 -1.129215
H38   H     H_    0.267707 0.999648 0.666190 0.313610
H39   H     H_    0.402821 0.924381 0.619224 0.250532
H40   H     H_    0.189406 0.911716 0.576056 0.271843
N1    N     N_R   0.143123 0.889828 0.758889 0.299595
O25   O     O_R   0.995329 0.895329 0.722809 -0.438174
O26   O     O_R   0.187346 0.923871 0.841845 -0.282421
N2    N     N_R   0.598888 0.923925 0.260391 0.248661
O27   O     O_R   0.671956 0.873351 0.318457 -0.331311
O28   O     O_R   0.630308 0.014404 0.270170 -0.396673
N3    N     N_R   0.754641 0.824654 0.851818 0.301285
O29   O     O_R   0.896015 0.858660 0.888142 -0.274253
O30   O     O_R   0.632499 0.876639 0.857663 -0.355909
C48   C     C_3   0.822375 0.665852 0.882561 -1.084552
H41   H     H_    0.802299 0.687674 0.951603 0.294169
H42   H     H_    0.778938 0.592652 0.865225 0.236319
H43   H     H_    0.949077 0.673784 0.875941 0.305712
C49   C     C_3   0.337512 0.930597 0.169178 -1.050561
H44   H     H_    0.360859 0.007015 0.166133 0.291538
H45   H     H_    0.261231 0.902540 0.105947 0.294743
H46   H     H_    0.270679 0.921696 0.225997 0.239376
C50   C     C_3   0.557899 0.240678 0.137982 -0.723285
H47   H     H_    0.550125 0.252830 0.066631 0.210715
H48   H     H_    0.672275 0.273726 0.174231 0.253387
H49   H     H_    0.558318 0.163834 0.143647 0.288153
N4    N     N_R   0.574438 0.888313 0.100613 0.249049
O31   O     O_R   0.712044 0.934083 0.106984 -0.348993
O32   O     O_R   0.503201 0.854538 0.021783 -0.299908
C51   C     C_3   0.577418 0.139810 0.713166 -0.781749
H50   H     H_    0.541156 0.179679 0.655518 0.262856
H51   H     H_    0.643567 0.079072 0.689799 0.187648
H52   H     H_    0.469841 0.112857 0.738167 0.280196
C52   C     C_3   0.872062 0.077942 0.833673 -0.703604
H53   H     H_    0.948552 0.055767 0.892821 0.288418
H54   H     H_    0.803719 0.014823 0.797315 0.299909
H55   H     H_    0.950412 0.105716 0.788680 0.225393
C53   C     C_3   0.636039 0.107998 0.914801 -0.620341
H56   H     H_    0.562087 0.051050 0.871482 0.280269
H57   H     H_    0.697919 0.078098 0.974374 0.269419
H58   H     H_    0.555304 0.161217 0.938037 0.209386
C54   C     C_3   0.537470 0.591399 0.002950 -0.755874
H59   H     H_    0.561148 0.594320 0.933748 0.242673
H60   H     H_    0.589423 0.658038 0.039426 0.274504
H61   H     H_    0.596480 0.528319 0.025234 0.252592
N5    N     N_R   0.263314 0.695426 0.907519 0.258372
O33   O     O_R   0.182756 0.751694 0.955215 -0.371182
O34   O     O_R   0.380441 0.732776 0.874820 -0.347808
C55   C     C_3   0.885159 0.429566 0.670854 -0.649902
H62   H     H_    0.971632 0.422085 0.626767 0.255957
H63   H     H_    0.847056 0.354644 0.665902 0.178417
H64   H     H_    0.797604 0.477797 0.641187 0.249419
C56   C     C_3   0.321887 0.659979 0.419313 -0.642133
H65   H     H_    0.414281 0.610906 0.415307 0.256705
H66   H     H_    0.245379 0.635557 0.467084 0.245917
H67   H     H_    0.269857 0.649781 0.348069 0.176045

loop_
_geom_bond_atom_site_label_1
_geom_bond_atom_site_label_2
_geom_bond_distance
_ccdc_geom_bond_type
C49   H46   1.109408 S    
C13   H24   1.106520 S    
C23   C31   1.411469 A    
Ba1   O16   2.802980 S    
C28   C29   1.422740 A    
C4    O15   1.395429 S    
C17   C32   1.420174 A    
C36   C37   1.387176 A    
C56   H66   1.109969 S    
P4    O12   1.553517 D    
P4    C24   1.930709 S    
C21   H31   1.080048 S    
C48   H43   1.092170 S    
N3    O29   1.300446 A    
O16   P7    1.760711 S    
C1    N4    1.470145 S    
C49   H44   1.111049 S    
C40   C46   1.402524 A    
C10   H17   1.111711 S    
C11   H18   1.110331 S    
P5    O18   1.544780 D    
C34   C39   1.432865 A    
C55   H62   1.057602 S    
C40   C42   1.413628 A    
O3    P6    1.736322 S    
O2    Ba1   2.971529 S    
C37   H33   1.084221 S    
O6    P6    1.756575 S    
C51   H50   1.105485 S    
C6    C7    1.522693 S    
P2    O10   1.732555 S    
C46   H37   1.080921 S    
Ba1   Ba2   4.622618 S    
C13   C14   1.522941 S    
P7    C42   1.845401 S    
C40   C41   1.416147 A    
P2    Ba1   3.432312 S    
N4    O31   1.302205 A    
C2    C3    1.507289 S    
C42   C43   1.396094 A    
N4    O32   1.299426 A    
P1    O1    1.553110 D    
C56   H65   1.070169 S    
C4    C5    1.546148 S    
C47   H39   1.096246 S    
C14   H26   1.110141 S    
C44   C45   1.399649 A    
C34   C35   1.414347 A    
P7    O22   1.746558 S    
C54   H61   1.104993 S    
C2    H3    1.108633 S    
C47   H38   1.108886 S    
O17   Ba2   2.793699 S    
O11   C2    1.404714 S    
C15   O24   1.415424 S    
P1    Ba1   3.431154 S    
C4    H6    1.109355 S    
C11   O22   1.401139 S    
O4    P6    1.543877 D    
C35   C56   1.499790 S    
C9    N3    1.463951 S    
P3    C36   1.845423 S    
C51   H51   1.102722 S    
O12   Ba2   2.864646 S    
C13   H23   1.111490 S    
C12   H20   1.111798 S    
C55   H63   1.100903 S    
C54   H60   1.097706 S    
P4    O13   1.593639 S    
C29   C30   1.426561 A    
C41   C45   1.410746 A    
C38   C39   1.420766 A    
O3    Ba1   2.855057 S    
Ba1   O20   2.966762 S    
N5    O34   1.291005 A    
P1    C22   1.925618 S    
C33   C39   1.414556 A    
P5    O17   1.750484 S    
C12   H21   1.109137 S    
C15   H28   1.110301 S    
P1    O5    1.751384 S    
C35   C36   1.406610 A    
C3    H22   1.106990 S    
Ba2   O21   2.847100 S    
C53   H58   1.101930 S    
C9    H16   1.093080 S    
C38   C46   1.398868 A    
O2    Ba2   2.865936 S    
C16   H29   1.111977 S    
C16   C53   1.535831 S    
O16   Ba2   2.965823 S    
C52   H55   1.107048 S    
C1    N2    1.471839 S    
C24   C32   1.413227 A    
P1    O2    1.593767 S    
C47   H40   1.107862 S    
C7    H12   1.107632 S    
C14   H27   1.108981 S    
C29   C31   1.433769 A    
C7    H13   1.111051 S    
C6    H9    1.104636 S    
C51   H52   1.105101 S    
P3    O11   1.745164 S    
C25   C27   1.400064 A    
C20   C21   1.400071 A    
C12   C50   1.528010 S    
C20   H30   1.073858 S    
P7    O21   1.577450 D    
C2    H2    1.110321 S    
C5    H8    1.109655 S    
O8    Ba1   2.793093 S    
C50   H48   1.108596 S    
P2    C34   1.869055 S    
P2    O20   1.565615 S    
O19   C13   1.409041 S    
C53   H56   1.108689 S    
P2    O7    1.537050 D    
C1    C49   1.539095 S    
O14   Ba2   2.854523 S    
O7    Ba1   2.846952 S    
C55   H64   1.108625 S    
P5    C44   1.850859 S    
N2    O27   1.299051 A    
P8    O23   1.545058 D    
C52   H54   1.108416 S    
C1    C10   1.556399 S    
O6    C10   1.406038 S    
N1    O26   1.300960 A    
C48   H41   1.099560 S    
O10   C8    1.389424 S    
C33   H36   1.075665 S    
C18   C21   1.406722 A    
C16   C52   1.535553 S    
N5    O33   1.299057 A    
C22   C23   1.402859 A    
C27   N5    1.430790 S    
C49   H45   1.108637 S    
C8    H14   1.104038 S    
P4    O15   1.744823 S    
C19   C30   1.434443 A    
C53   H57   1.111119 S    
C15   C51   1.524930 S    
C8    C9    1.516772 S    
C5    C47   1.518031 S    
C3    H5    1.106823 S    
C17   C18   1.422158 A    
C48   H42   1.091777 S    
N3    O30   1.298720 A    
H1    C10   1.112046 S    
C50   H47   1.106898 S    
C19   C22   1.438147 A    
C33   C41   1.406988 A    
P5    O19   1.754511 S    
Ba1   O13   2.865379 S    
C28   C54   1.494490 S    
C11   C12   1.529380 S    
C7    H11   1.109924 S    
C8    H15   1.112475 S    
N1    O25   1.299800 A    
C6    H10   1.111121 S    
C43   C44   1.391803 A    
P3    O8    1.745436 S    
O13   Ba2   2.972521 S    
C25   C26   1.431841 A    
C54   H59   1.100180 S    
C9    C48   1.497204 S    
C50   H49   1.111144 S    
C32   C55   1.493752 S    
C27   C28   1.397223 A    
P3    O9    1.542548 D    
P8    C17   1.883966 S    
C11   H19   1.112439 S    
P6    C31   1.887331 S    
C45   H34   1.078509 S    
Ba2   O20   2.802348 S    
C4    H7    1.111251 S    
O14   P8    1.758825 S    
C14   H25   1.106588 S    
C43   H35   1.077734 S    
C26   C30   1.444441 A    
C18   C26   1.414909 A    
O5    C6    1.395275 S    
C3    H4    1.106726 S    
C19   C20   1.404101 A    
C15   C16   1.554136 S    
C37   C38   1.396981 A    
N2    O28   1.301788 A    
P8    O24   1.754253 S    
C52   H53   1.110441 S    
O1    Ba1   2.864123 S    
C56   H67   1.101773 S    
C5    N1    1.460768 S    
C24   C25   1.445995 A    
P4    Ba2   3.431778 S    
C23   H32   1.076884 S    
