data_mof_unit_32465.cif
_audit_creation_date              2012-12-10T20:44:03-0500
_audit_creation_method            fapswitch 2.2
_symmetry_space_group_name_H-M    P1
_symmetry_Int_Tables_number       1
_space_group_crystal_system       triclinic
_cell_length_a                    17.592601
_cell_length_b                    10.690351
_cell_length_c                    9.847102
_cell_angle_alpha                 89.860857
_cell_angle_beta                  89.405397
_cell_angle_gamma                 89.930048
_cell_volume                      1851.84859496

loop_
_atom_site_label
_atom_site_type_symbol
_atom_type_description
_atom_site_fract_x
_atom_site_fract_y
_atom_site_fract_z
_atom_type_partial_charge
C1    C     C_R   0.503316 0.259784 0.499789 0.884336
C2    C     C_R   0.886344 0.518543 0.482810 0.113919
C3    C     C_1   0.966077 0.528558 0.471654 -0.070648
C4    C     C_1   0.033381 0.533336 0.468137 -0.063595
C5    C     C_R   0.146839 0.566680 0.595974 -0.203379
C6    C     C_R   0.225302 0.555606 0.612294 -0.012107
C7    C     C_R   0.270029 0.512736 0.499997 -0.087110
C8    C     C_R   0.233826 0.479081 0.378582 -0.219266
C9    C     C_R   0.155866 0.489144 0.365957 -0.177348
C10   C     C_R   0.113153 0.533673 0.474436 0.147897
C11   C     C_R   0.525360 0.063653 0.620009 0.144121
C12   C     C_R   0.353197 0.503223 0.501003 0.854556
C13   C     C_R   0.518034 0.128601 0.498304 -0.109730
C14   C     C_R   0.526674 0.064960 0.374534 -0.227380
C15   C     C_R   0.526841 0.935450 0.374476 -0.228520
C16   C     C_R   0.518430 0.871217 0.498183 -0.105461
C17   C     C_R   0.525841 0.935594 0.620052 0.137093
C18   C     C_3   0.477695 0.928627 0.745428 -0.501685
C19   C     C_3   0.476776 0.069745 0.744715 -0.494486
C20   C     C_R   0.474858 0.397955 0.072245 0.218774
C21   C     C_R   0.531399 0.595847 0.071138 -0.143908
C22   C     C_R   0.531513 0.595741 0.927079 -0.135861
C23   C     C_R   0.503484 0.740166 0.499584 0.871922
C24   C     C_R   0.474912 0.397752 0.929469 0.217849
C25   C     C_3   0.396794 0.344093 0.926836 -0.511610
C26   C     C_3   0.397087 0.344181 0.080633 -0.510240
C27   C     C_R   0.646537 0.500372 0.499008 0.867561
C28   C     C_R   0.849846 0.514613 0.611062 0.032613
C29   C     C_R   0.770608 0.508325 0.615605 -0.253843
C30   C     C_R   0.729129 0.504341 0.494915 -0.050375
C31   C     C_R   0.766894 0.506551 0.368778 -0.197258
C32   C     C_R   0.845213 0.513876 0.363003 -0.189623
H1    H     H_    0.527211 0.886965 0.277997 0.163166
H2    H     H_    0.420982 0.888179 0.725301 0.198177
H3    H     H_    0.508583 0.888252 0.833096 0.194550
H4    H     H_    0.419484 0.108352 0.723046 0.199341
H5    H     H_    0.507066 0.111708 0.832002 0.204033
H6    H     H_    0.555627 0.674159 0.124787 0.141631
H7    H     H_    0.556078 0.673650 0.872053 0.142737
H8    H     H_    0.355256 0.409274 0.881632 0.243942
H9    H     H_    0.395024 0.248520 0.884997 0.192913
H10   H     H_    0.355386 0.410187 0.125683 0.217356
H11   H     H_    0.741521 0.505764 0.713156 0.161085
H12   H     H_    0.396981 0.248795 0.125835 0.197416
H13   H     H_    0.736037 0.503625 0.274220 0.163685
H14   H     H_    0.873757 0.516541 0.264914 0.142971
H15   H     H_    0.111294 0.599106 0.679605 0.151942
H16   H     H_    0.265719 0.442274 0.293359 0.148443
H17   H     H_    0.128797 0.460176 0.272802 0.124345
H18   H     H_    0.527000 0.113909 0.278059 0.168675
N1    N     N_R   0.499490 0.499140 0.142800 -0.105021
N2    N     N_R   0.499490 0.499180 0.857150 -0.099942
O1    O     O_R   0.500010 0.316790 0.614690 -0.613440
O2    O     O_R   0.500000 0.316760 0.385350 -0.622143
O3    O     O_R   0.389120 0.500020 0.614710 -0.610101
O4    O     O_R   0.389110 0.499990 0.385370 -0.616848
O5    O     O_R   0.500000 0.683240 0.614650 -0.624069
O6    O     O_R   0.499990 0.683210 0.385310 -0.626961
O7    O     O_R   0.610890 0.500010 0.614630 -0.620863
O8    O     O_R   0.610880 0.499980 0.385290 -0.622873
Zn1   Zn    Zn3+2 0.500010 0.500020 0.653130 0.945803
Zn2   Zn    Zn3+2 0.499990 0.499980 0.346870 0.937608
C33   C     C_R   0.892642 0.518013 0.740517 0.112815
C34   C     C_R   0.951012 0.431221 0.765937 -0.141264
C35   C     C_R   0.991202 0.435441 0.887637 -0.149851
C36   C     C_R   0.972991 0.525176 0.985650 -0.114490
C37   C     C_R   0.914413 0.610691 0.962229 -0.139359
C38   C     C_R   0.874285 0.607198 0.840390 -0.160138
H19   H     H_    0.965169 0.359908 0.691942 0.131943
H20   H     H_    0.036290 0.368775 0.906171 0.124517
H21   H     H_    0.004060 0.528144 0.079923 0.122604
H22   H     H_    0.900152 0.679864 0.038462 0.129489
H23   H     H_    0.829384 0.674683 0.823420 0.126420
C39   C     C_R   0.254856 0.586330 0.749035 0.118674
C40   C     C_R   0.309781 0.679857 0.767518 -0.081940
C41   C     C_R   0.332924 0.711941 0.898682 -0.138217
C42   C     C_R   0.299494 0.654675 0.011965 -0.109891
C43   C     C_R   0.242900 0.565031 0.994617 -0.161955
C44   C     C_R   0.221025 0.530300 0.864255 -0.186419
H24   H     H_    0.334223 0.727593 0.680495 0.110327
H25   H     H_    0.376130 0.782076 0.913587 0.126875
H26   H     H_    0.317190 0.680141 0.113159 0.141602
H27   H     H_    0.216243 0.521508 0.081865 0.130816
H28   H     H_    0.177412 0.459743 0.853070 0.132681

loop_
_geom_bond_atom_site_label_1
_geom_bond_atom_site_label_2
_ccdc_geom_bond_type
O6    Zn2   S    
C23   O6    A    
C24   N2    A    
C19   H4    S    
C1    O2    A    
C26   H12   S    
C7    C8    A    
C42   C43   A    
C5    H15   S    
C11   C19   S    
C5    C6    A    
O8    Zn2   S    
C28   C29   A    
C18   C19   S    
C20   N1    A    
N2    Zn1   S    
C25   H8    S    
C44   H28   S    
C15   C16   A    
C2    C32   A    
C37   H22   S    
C1    O1    A    
C19   H5    S    
O1    Zn1   S    
C43   H27   S    
C21   H6    S    
C31   C32   A    
C8    C9    A    
C40   H24   S    
C36   C37   A    
C13   C14   A    
C29   H11   S    
C27   C30   S    
N1    Zn2   S    
C9    C10   A    
C6    C39   S    
C7    C12   S    
O7    Zn1   S    
C39   C40   A    
C37   C38   A    
C20   C24   A    
C9    H17   S    
C41   C42   A    
C25   H9    S    
C43   C44   A    
C16   C17   A    
O2    Zn2   S    
C38   H23   S    
C40   C41   A    
C8    H16   S    
C29   C30   A    
C36   H21   S    
C30   C31   A    
C17   C18   S    
C34   H19   S    
C24   C25   S    
C18   H2    S    
C12   O4    A    
C16   C23   S    
C39   C44   A    
O4    Zn2   S    
C1    C13   S    
C4    C10   S    
C3    C4    T    
C21   N1    A    
C26   H10   S    
C22   N2    A    
C18   H3    S    
C23   O5    A    
C33   C38   A    
C11   C17   A    
C32   H14   S    
C41   H25   S    
O5    Zn1   S    
C6    C7    A    
C27   O8    A    
C34   C35   A    
C2    C3    S    
C25   C26   S    
C5    C10   A    
C27   O7    A    
C11   C13   A    
C14   H18   S    
C20   C26   S    
C42   H26   S    
C22   H7    S    
O3    Zn1   S    
C12   O3    A    
C33   C34   A    
C28   C33   S    
C35   C36   A    
C31   H13   S    
C14   C15   A    
C2    C28   A    
C21   C22   A    
C15   H1    S    
C35   H20   S    
