data_mof_unit_5280.cif
_audit_creation_date              2012-12-10T17:40:12-0500
_audit_creation_method            fapswitch 2.2
_symmetry_space_group_name_H-M    P1
_symmetry_Int_Tables_number       1
_space_group_crystal_system       triclinic
_cell_length_a                    12.051376
_cell_length_b                    12.759752
_cell_length_c                    27.303922
_cell_angle_alpha                 91.046108
_cell_angle_beta                  87.379074
_cell_angle_gamma                 94.065312
_cell_volume                      4183.17412102

loop_
_atom_site_label
_atom_site_type_symbol
_atom_type_description
_atom_site_fract_x
_atom_site_fract_y
_atom_site_fract_z
_atom_type_partial_charge
C1    C     C_R   0.522770 0.699896 0.498422 1.049002
C2    C     C_R   0.618954 0.632799 0.128346 -0.160860
C3    C     C_R   0.505942 0.502942 0.647893 -0.311248
C4    C     C_R   0.499100 0.524462 0.353832 -0.339143
C5    C     C_R   0.621687 0.639038 0.024497 -0.070561
C6    C     C_R   0.420525 0.576031 0.979717 -0.045179
C7    C     C_R   0.418166 0.616138 0.028476 -0.064112
C8    C     C_R   0.617055 0.639786 0.972576 -0.062649
C9    C     C_R   0.519718 0.631069 0.052356 -0.021558
C10   C     C_R   0.520721 0.593140 0.951102 -0.016300
C11   C     C_R   0.723530 0.637910 0.048744 0.448524
C12   C     C_R   0.477402 0.300103 0.502218 0.945805
C13   C     C_R   0.330545 0.512416 0.960325 0.375246
C14   C     C_R   0.721495 0.635420 0.100570 0.345173
C15   C     C_R   0.342722 0.469566 0.912260 0.366866
C16   C     C_R   0.501391 0.500383 0.594229 0.935009
C17   C     C_R   0.499016 0.501774 0.405987 0.989835
C18   C     C_R   0.704352 0.683853 0.941230 0.388947
C19   C     C_R   0.319055 0.639162 0.054914 0.398050
C20   C     C_R   0.462190 0.189089 0.508192 -0.365976
C21   C     C_R   0.538812 0.810858 0.493514 -0.288104
C22   C     C_R   0.572340 0.960487 0.441241 0.465178
C23   C     C_R   0.524524 0.564926 0.901010 -0.210231
C24   C     C_R   0.429983 0.038820 0.560326 0.561912
C25   C     C_R   0.576869 0.852431 0.448417 0.261670
C26   C     C_R   0.424980 0.145964 0.553738 0.277961
C27   C     C_R   0.502326 0.873193 0.532385 0.436837
C28   C     C_R   0.499822 0.126737 0.469266 0.496351
C29   C     C_R   0.483390 0.977711 0.523838 -0.288166
C30   C     C_R   0.518233 0.021806 0.477617 -0.240488
C31   C     C_R   0.949287 0.389010 0.459461 0.299438
C32   C     C_R   0.049395 0.601918 0.545300 0.303856
C33   C     C_R   0.832651 0.399720 0.464140 0.385235
C34   C     C_R   0.518182 0.633265 0.103956 -0.191449
C35   C     C_R   0.165436 0.587839 0.542433 0.383021
C36   C     C_R   0.861319 0.552174 0.514740 0.611469
C37   C     C_R   0.140503 0.459020 0.479046 0.600736
C38   C     C_R   0.977443 0.538267 0.515682 -0.267843
C39   C     C_R   0.022461 0.460405 0.484833 -0.266401
C40   C     C_R   0.619439 0.568056 0.820828 0.621694
C41   C     C_R   0.414343 0.616928 0.181886 0.640628
C42   C     C_R   0.438355 0.480362 0.830862 0.699223
C43   C     C_R   0.612900 0.620741 0.179695 0.673365
C44   C     C_R   0.576940 0.434134 0.722445 0.363745
C45   C     C_R   0.620092 0.594503 0.871056 -0.212642
C46   C     C_R   0.468830 0.651390 0.290984 0.352581
C47   C     C_R   0.573207 0.433435 0.670644 0.291999
C48   C     C_R   0.457479 0.619961 0.340370 0.276176
C49   C     C_R   0.446495 0.575944 0.676564 0.255020
C50   C     C_R   0.543441 0.456032 0.317784 0.240105
C51   C     C_R   0.455500 0.579260 0.727277 0.465938
C52   C     C_R   0.541746 0.482695 0.268438 0.489991
C53   C     C_R   0.520245 0.508841 0.749901 0.012943
C54   C     C_R   0.507695 0.581163 0.255267 -0.003628
C55   C     C_3   0.731993 0.027868 0.403335 -0.206038
C56   C     C_R   0.414839 0.629824 0.130969 -0.210747
C57   C     C_3   0.276805 0.962903 0.600136 -0.122781
C58   C     C_3   0.187351 0.451841 0.397618 -0.185224
C59   C     C_3   0.837735 0.724737 0.504285 -0.209085
C60   C     C_3   0.456696 0.746620 0.757367 -0.214923
C61   C     C_3   0.490996 0.346652 0.217981 -0.224557
C62   C     C_3   0.891035 0.633710 0.869283 -0.112760
C63   C     C_3   0.145567 0.560435 0.129641 -0.111733
C64   C     C_3   0.911619 0.688485 0.032859 -0.137849
C65   C     C_3   0.138003 0.503098 0.970524 -0.205317
C66   C     C_3   0.425703 0.165202 0.397594 -0.228020
C67   C     C_R   0.710199 0.654514 0.891555 0.503669
C68   C     C_3   0.580137 0.832337 0.602857 -0.252598
C69   C     C_R   0.315272 0.637489 0.106185 0.506642
C70   C     C_R   0.434016 0.504738 0.881269 -0.122708
H1    H     H_    0.411208 0.664049 0.623311 0.387419
H2    H     H_    0.245171 0.926362 0.635073 0.197195
H3    H     H_    0.242602 0.413496 0.370177 0.168446
H4    H     H_    0.217722 0.536157 0.400553 0.158771
H5    H     H_    0.102480 0.446864 0.383229 0.168916
H6    H     H_    0.793423 0.792392 0.519262 0.166631
H7    H     H_    0.807023 0.706061 0.467037 0.169798
H8    H     H_    0.927789 0.750260 0.500998 0.150124
H9    H     H_    0.198721 0.660245 0.603598 0.362882
H10   H     H_    0.786991 0.260642 0.439805 0.328194
H11   H     H_    0.945632 0.293101 0.403476 0.333317
H12   H     H_    0.578197 0.348593 0.363994 0.369362
H13   H     H_    0.059201 0.736345 0.579682 0.321288
H14   H     H_    0.460685 0.785014 0.721081 0.198530
H15   H     H_    0.542152 0.740049 0.770261 0.153854
H16   H     H_    0.413343 0.798499 0.783827 0.195690
H17   H     H_    0.425477 0.390772 0.201830 0.129780
H18   H     H_    0.454675 0.298114 0.249006 0.174035
H19   H     H_    0.522118 0.292258 0.189193 0.200445
H20   H     H_    0.870800 0.549169 0.860381 0.155032
H21   H     H_    0.920075 0.642710 0.907322 0.156593
H22   H     H_    0.961053 0.662089 0.844053 0.196351
H23   H     H_    0.391358 0.280099 0.585660 0.348368
H24   H     H_    0.186072 0.492019 0.143834 0.139045
H25   H     H_    0.118703 0.543250 0.091778 0.174759
H26   H     H_    0.069537 0.571218 0.153125 0.211128
H27   H     H_    0.353284 0.723195 0.361249 0.337928
H28   H     H_    0.701753 0.351733 0.658063 0.353491
H29   H     H_    0.455207 0.800178 0.304252 0.347783
H30   H     H_    0.635481 0.297008 0.727623 0.353848
H31   H     H_    0.833021 0.692116 0.142540 0.352626
H32   H     H_    0.244633 0.345198 0.924066 0.355005
H33   H     H_    0.965960 0.650921 0.058065 0.212393
H34   H     H_    0.626491 0.822838 0.380689 0.373446
H35   H     H_    0.886799 0.765142 0.048503 0.137692
H36   H     H_    0.962812 0.705581 0.998766 0.189876
H37   H     H_    0.098996 0.432916 0.951859 0.186874
H38   H     H_    0.146537 0.570716 0.944977 0.141829
H39   H     H_    0.078788 0.523702 0.000851 0.202351
H40   H     H_    0.745095 0.798838 0.985717 0.327994
H41   H     H_    0.252833 0.697090 0.998930 0.331431
H42   H     H_    0.446148 0.191823 0.359623 0.206937
H43   H     H_    0.364106 0.217672 0.414403 0.162642
H44   H     H_    0.388190 0.083043 0.394964 0.166794
H45   H     H_    0.776763 0.954661 0.403954 0.142296
H46   H     H_    0.638732 0.777999 0.585277 0.163020
H47   H     H_    0.561461 0.805744 0.640933 0.192345
H48   H     H_    0.620331 0.913550 0.605081 0.180318
H49   H     H_    0.749101 0.076071 0.436904 0.148518
H50   H     H_    0.765821 0.074003 0.371291 0.208513
H51   H     H_    0.265577 0.902382 0.570525 0.148982
H52   H     H_    0.225928 0.030353 0.593604 0.152691
N1    N     N_R   0.528220 0.515184 0.801974 -0.312027
N2    N     N_R   0.511953 0.609327 0.204576 -0.307613
N3    N     N_R   0.207800 0.519340 0.508990 -0.178302
N4    N     N_R   0.792200 0.480660 0.491010 -0.182162
O1    O     O_R   0.421700 0.658820 0.502400 -0.561789
O2    O     O_2   0.317225 0.607737 0.208583 -0.506829
O3    O     O_2   0.706271 0.617544 0.204887 -0.497826
O4    O     O_2   0.352094 0.425855 0.810131 -0.448756
O5    O     O_3   0.381432 0.647470 0.656724 -0.686830
O6    O     O_3   0.586480 0.361847 0.328468 -0.691992
O7    O     O_3   0.386442 0.204619 0.593329 -0.696669
O8    O     O_3   0.615676 0.785328 0.412149 -0.742038
O9    O     O_3   0.616833 0.004828 0.398170 -0.567041
O10   O     O_3   0.390036 0.996461 0.604530 -0.523264
O11   O     O_3   0.189838 0.398989 0.442672 -0.541136
O12   O     O_R   0.578300 0.341180 0.497600 -0.538459
O13   O     O_3   0.816454 0.639140 0.536456 -0.533389
O14   O     O_3   0.238488 0.643064 0.572277 -0.707037
O15   O     O_3   0.757566 0.331066 0.441273 -0.694335
O16   O     O_3   0.992306 0.308081 0.432045 -0.726036
O17   O     O_3   0.005182 0.674381 0.577459 -0.700628
O18   O     O_3   0.395547 0.648286 0.755745 -0.555159
O19   O     O_3   0.581014 0.414728 0.232741 -0.527665
O20   O     O_3   0.799579 0.694168 0.862258 -0.537919
O21   O     O_3   0.216038 0.653484 0.131931 -0.545529
O22   O     O_3   0.408667 0.681547 0.376324 -0.737973
O23   O     O_R   0.609310 0.646410 0.496630 -0.608689
O24   O     O_3   0.633080 0.365804 0.641482 -0.722846
O25   O     O_3   0.445305 0.750184 0.276366 -0.714251
O26   O     O_3   0.632552 0.362451 0.747528 -0.716161
O27   O     O_3   0.819907 0.626299 0.123113 -0.718604
O28   O     O_3   0.269078 0.390257 0.895855 -0.696266
O29   O     O_3   0.820244 0.617936 0.021160 -0.602847
O30   O     O_3   0.239507 0.479809 0.990902 -0.613719
O31   O     O_3   0.778258 0.764285 0.956283 -0.731637
O32   O     O_3   0.228344 0.673218 0.032305 -0.759804
O33   O     O_3   0.524305 0.171231 0.423794 -0.546719
O34   O     O_R   0.390690 0.353590 0.503370 -0.619114
O35   O     O_3   0.479732 0.829273 0.578032 -0.571238
O36   O     O_R   0.406200 0.506190 0.574130 -0.583785
O37   O     O_R   0.593800 0.493810 0.425870 -0.574239
O38   O     O_R   0.593820 0.493770 0.568360 -0.556558
O39   O     O_R   0.406180 0.506230 0.431640 -0.583709
O40   O     O_2   0.707257 0.597294 0.790493 -0.495676
Zn1   Zn    Zn3+2 0.374730 0.508290 0.503850 1.050505
Zn2   Zn    Zn3+2 0.625270 0.491710 0.496150 1.071221

loop_
_geom_bond_atom_site_label_1
_geom_bond_atom_site_label_2
_ccdc_geom_bond_type
C64   H33   S    
C34   C56   A    
C52   O19   S    
C23   C45   A    
C66   H43   S    
C27   C29   A    
C41   O2    S    
C59   H7    S    
C3    C49   A    
C64   H35   S    
C13   O30   S    
C55   H49   S    
C68   O35   S    
C16   O38   A    
C1    C21   S    
C49   O5    S    
C64   O29   S    
C44   O26   S    
H34   O8    S    
C41   N2    A    
N3    Zn1   S    
H41   O32   S    
C24   C26   A    
C5    C11   A    
C65   O30   S    
N4    Zn2   S    
C4    C48   A    
C38   C39   A    
C35   O14   S    
C11   C14   A    
C63   H25   S    
C42   C70   A    
O12   Zn2   S    
O34   Zn1   S    
C3    C47   A    
C35   N3    A    
C61   O19   S    
C24   C29   A    
C32   O17   S    
C21   C25   A    
C61   H17   S    
C68   H48   S    
C57   H52   S    
C44   C53   A    
C61   H19   S    
C49   C51   A    
C22   C25   A    
C62   H22   S    
C45   C67   A    
C50   C52   A    
C31   C33   A    
C57   O10   S    
C1    O23   A    
C32   C38   A    
C17   O37   A    
H32   O28   S    
C65   H38   S    
C40   O40   S    
C44   C47   A    
C11   O29   S    
C2    C34   A    
C46   O25   S    
C21   C27   A    
O39   Zn1   S    
C37   O11   S    
C23   C70   A    
C46   C54   A    
O23   Zn2   S    
C59   H8    S    
C63   O21   S    
C66   O33   S    
C52   C54   A    
C42   N1    A    
C37   N3    A    
C55   H50   S    
C40   C45   A    
C46   C48   A    
C32   C35   A    
C43   O3    S    
C59   O13   S    
C53   N1    S    
C60   H16   S    
C20   C28   A    
C33   O15   S    
H31   O27   S    
C51   O18   S    
H29   O25   S    
C63   H26   S    
C15   O28   S    
C28   O33   S    
H30   O26   S    
C4    C50   A    
C51   C53   A    
C41   C56   A    
C5    C9    A    
C29   C30   A    
C61   H18   S    
C68   H47   S    
C63   H24   S    
C47   O24   S    
O38   Zn2   S    
C2    C43   A    
C62   H21   S    
C12   C20   S    
C67   O20   S    
C42   O4    S    
C12   O34   A    
C25   O8    S    
C65   H39   S    
C62   H20   S    
H40   O31   S    
C50   O6    S    
C68   H46   S    
C4    C17   S    
C58   O11   S    
C8    C10   A    
H11   O16   S    
C59   H6    S    
H10   O15   S    
C7    C19   A    
C13   C15   A    
C14   O27   S    
C9    C34   A    
C69   O21   S    
H27   O22   S    
C12   O12   A    
C19   C69   A    
H12   O6    S    
C58   H4    S    
H28   O24   S    
C7    C9    A    
C15   C70   A    
C54   N2    S    
C66   H44   S    
C19   O32   S    
C36   N4    A    
C1    O1    A    
C20   C26   A    
C6    C10   A    
C5    C8    A    
C60   H15   S    
C64   H36   S    
C6    C7    A    
C10   C23   A    
H23   O7    S    
C22   O9    S    
C16   O36   A    
C31   O16   S    
C36   C38   A    
O37   Zn2   S    
C18   C67   A    
C37   C39   A    
C18   O31   S    
C22   C30   A    
C60   O18   S    
C6    C13   A    
H13   O17   S    
C60   H14   S    
C24   O10   S    
C55   H45   S    
C40   N1    A    
C55   O9    S    
C48   O22   S    
C28   C30   A    
C33   N4    A    
C31   C39   A    
H9    O14   S    
C57   H2    S    
C2    C14   A    
C36   O13   S    
C8    C18   A    
C57   H51   S    
O36   Zn1   S    
H1    O5    S    
O1    Zn1   S    
C56   C69   A    
C62   O20   S    
C26   O7    S    
C17   O39   A    
C66   H42   S    
C43   N2    A    
C65   H37   S    
C27   O35   S    
C3    C16   S    
C58   H3    S    
C58   H5    S    
