data_mof_unit_33404.cif
_audit_creation_date              2012-12-10T17:35:33-0500
_audit_creation_method            fapswitch 2.2
_symmetry_space_group_name_H-M    P1
_symmetry_Int_Tables_number       1
_space_group_crystal_system       triclinic
_cell_length_a                    10.714222
_cell_length_b                    12.317887
_cell_length_c                    13.153491
_cell_angle_alpha                 116.61918
_cell_angle_beta                  77.601075
_cell_angle_gamma                 101.333489
_cell_volume                      1505.71561834

loop_
_atom_site_label
_atom_site_type_symbol
_atom_type_description
_atom_site_fract_x
_atom_site_fract_y
_atom_site_fract_z
_atom_type_partial_charge
C1    C     C_R   0.513016 0.854838 0.286449 0.781009
C2    C     C_3   0.123025 0.995530 0.492587 0.122709
C3    C     C_3   0.067523 0.099379 0.605456 -0.423196
C4    C     C_3   0.045830 0.872854 0.488263 -0.369660
C5    C     C_R   0.320407 0.278337 0.019390 -0.199108
C6    C     C_R   0.453364 0.227928 0.834664 -0.051763
C7    C     C_R   0.609132 0.813326 0.086697 -0.202731
C8    C     C_R   0.637180 0.733799 0.972098 -0.162881
C9    C     C_R   0.587697 0.611275 0.933614 -0.192933
C10   C     C_R   0.504554 0.566195 0.009248 0.070690
C11   C     C_R   0.464231 0.650770 0.122804 0.091023
C12   C     C_R   0.740055 0.997996 0.497543 0.757389
C13   C     C_R   0.459160 0.440215 0.975712 0.073125
C14   C     C_R   0.365593 0.402528 0.051534 0.169339
C15   C     C_R   0.315907 0.489331 0.157375 -0.258659
C16   C     C_R   0.363034 0.611759 0.191925 -0.191046
C17   C     C_R   0.504759 0.350089 0.869179 -0.256614
C18   C     C_R   0.363488 0.191306 0.910917 -0.207123
C19   C     C_R   0.524998 0.772708 0.163436 -0.076787
C20   C     C_R   0.705388 0.347180 0.328588 -0.307199
C21   C     C_R   0.326166 0.759616 0.646031 0.071507
C22   C     C_R   0.289211 0.663390 0.678419 -0.271371
C23   C     C_R   0.480796 0.145047 0.713488 0.798789
C24   C     C_R   0.354518 0.559930 0.623409 -0.199397
C25   C     C_R   0.458582 0.551535 0.534914 -0.003966
C26   C     C_R   0.493515 0.653051 0.505219 0.292539
C27   C     C_R   0.529640 0.447109 0.475306 -0.039235
C28   C     C_R   0.633861 0.447088 0.388220 0.183666
C29   C     C_R   0.666597 0.546827 0.361113 -0.292082
C30   C     C_R   0.598260 0.647277 0.418283 -0.193519
C31   C     C_R   0.502544 0.341876 0.497812 0.007578
C32   C     C_R   0.674043 0.247107 0.355118 0.061373
C33   C     C_R   0.260713 0.997592 0.495972 0.763417
C34   C     C_3   0.957869 0.013782 0.388716 -0.410917
C35   C     C_3   0.103470 0.018997 0.389369 -0.114355
C36   C     C_3   0.923690 0.100563 0.605764 -0.380192
C37   C     C_3   0.903069 0.871880 0.486363 -0.384018
C38   C     C_3   0.878272 0.995924 0.494739 0.147155
Cu1   Cu    Cu3+1 0.529690 0.098270 0.475420 0.919313
Cu2   Cu    Cu3+1 0.470310 0.901730 0.524580 0.912158
H1    H     H_    0.940056 0.100658 0.390324 0.161431
H2    H     H_    0.054257 0.861365 0.565760 0.173299
H3    H     H_    0.866106 0.089858 0.682604 0.156971
H4    H     H_    0.078993 0.086169 0.681211 0.161501
H5    H     H_    0.322467 0.096735 0.884941 0.144006
H6    H     H_    0.240273 0.462515 0.213927 0.141726
H7    H     H_    0.248944 0.249075 0.076868 0.129526
H8    H     H_    0.579357 0.372236 0.809859 0.144801
H9    H     H_    0.614386 0.555137 0.843633 0.130614
H10   H     H_    0.700847 0.766526 0.913225 0.138977
H11   H     H_    0.924813 0.939346 0.308960 0.150206
H12   H     H_    0.316394 0.675415 0.272338 0.172962
H13   H     H_    0.728807 0.169648 0.309401 0.116023
H14   H     H_    0.746503 0.547548 0.294831 0.145165
H15   H     H_    0.785172 0.346593 0.261903 0.131773
H16   H     H_    0.424793 0.333705 0.562086 0.122870
H17   H     H_    0.274970 0.839535 0.689295 0.119683
H18   H     H_    0.321872 0.488329 0.652056 0.131357
H19   H     H_    0.209712 0.669062 0.746506 0.139902
H20   H     H_    0.631902 0.718754 0.391344 0.203993
H21   H     H_    0.144060 0.115754 0.409184 0.129824
H22   H     H_    0.908522 0.190460 0.612314 0.167612
H23   H     H_    0.120952 0.189719 0.614583 0.160166
H24   H     H_    0.873511 0.795726 0.405922 0.148787
H25   H     H_    0.085557 0.793379 0.413268 0.157326
N1    N     N_R   0.574690 0.246280 0.438200 -0.178716
N2    N     N_R   0.426100 0.754320 0.561190 -0.204343
O1    O     O_R   0.537340 0.972510 0.318130 -0.578636
O2    O     O_R   0.487200 0.806530 0.359650 -0.604735
O3    O     O_R   0.707380 0.082980 0.479220 -0.586933
O4    O     O_R   0.657240 0.917000 0.520740 -0.603822
O5    O     O_R   0.512800 0.193470 0.640350 -0.583028
O6    O     O_R   0.462660 0.027490 0.681870 -0.584744
O7    O     O_R   0.342760 0.083000 0.479260 -0.594344
O8    O     O_R   0.292620 0.917020 0.520780 -0.598103
H26   H     H_    0.655232 0.906554 0.115747 0.144954
C39   C     C_R   0.172723 0.940223 0.271344 0.100625
C40   C     C_R   0.277882 0.994922 0.218695 -0.133514
C41   C     C_R   0.336507 0.927925 0.107055 -0.131522
C42   C     C_R   0.291811 0.805271 0.046493 -0.104089
C43   C     C_R   0.188724 0.749262 0.097692 -0.149259
C44   C     C_R   0.129118 0.816024 0.209060 -0.167168
H27   H     H_    0.313935 0.090179 0.263429 0.129741
H28   H     H_    0.416802 0.971218 0.067477 0.132825
H29   H     H_    0.337513 0.753445 0.960128 0.140125
H30   H     H_    0.154084 0.654152 0.050576 0.132823
H31   H     H_    0.046286 0.771137 0.244044 0.123372
H32   H     H_    0.845150 0.854288 0.559703 0.183965

loop_
_geom_bond_atom_site_label_1
_geom_bond_atom_site_label_2
_ccdc_geom_bond_type
C2    C35   S    
C31   N1    A    
Cu2   O4    S    
Cu1   O1    S    
C37   H32   S    
C17   H8    S    
C43   C44   A    
C7    C8    A    
C39   C40   A    
C5    H7    S    
C11   C19   A    
C34   H11   S    
C42   H29   S    
C26   N2    A    
C3    C36   S    
C28   C29   A    
C37   C38   S    
C4    H25   S    
C29   H14   S    
C44   H31   S    
C1    O1    A    
Cu2   O6    S    
C34   C35   S    
Cu1   O7    S    
C40   H27   S    
C33   O8    A    
C8    C9    A    
Cu2   N2    S    
C30   H20   S    
Cu1   O5    S    
C31   H16   S    
C9    C10   A    
C43   H30   S    
C21   C22   A    
C21   N2    A    
C34   H1    S    
C23   O6    A    
C20   H15   S    
C36   H22   S    
C6    C18   A    
C3    H4    S    
C1    C19   S    
Cu2   O2    S    
C27   C31   A    
C9    H9    S    
C24   C25   A    
Cu1   Cu2   S    
C40   C41   A    
C5    C18   A    
C20   C28   A    
C25   C26   A    
C35   C39   S    
C1    O2    A    
C2    C4    S    
C21   H17   S    
C29   C30   A    
C11   C16   A    
C35   H21   S    
C5    C14   A    
C2    C33   S    
C12   O4    A    
C26   C30   A    
C7    C19   A    
Cu1   N1    S    
C22   C24   A    
C18   H5    S    
C8    H10   S    
C32   H13   S    
C22   H19   S    
C37   H24   S    
C32   N1    A    
C20   C32   A    
C6    C17   A    
C12   O3    A    
C34   C38   S    
C23   O5    A    
C16   H12   S    
C42   C43   A    
C10   C13   A    
C7    H26   S    
C3    H23   S    
C25   C27   A    
Cu2   O8    S    
C13   C17   A    
C36   C38   S    
C2    C3    S    
C41   H28   S    
C4    H2    S    
C39   C44   A    
C6    C23   S    
Cu1   O3    S    
C12   C38   S    
C10   C11   A    
C41   C42   A    
C33   O7    A    
C4    C37   S    
C24   H18   S    
C27   C28   A    
C14   C15   A    
C36   H3    S    
C15   H6    S    
C13   C14   A    
C15   C16   A    
