data_mof_unit_17921.cif
_audit_creation_date              2012-12-10T16:57:49-0500
_audit_creation_method            fapswitch 2.2
_symmetry_space_group_name_H-M    P1
_symmetry_Int_Tables_number       1
_space_group_crystal_system       triclinic
_cell_length_a                    7.75573
_cell_length_b                    8.683222
_cell_length_c                    19.153749
_cell_angle_alpha                 93.194194
_cell_angle_beta                  84.506523
_cell_angle_gamma                 93.910441
_cell_volume                      1279.41780489

loop_
_atom_site_label
_atom_site_type_symbol
_atom_type_description
_atom_site_fract_x
_atom_site_fract_y
_atom_site_fract_z
_atom_type_partial_charge
C1    C     C_R   0.545270 0.794655 0.499009 0.939979
C2    C     C_R   0.563038 0.385212 0.174018 0.371095
C3    C     C_R   0.497421 0.485966 0.854754 -0.206667
C4    C     C_R   0.502613 0.514110 0.145247 -0.206663
C5    C     C_R   0.561497 0.362238 0.811865 0.135045
C6    C     C_R   0.438531 0.637826 0.188143 0.135046
C7    C     C_R   0.562354 0.366971 0.738960 0.322724
C8    C     C_R   0.437661 0.633067 0.261049 0.322724
C9    C     C_R   0.500731 0.495947 0.709963 -0.289072
C10   C     C_R   0.499275 0.504077 0.290037 -0.289067
C11   C     C_R   0.500715 0.514413 0.070040 0.407513
C12   C     C_R   0.454730 0.205344 0.500989 0.939972
C13   C     C_R   0.499322 0.485686 0.929962 0.407518
C14   C     C_2   0.568314 0.955202 0.491103 -0.029669
C15   C     C_2   0.431682 0.044797 0.508891 -0.029665
C16   C     C_R   0.500299 0.500219 0.634381 0.984410
C17   C     C_R   0.499702 0.499783 0.365619 0.984406
C18   C     C_R   0.440873 0.620941 0.753292 0.078357
C19   C     C_R   0.559139 0.379095 0.246701 0.078357
C20   C     C_R   0.436987 0.614850 0.825975 0.371099
Cl1   Cl    Cl    0.362566 0.771688 0.881413 -0.462871
Cl2   Cl    Cl    0.637460 0.228386 0.118571 -0.462875
Cl3   Cl    Cl    0.637676 0.210159 0.684022 -0.523110
Cl4   Cl    Cl    0.362339 0.789867 0.315995 -0.523129
H1    H     H_    0.014080 0.381410 0.446599 0.215339
H2    H     H_    0.985920 0.618590 0.553401 0.215339
I1    I     I_    0.372148 0.826233 0.710152 -0.106415
I2    I     I_    0.627856 0.173785 0.289829 -0.106410
I3    I     I_    0.652468 0.167018 0.857394 -0.008693
I4    I     I_    0.347566 0.833065 0.142626 -0.008718
I5    I     I_    0.821851 0.019096 0.439455 -0.142276
I6    I     I_    0.178134 0.980902 0.560531 -0.142276
N1    N     N_R   0.651346 0.511514 0.959243 -0.104459
N2    N     N_R   0.348692 0.488586 0.040759 -0.104462
N3    N     N_R   0.652138 0.524389 0.028549 -0.086714
N4    N     N_R   0.347900 0.475711 0.971453 -0.086716
N5    N     N_2   0.950330 0.457950 0.481240 -0.143983
N6    N     N_2   0.049670 0.542050 0.518760 -0.143983
O1    O     O_R   0.389250 0.738570 0.504600 -0.592618
O2    O     O_R   0.610750 0.261430 0.495400 -0.592623
O3    O     O_R   0.678400 0.711620 0.492580 -0.610910
O4    O     O_R   0.321600 0.288380 0.507420 -0.610908
O5    O     O_R   0.355380 0.513500 0.607880 -0.601058
O6    O     O_R   0.644620 0.486500 0.392120 -0.601059
O7    O     O_R   0.644530 0.486550 0.595850 -0.595782
O8    O     O_R   0.355470 0.513450 0.404150 -0.595781
Zn1   Zn    Zn3+2 0.306930 0.517990 0.508030 1.049854
Zn2   Zn    Zn3+2 0.693070 0.482010 0.491970 1.049852

loop_
_geom_bond_atom_site_label_1
_geom_bond_atom_site_label_2
_ccdc_geom_bond_type
C16   O7    A    
C2    Cl2   S    
C18   C20   A    
C2    C4    A    
C8    C10   A    
C12   O2    A    
N5    N6    D    
C5    C7    A    
C14   I5    S    
N2    N4    A    
C3    C13   S    
C12   C15   S    
C10   C19   A    
H1    N5    S    
C11   N3    A    
C17   O6    A    
C3    C20   A    
C17   O8    A    
C4    C11   S    
C13   N1    A    
C19   I2    S    
C16   O5    A    
N6    Zn1   S    
C7    Cl3   S    
C4    C6    A    
C6    I4    S    
C9    C16   S    
C5    I3    S    
O4    Zn1   S    
N1    N3    A    
C1    O1    A    
C10   C17   S    
C12   O4    A    
C9    C18   A    
C15   I6    S    
C20   Cl1   S    
C13   N4    A    
O1    Zn1   S    
O7    Zn2   S    
C1    O3    A    
C7    C9    A    
O2    Zn2   S    
C14   C15   D    
H2    N6    S    
C6    C8    A    
C1    C14   S    
N5    Zn2   S    
C8    Cl4   S    
C2    C19   A    
O8    Zn1   S    
O5    Zn1   S    
O3    Zn2   S    
C11   N2    A    
C18   I1    S    
O6    Zn2   S    
C3    C5    A    
