data_mof_unit_17908.cif
_audit_creation_date              2012-12-11T15:34:55-0500
_audit_creation_method            fapswitch 2.2
_symmetry_space_group_name_H-M    P1
_symmetry_Int_Tables_number       1
_space_group_crystal_system       triclinic
_cell_length_a                    30.632059
_cell_length_b                    7.244991
_cell_length_c                    25.853758
_cell_angle_alpha                 90.000251
_cell_angle_beta                  112.010723
_cell_angle_gamma                 90.000161
_cell_volume                      5319.49900856

loop_
_atom_site_label
_atom_site_type_symbol
_atom_type_description
_atom_site_fract_x
_atom_site_fract_y
_atom_site_fract_z
_atom_type_partial_charge
O1    O     O_R   0.295360 0.592990 0.320420 -0.536319
O2    O     O_R   0.704640 0.407010 0.679580 -0.536320
O3    O     O_R   0.204640 0.092990 0.179580 -0.536320
O4    O     O_R   0.795360 0.907010 0.820420 -0.536320
O5    O     O_R   0.294060 0.265620 0.213230 -0.544349
O6    O     O_R   0.705940 0.734380 0.786770 -0.544351
O7    O     O_R   0.205940 0.765620 0.286770 -0.544358
O8    O     O_R   0.794060 0.234380 0.713230 -0.544347
C1    C     C_R   0.304868 0.432563 0.200374 0.724027
C2    C     C_R   0.695132 0.567437 0.799626 0.724027
C3    C     C_R   0.195132 0.932563 0.299626 0.724029
C4    C     C_R   0.804867 0.067437 0.700374 0.724028
O9    O     O_R   0.300850 0.263360 0.322080 -0.538034
O10   O     O_R   0.699150 0.736640 0.677920 -0.538034
O11   O     O_R   0.199150 0.763360 0.177920 -0.538035
O12   O     O_R   0.800850 0.236640 0.822080 -0.538036
O13   O     O_R   0.211480 0.091820 0.289210 -0.504696
O14   O     O_R   0.788520 0.908180 0.710790 -0.504705
O15   O     O_R   0.288520 0.591820 0.210790 -0.504703
O16   O     O_R   0.711480 0.408180 0.789210 -0.504703
C5    C     C_R   0.313355 0.431447 0.343212 0.679404
C6    C     C_R   0.686645 0.568553 0.656788 0.679401
C7    C     C_R   0.186645 0.931446 0.156788 0.679398
C8    C     C_R   0.813355 0.068555 0.843212 0.679400
O17   O     O_3   0.220670 0.426670 0.239090 -0.369379
O18   O     O_3   0.779330 0.573330 0.760910 -0.369386
O19   O     O_3   0.279330 0.926670 0.260910 -0.369382
O20   O     O_3   0.720670 0.073330 0.739090 -0.369382
V1    V     V_3+5 0.255440 0.152290 0.252020 1.457229
V2    V     V_3+5 0.744560 0.847710 0.747980 1.457220
V3    V     V_3+5 0.244560 0.652290 0.247980 1.457215
V4    V     V_3+5 0.755440 0.347710 0.752020 1.457222
C9    C     C_R   0.850445 0.064401 0.899594 -0.042151
C10   C     C_R   0.149554 0.935600 0.100406 -0.042151
C11   C     C_R   0.649555 0.564392 0.600406 -0.042147
C12   C     C_R   0.350445 0.435608 0.399593 -0.042148
C13   C     C_R   0.874820 0.138823 0.997534 -0.154711
C14   C     C_R   0.125180 0.861183 0.002466 -0.154712
C15   C     C_R   0.625183 0.638751 0.502463 -0.154710
C16   C     C_R   0.374817 0.361248 0.497537 -0.154709
C17   C     C_R   0.839734 0.126150 0.944584 -0.157502
C18   C     C_R   0.160265 0.873853 0.055416 -0.157500
C19   C     C_R   0.660268 0.626098 0.555414 -0.157504
C20   C     C_R   0.339732 0.373902 0.444586 -0.157503
C21   C     C_R   0.897064 0.015422 0.907953 -0.219529
C22   C     C_R   0.102936 0.984579 0.092047 -0.219533
C23   C     C_R   0.602935 0.515438 0.592048 -0.219530
C24   C     C_R   0.397065 0.484562 0.407951 -0.219530
C25   C     C_R   0.933928 0.030574 0.961619 0.088279
C26   C     C_R   0.066071 0.969431 0.038381 0.088280
C27   C     C_R   0.566072 0.530566 0.538382 0.088281
C28   C     C_R   0.433928 0.469433 0.461618 0.088281
C29   C     C_R   0.921611 0.093405 0.006371 0.133728
C30   C     C_R   0.078389 0.906602 0.993629 0.133730
C31   C     C_R   0.578391 0.593354 0.493627 0.133729
C32   C     C_R   0.421608 0.406645 0.506373 0.133728
C33   C     C_R   0.982455 0.988838 0.972384 0.058472
C34   C     C_R   0.017544 0.011168 0.027616 0.058469
C35   C     C_R   0.517544 0.488847 0.527617 0.058471
C36   C     C_R   0.482456 0.511152 0.472383 0.058471
C37   C     C_R   0.002906 0.073883 0.070216 -0.188851
C38   C     C_R   0.997094 0.926127 0.929783 -0.188853
C39   C     C_R   0.497097 0.573823 0.429780 -0.188854
C40   C     C_R   0.502903 0.426175 0.570220 -0.188853
C41   C     C_R   0.956024 0.113368 0.059699 -0.193700
C42   C     C_R   0.043977 0.886642 0.940301 -0.193700
C43   C     C_R   0.543980 0.613292 0.440297 -0.193701
C44   C     C_R   0.456020 0.386706 0.559703 -0.193701
H1    H     H_    0.946632 0.161670 0.093864 0.131649
H2    H     H_    0.053369 0.838342 0.906135 0.131649
H3    H     H_    0.553374 0.661561 0.406130 0.131651
H4    H     H_    0.446626 0.338437 0.593870 0.131651
H5    H     H_    0.096625 0.028318 0.128452 0.093333
H6    H     H_    0.903375 0.971679 0.871549 0.093333
H7    H     H_    0.403378 0.528273 0.371546 0.093329
H8    H     H_    0.596622 0.471727 0.628454 0.093329
H9    H     H_    0.195922 0.833617 0.061467 0.118739
H10   H     H_    0.804078 0.166387 0.938533 0.118739
H11   H     H_    0.304074 0.333685 0.438536 0.118739
H12   H     H_    0.695926 0.666314 0.561464 0.118737
H13   H     H_    0.865440 0.187475 0.031655 0.125306
H14   H     H_    0.134560 0.812533 0.968345 0.125306
H15   H     H_    0.634565 0.687369 0.468340 0.125307
H16   H     H_    0.365434 0.312630 0.531660 0.125307
H17   H     H_    0.026928 0.094821 0.112541 0.121558
H18   H     H_    0.973072 0.905193 0.887459 0.121552
H19   H     H_    0.473076 0.594739 0.387454 0.121553
H20   H     H_    0.526924 0.405259 0.612545 0.121554
C45   C     C_R   0.091690 0.956120 0.479221 0.578126
C46   C     C_R   0.908306 0.043872 0.520775 0.578126
C47   C     C_R   0.408307 0.456136 0.020777 0.578125
C48   C     C_R   0.591692 0.543864 0.979223 0.578125
N1    N     N_R   0.071835 0.967334 0.422075 -0.545453
N2    N     N_R   0.928162 0.032659 0.577921 -0.545451
N3    N     N_R   0.428163 0.467339 0.077922 -0.545452
N4    N     N_R   0.571836 0.532661 0.922077 -0.545451
C49   C     C_R   0.024137 0.990606 0.395099 0.570409
C50   C     C_R   0.975860 0.009390 0.604897 0.570414
C51   C     C_R   0.475862 0.490599 0.104899 0.570414
C52   C     C_R   0.524138 0.509401 0.895100 0.570413
C53   C     C_R   0.994586 0.004481 0.425606 -0.027973
C54   C     C_R   0.005411 0.995512 0.574390 -0.027973
C55   C     C_R   0.505413 0.504475 0.074392 -0.027973
C56   C     C_R   0.494587 0.495526 0.925607 -0.027974
C57   C     C_R   0.014525 0.993168 0.484228 -0.016355
C58   C     C_R   0.985472 0.006825 0.515768 -0.016355
C59   C     C_R   0.485473 0.493172 0.015770 -0.016355
C60   C     C_R   0.514526 0.506828 0.984230 -0.016355
C61   C     C_R   0.063453 0.968325 0.511387 -0.032071
C62   C     C_R   0.936544 0.031667 0.488609 -0.032070
C63   C     C_R   0.436545 0.468341 0.988610 -0.032071
C64   C     C_R   0.563454 0.531660 0.011389 -0.032071
C65   C     C_R   0.945680 0.029215 0.398943 -0.143221
C66   C     C_R   0.054317 0.970779 0.601053 -0.143220
C67   C     C_R   0.554319 0.529197 0.101055 -0.143220
C68   C     C_R   0.445680 0.470804 0.898944 -0.143220
C69   C     C_R   0.917026 0.042642 0.430046 -0.141347
C70   C     C_R   0.082971 0.957351 0.569950 -0.141347
C71   C     C_R   0.582973 0.542624 0.069952 -0.141347
C72   C     C_R   0.417026 0.457377 0.930048 -0.141347
O21   O     O_2   0.138691 0.935411 0.504969 -0.522502
O22   O     O_2   0.861305 0.064578 0.495027 -0.522505
O23   O     O_2   0.361306 0.435439 0.995028 -0.522504
O24   O     O_2   0.638694 0.564562 0.004972 -0.522504
O25   O     O_2   0.005246 0.998951 0.338886 -0.532743
O26   O     O_2   0.994752 0.001049 0.661111 -0.532744
O27   O     O_2   0.494753 0.498931 0.161113 -0.532744
O28   O     O_2   0.505246 0.501068 0.838887 -0.532743
H21   H     H_    0.929349 0.038374 0.353924 0.169066
H22   H     H_    0.070648 0.961620 0.646073 0.169067
H23   H     H_    0.570650 0.538347 0.146075 0.169066
H24   H     H_    0.429349 0.461653 0.853925 0.169066
H25   H     H_    0.879518 0.061603 0.408007 0.170591
H26   H     H_    0.120479 0.938389 0.591989 0.170591
H27   H     H_    0.620481 0.561577 0.091992 0.170591
H28   H     H_    0.379518 0.438424 0.908008 0.170591
C73   C     C_R   0.894677 0.891168 0.641873 -0.192165
C74   C     C_R   0.105323 0.108835 0.358129 -0.192183
C75   C     C_R   0.605321 0.391169 0.858125 -0.192172
C76   C     C_R   0.394679 0.608830 0.141875 -0.192170
H29   H     H_    0.914216 0.766331 0.642154 0.135593
H30   H     H_    0.085788 0.233677 0.357853 0.135563
H31   H     H_    0.585782 0.266332 0.857844 0.135583
H32   H     H_    0.414219 0.733667 0.142157 0.135586
C77   C     C_R   0.865807 0.898956 0.673283 0.377086
C78   C     C_R   0.134195 0.101051 0.326720 0.377096
C79   C     C_R   0.634192 0.398956 0.826716 0.377089
C80   C     C_R   0.365808 0.601043 0.173284 0.377088
C81   C     C_R   0.838232 0.058320 0.670710 -0.147182
C82   C     C_R   0.161767 0.941680 0.329289 -0.147163
C83   C     C_R   0.661767 0.558320 0.829289 -0.147174
C84   C     C_R   0.338232 0.441680 0.170710 -0.147176
C85   C     C_R   0.842887 0.210893 0.639393 -0.258847
C86   C     C_R   0.157108 0.789099 0.360601 -0.258869
C87   C     C_R   0.657113 0.710894 0.860607 -0.258849
C88   C     C_R   0.342887 0.289107 0.139392 -0.258847
H33   H     H_    0.822860 0.335861 0.637193 0.174240
H34   H     H_    0.177132 0.664126 0.362797 0.174250
H35   H     H_    0.677140 0.835862 0.862807 0.174239
H36   H     H_    0.322859 0.164139 0.137192 0.174237
C89   C     C_R   0.872665 0.203211 0.609535 -0.091228
C90   C     C_R   0.127329 0.796779 0.390457 -0.091237
C91   C     C_R   0.627334 0.703213 0.890464 -0.091232
C92   C     C_R   0.372665 0.296788 0.109535 -0.091231
H37   H     H_    0.875439 0.322054 0.585549 0.142352
H38   H     H_    0.124552 0.677930 0.414440 0.142346
H39   H     H_    0.624560 0.822056 0.914450 0.142350
H40   H     H_    0.375438 0.177946 0.085548 0.142351
C93   C     C_R   0.898394 0.042693 0.610029 0.326729
C94   C     C_R   0.101603 0.957303 0.389967 0.326751
C95   C     C_R   0.601604 0.542694 0.889969 0.326737
C96   C     C_R   0.398395 0.457306 0.110030 0.326734
O29   O     O_3   0.863334 0.748378 0.705027 -0.544973
C97   C     C_3   0.905516 0.737348 0.752593 0.086570
H41   H     H_    0.914582 0.872621 0.774716 0.094576
H42   H     H_    0.935127 0.691597 0.740634 0.137865
C98   C     C_3   0.899555 0.596594 0.793116 -0.660236
H43   H     H_    0.889097 0.460777 0.772151 0.221186
H44   H     H_    0.933276 0.580456 0.829369 0.163658
H45   H     H_    0.872155 0.644187 0.808509 0.225775
O30   O     O_3   0.136675 0.251639 0.294982 -0.544978
C99   C     C_3   0.094483 0.262779 0.247433 0.086525
H46   H     H_    0.064895 0.308670 0.259412 0.137871
H47   H     H_    0.085378 0.127518 0.225309 0.094622
C100  C     C_3   0.100459 0.403454 0.206898 -0.660221
H48   H     H_    0.127837 0.355731 0.191488 0.225753
H49   H     H_    0.066734 0.419680 0.170657 0.163658
H50   H     H_    0.110954 0.539256 0.227860 0.221201
O31   O     O_3   0.636667 0.248377 0.794972 -0.544974
C101  C     C_3   0.594481 0.237314 0.747412 0.086555
H51   H     H_    0.585403 0.372586 0.725290 0.094590
H52   H     H_    0.564878 0.191512 0.759376 0.137867
C102  C     C_3   0.600447 0.096594 0.706882 -0.660230
H53   H     H_    0.610916 0.960778 0.727844 0.221188
H54   H     H_    0.566725 0.080433 0.670632 0.163662
H55   H     H_    0.627841 0.144233 0.691486 0.225769
O32   O     O_3   0.363334 0.751621 0.205029 -0.544974
C103  C     C_3   0.405518 0.762671 0.252591 0.086561
H56   H     H_    0.435124 0.808459 0.240628 0.137867
H57   H     H_    0.414593 0.627399 0.274712 0.094585
C104  C     C_3   0.399555 0.903400 0.293120 -0.660234
H58   H     H_    0.372158 0.855775 0.308514 0.225772
H59   H     H_    0.433276 0.919551 0.329371 0.163662
H60   H     H_    0.389089 0.039217 0.272157 0.221186

loop_
_geom_bond_atom_site_label_1
_geom_bond_atom_site_label_2
_ccdc_geom_bond_type
O17   V3    S    
C51   C55   A    
C25   C29   A    
C1    C84   S    
O1    C5    A    
C101  H51   S    
O19   V1    S    
C53   C65   A    
C104  H58   S    
C16   H16   S    
O3    C7    A    
C10   C18   A    
C48   N4    A    
O4    V2    S    
C11   C23   A    
C76   C80   A    
C104  H59   S    
C25   C33   A    
C33   C38   A    
C5    C12   S    
C67   H23   S    
O29   C97   S    
O7    C3    A    
C6    C11   S    
C38   H18   S    
C75   C79   A    
C35   C40   A    
C26   C30   A    
C65   H21   S    
C36   C39   A    
C40   C44   A    
C73   C77   A    
C79   O31   S    
C23   H8    S    
C14   C18   A    
C48   O24   S    
N2    C93   S    
C58   C62   A    
O4    C8    A    
N3    C51   A    
C80   O32   S    
C100  H49   S    
C43   H3    S    
C74   C94   A    
N2    C50   A    
C45   C61   A    
O1    V3    S    
O13   V1    S    
O2    V4    S    
C47   C63   A    
O3    V1    S    
C81   C85   A    
C97   H41   S    
C57   C61   A    
C28   C36   A    
C101  C102  S    
C69   H25   S    
C90   H38   S    
C28   C32   A    
C75   H31   S    
C1    O15   A    
C52   C56   A    
C15   C31   A    
C84   C88   A    
C2    O16   A    
C16   C32   A    
N4    C95   S    
C68   H24   S    
O2    C6    A    
C59   C60   A    
C75   C95   A    
C103  H56   S    
C10   C22   A    
C83   C87   A    
C11   C19   A    
N3    C96   S    
C73   C93   A    
C70   H26   S    
C44   H4    S    
C13   C29   A    
C98   H45   S    
C34   C37   A    
O11   C7    A    
O15   V3    S    
C35   C36   A    
O12   C8    A    
C47   O23   S    
C14   H14   S    
C13   C17   A    
C46   O22   S    
C24   H7    S    
C13   H13   S    
O32   C103  S    
O10   V2    S    
C62   C69   A    
C22   C26   A    
C61   C70   A    
C46   N2    A    
O5    V1    S    
C53   C57   A    
C39   C43   A    
N1    C94   S    
O7    V3    S    
C38   C42   A    
C87   H35   S    
O8    V4    S    
C76   H32   S    
C88   H36   S    
C49   O25   S    
C74   H30   S    
C17   H10   S    
O18   V4    S    
C48   C64   A    
C100  H50   S    
C15   C19   A    
C91   C95   A    
C87   C91   A    
C19   H12   S    
C50   C54   A    
C47   N3    A    
C45   N1    A    
C71   H27   S    
C68   C72   A    
C85   C89   A    
C21   H6    S    
C72   H28   S    
C99   C100  S    
C26   C34   A    
O30   C99   S    
C55   C67   A    
O5    C1    A    
C9    C21   A    
C54   C66   A    
C37   C41   A    
C2    C83   S    
C3    C82   S    
C31   C43   A    
C90   C94   A    
C24   C28   A    
C91   H39   S    
O8    C4    A    
C7    C10   S    
C103  C104  S    
C102  H54   S    
C21   C25   A    
O9    C5    A    
O11   V3    S    
C97   C98   S    
C66   C70   A    
C37   H17   S    
C51   O27   S    
C92   H40   S    
O6    V2    S    
C77   O29   S    
C102  H53   S    
C67   C71   A    
C89   H37   S    
O14   V2    S    
C104  H60   S    
C65   C69   A    
C92   C96   A    
C27   C35   A    
C46   C62   A    
N1    C49   A    
C56   C60   A    
C29   C41   A    
C55   C59   A    
O16   V4    S    
C50   O26   S    
O9    V1    S    
C73   H29   S    
C3    O13   A    
C101  H52   S    
C78   O30   S    
C39   H19   S    
C52   O28   S    
C59   C63   A    
C4    C81   S    
C86   C90   A    
C20   H11   S    
C80   C84   A    
O6    C2    A    
C64   C71   A    
C23   C27   A    
C78   C82   A    
C30   C42   A    
O12   V4    S    
C57   C58   A    
C66   H22   S    
C8    C9    S    
C14   C30   A    
C9    C17   A    
C56   C68   A    
O10   C6    A    
O20   V2    S    
C89   C93   A    
C32   C44   A    
C102  H55   S    
C100  H48   S    
C42   H2    S    
C45   O21   S    
C74   C78   A    
C41   H1    S    
C79   C83   A    
N4    C52   A    
C97   H42   S    
C98   H44   S    
C12   C24   A    
C27   C31   A    
C85   H33   S    
O31   C101  S    
C99   H47   S    
C12   C20   A    
C15   H15   S    
C60   C64   A    
C16   C20   A    
C88   C92   A    
C18   H9    S    
C76   C96   A    
C98   H43   S    
C82   C86   A    
C54   C58   A    
C4    O14   A    
C86   H34   S    
C77   C81   A    
C63   C72   A    
C103  H57   S    
C33   C34   A    
C40   H20   S    
C22   H5    S    
C49   C53   A    
C99   H46   S    
