data_mof_unit_38815.cif
_audit_creation_date              2012-12-11T16:56:16-0500
_audit_creation_method            fapswitch 2.2
_symmetry_space_group_name_H-M    P1
_symmetry_Int_Tables_number       1
_space_group_crystal_system       triclinic
_cell_length_a                    7.073383
_cell_length_b                    14.426735
_cell_length_c                    16.419169
_cell_angle_alpha                 90.582598
_cell_angle_beta                  91.232751
_cell_angle_gamma                 90.087082
_cell_volume                      1675.03067063

loop_
_atom_site_label
_atom_site_type_symbol
_atom_type_description
_atom_site_fract_x
_atom_site_fract_y
_atom_site_fract_z
_atom_type_partial_charge
O1    O     O_R   0.505830 0.583360 0.413880 -0.540816
O2    O     O_R   0.175830 0.595460 0.585520 -0.523695
O3    O     O_R   0.005520 0.416640 0.586120 -0.509050
C1    C     C_R   0.347020 0.620078 0.612245 0.734653
O4    O     O_R   0.176120 0.594390 0.414490 -0.533440
O5    O     O_R   0.005810 0.415570 0.413870 -0.506458
C2    C     C_R   0.343538 0.614829 0.384965 0.729491
O6    O     O_R   0.505540 0.584430 0.586130 -0.565640
O7    O     O_3   0.339200 0.441330 0.500000 -0.327808
V1    V     V_3+5 0.064350 0.510880 0.500000 1.633783
O8    O     O_R   0.676100 0.404540 0.414480 -0.519588
C3    C     C_R   0.843974 0.379959 0.388194 0.799102
O9    O     O_R   0.675810 0.405610 0.585510 -0.521656
C4    C     C_R   0.845692 0.382725 0.612106 0.672994
V2    V     V_3+5 0.564340 0.489120 0.500000 1.638013
O10   O     O_3   0.839360 0.558670 0.500000 -0.406837
C5    C     C_2   0.729959 0.211071 0.784764 0.489695
C6    C     C_2   0.884142 0.192869 0.832594 0.177402
C7    C     C_2   0.720984 0.288606 0.725388 0.437844
C8    C     C_2   0.861326 0.308348 0.673436 0.340799
C9    C     C_R   0.730086 0.244568 0.191607 -0.279695
C10   C     C_R   0.883946 0.183705 0.185115 -0.251601
C11   C     C_R   0.021288 0.186081 0.248574 0.606654
C12   C     C_R   0.006867 0.249015 0.314654 0.619673
C13   C     C_R   0.853931 0.311264 0.319893 -0.237555
C14   C     C_R   0.715968 0.307903 0.257253 -0.345218
C15   C     C_3   0.510036 0.285660 0.265930 0.966472
C16   C     C_3   0.526253 0.217876 0.194539 1.079356
C17   C     C_R   0.521276 0.695130 0.732596 -0.249914
C18   C     C_R   0.365351 0.693239 0.678107 -0.236568
C19   C     C_R   0.233249 0.765791 0.686804 0.438431
C20   C     C_R   0.236119 0.823400 0.757368 0.614966
C21   C     C_R   0.375762 0.813310 0.819409 -0.279975
C22   C     C_R   0.522750 0.751407 0.803521 -0.218546
C23   C     C_3   0.729120 0.773521 0.798120 0.965445
C24   C     C_3   0.726004 0.722332 0.715862 0.725871
C25   C     C_R   0.516277 0.690244 0.270257 -0.199301
C26   C     C_R   0.351760 0.678452 0.313166 -0.196327
C27   C     C_R   0.193146 0.705923 0.268117 0.505060
C28   C     C_R   0.211348 0.782947 0.215012 0.572033
C29   C     C_R   0.379782 0.799532 0.174948 -0.191513
C30   C     C_R   0.527158 0.739887 0.197663 -0.255819
C31   C     C_3   0.729148 0.759440 0.214541 0.923444
C32   C     C_3   0.710419 0.710722 0.297776 0.756149
O11   O     O_R   0.229930 0.912420 0.917160 -0.512848
O12   O     O_R   0.559420 0.902500 0.088780 -0.532842
O13   O     O_R   0.729660 0.081330 0.089380 -0.509170
C33   C     C_R   0.391818 0.877296 0.114586 0.823885
O14   O     O_R   0.559650 0.901420 0.917750 -0.544327
O15   O     O_R   0.729880 0.080250 0.917130 -0.537182
C34   C     C_R   0.389439 0.879944 0.889201 0.748525
O16   O     O_R   0.229700 0.913500 0.089410 -0.518876
O17   O     O_3   0.396250 0.055540 0.003280 -0.348377
V3    V     V_3+5 0.671130 0.986010 0.003260 1.660030
O18   O     O_R   0.059600 0.091310 0.917720 -0.509613
C35   C     C_R   0.889943 0.115086 0.891725 0.689704
O19   O     O_R   0.059370 0.092380 0.088750 -0.509196
C36   C     C_R   0.891868 0.113915 0.117519 0.850110
V4    V     V_3+5 0.171120 0.007820 0.003230 1.750512
O20   O     O_3   0.896130 0.938240 0.003240 -0.400228
F1    F     F_    0.566846 0.162966 0.794987 -0.640744
F2    F     F_    0.504137 0.126080 0.216440 -0.575301
O21   O     O_3   0.112922 0.788178 0.623052 -0.526510
C37   C     C_3   0.212382 0.839676 0.565056 -0.172214
H1    H     H_    0.110835 0.885528 0.532760 0.175452
H2    H     H_    0.273680 0.792117 0.519131 0.085996
H3    H     H_    0.324693 0.885532 0.592265 0.147699
F3    F     F_    0.124194 0.899404 0.758015 -0.635242
F4    F     F_    0.829758 0.726792 0.858123 -0.714022
O22   O     O_3   0.786329 0.869138 0.799570 -0.519710
C38   C     C_3   0.685465 0.933029 0.749554 -0.022182
H4    H     H_    0.633572 0.990632 0.787661 0.168905
H5    H     H_    0.562246 0.904719 0.715073 0.068143
H6    H     H_    0.784027 0.963329 0.705355 0.212700
O23   O     O_3   0.866763 0.651539 0.711093 -0.546472
C39   C     C_3   0.812726 0.566120 0.745231 -0.186603
H7    H     H_    0.936373 0.518952 0.744912 0.140537
H8    H     H_    0.697970 0.532821 0.708507 0.152302
H9    H     H_    0.768571 0.573550 0.809383 0.179979
O24   O     O_3   0.745921 0.789893 0.654921 -0.578140
C40   C     C_3   0.726928 0.756760 0.575365 -0.056600
H10   H     H_    0.579264 0.742721 0.557462 0.077668
H11   H     H_    0.824841 0.699404 0.564170 0.204624
H12   H     H_    0.767339 0.814816 0.537028 0.153266
F5    F     F_    0.110441 0.631089 0.233007 -0.677211
F6    F     F_    0.086588 0.852763 0.216210 -0.646702
F7    F     F_    0.758906 0.854293 0.219795 -0.619631
O25   O     O_3   0.044158 0.247935 0.827422 -0.494856
C41   C     C_3   0.042527 0.314217 0.891120 -0.125690
H13   H     H_    0.051716 0.280746 0.951856 0.111779
H14   H     H_    0.914860 0.359125 0.886743 0.079417
H15   H     H_    0.168238 0.359636 0.885749 0.194450
O26   O     O_3   0.847351 0.709324 0.161437 -0.571483
C42   C     C_3   0.843062 0.743862 0.082097 -0.062426
H16   H     H_    0.697858 0.745326 0.055102 0.099794
H17   H     H_    0.928491 0.697462 0.043216 0.154739
H18   H     H_    0.912005 0.811793 0.082878 0.210736
O27   O     O_3   0.703235 0.772754 0.365197 -0.568587
C43   C     C_3   0.885159 0.802910 0.389787 -0.142959
H19   H     H_    0.957276 0.749661 0.427515 0.117867
H20   H     H_    0.871636 0.868372 0.424874 0.160937
H21   H     H_    0.973139 0.822132 0.339116 0.204552
O28   O     O_3   0.823002 0.630391 0.314089 -0.539180
C44   C     C_3   0.773226 0.550012 0.267287 -0.064767
H22   H     H_    0.738943 0.563856 0.202454 0.140305
H23   H     H_    0.651527 0.514245 0.293864 0.114846
H24   H     H_    0.894849 0.501828 0.267829 0.175253
F8    F     F_    0.556483 0.337311 0.721548 -0.643187
F9    F     F_    0.020543 0.255580 0.672472 -0.595186
F10   F     F_    0.157137 0.120190 0.251625 -0.555917
F11   F     F_    0.132922 0.243172 0.377747 -0.563842
O29   O     O_3   0.382135 0.361741 0.258313 -0.561955
C45   C     C_3   0.398952 0.415123 0.186919 -0.307799
H25   H     H_    0.289811 0.392956 0.141209 0.211605
H26   H     H_    0.540836 0.413339 0.159369 0.133566
H27   H     H_    0.368560 0.488489 0.202527 0.200263
F12   F     F_    0.481778 0.239773 0.338335 -0.564496
F13   F     F_    0.426666 0.239392 0.123868 -0.728182

loop_
_geom_bond_atom_site_label_1
_geom_bond_atom_site_label_2
_ccdc_geom_bond_type
O18   C35   A    
O26   C42   S    
O18   V4    S    
C29   C30   A    
C7    C8    D    
C39   H9    S    
C1    O6    A    
C44   H23   S    
C40   H10   S    
O17   V4    S    
V3    O20   S    
O17   V3    S    
C17   C24   S    
C14   C15   S    
C17   C18   A    
C24   O23   S    
C39   H8    S    
O5    C3    A    
C18   C19   A    
O19   V4    S    
O11   C34   A    
V2    O10   S    
C22   C23   S    
C28   F6    S    
C25   C30   A    
O29   C45   S    
C5    F1    S    
C32   O27   S    
C2    C26   S    
C19   C20   A    
C23   O22   S    
O14   C34   A    
C11   C12   A    
O22   C38   S    
O1    V2    S    
C41   H14   S    
O7    V1    S    
C6    C35   S    
C20   F3    S    
C45   H27   S    
C7    F8    S    
V4    O20   S    
O9    C4    A    
C12   F11   S    
O8    V2    S    
O4    V1    S    
C44   H22   S    
C40   H11   S    
C32   O28   S    
C5    C6    D    
C15   F12   S    
O12   C33   A    
C37   H3    S    
C19   O21   S    
C39   H7    S    
C24   O24   S    
C27   C28   A    
C38   H5    S    
C5    C7    S    
C42   H18   S    
C13   C14   A    
C17   C22   A    
C6    O25   S    
C8    F9    S    
C23   C24   S    
C37   H2    S    
O2    C1    A    
O23   C39   S    
O5    V1    S    
C25   C26   A    
O16   V4    S    
C4    C8    S    
C43   H19   S    
O12   V3    S    
C21   C22   A    
O15   V3    S    
C12   C13   A    
C41   H15   S    
C42   H17   S    
O3    C4    A    
O13   V3    S    
C28   C29   A    
C43   H20   S    
C9    C16   S    
C15   O29   S    
O6    V2    S    
O9    V2    S    
C31   C32   S    
C30   C31   S    
C27   F5    S    
O2    V1    S    
O28   C44   S    
C40   H12   S    
O4    C2    A    
C45   H25   S    
C11   F10   S    
O11   V4    S    
O1    C2    A    
O24   C40   S    
C10   C36   S    
C38   H6    S    
O8    C3    A    
C21   C34   S    
C3    C13   S    
C31   F7    S    
C37   H1    S    
C25   C32   S    
O7    V2    S    
C38   H4    S    
O3    V1    S    
V1    O10   S    
C20   C21   A    
O13   C36   A    
O19   C36   A    
C26   C27   A    
C9    C14   A    
C31   O26   S    
C29   C33   S    
C42   H16   S    
O15   C35   A    
O21   C37   S    
C33   O16   A    
C43   H21   S    
O25   C41   S    
C23   F4    S    
O27   C43   S    
C15   C16   S    
C10   C11   A    
C16   F13   S    
C41   H13   S    
C9    C10   A    
C44   H24   S    
C1    C18   S    
O14   V3    S    
C45   H26   S    
C16   F2    S    
