data_mof_unit_62706.cif
_audit_creation_date              2013-03-05T15:54:51-0500
_audit_creation_method            fapswitch 2.2
_symmetry_space_group_name_H-M    P1
_symmetry_Int_Tables_number       1
_space_group_crystal_system       triclinic
_cell_length_a                    8.432193
_cell_length_b                    16.858665
_cell_length_c                    16.810794
_cell_angle_alpha                 110.206967
_cell_angle_beta                  95.5574
_cell_angle_gamma                 81.21645
_cell_volume                      2213.8525494

loop_
_atom_site_label
_atom_site_type_symbol
_atom_site_description
_atom_site_fract_x
_atom_site_fract_y
_atom_site_fract_z
_atom_type_partial_charge
P1    P     P_3+3 0.385820 0.698700 0.604730 0.475609
O1    O     O_2   0.554430 0.712240 0.583340 -0.335835
O2    O     O_3   0.337760 0.603960 0.562660 -0.451993
O3    O     O_3   0.813110 0.658990 0.426440 -0.398442
O4    O     O_2   0.664640 0.805550 0.523647 -0.345052
O5    O     O_3   0.427542 0.714534 0.712673 -0.566469
O6    O     O_3   0.699542 0.800401 0.370622 -0.551082
H1    H     H_    0.933149 0.770019 0.325693 0.016761
C1    C     C_3   0.765519 0.697985 0.234611 -0.805682
H2    H     H_    0.760471 0.647649 0.262347 0.267146
H3    H     H_    0.648592 0.709028 0.201258 0.265645
P2    P     P_3+3 0.884390 0.431600 0.301750 0.502407
P3    P     P_3+3 0.372571 0.609150 0.269324 0.425305
O7    O     O_2   0.703570 0.457750 0.294670 -0.354873
O8    O     O_3   0.412810 0.615240 0.376810 -0.397877
O9    O     O_2   0.518949 0.551899 0.221997 -0.390828
O10   O     O_3   0.913825 0.318940 0.268338 -0.613943
O11   O     O_3   0.389649 0.710314 0.266533 -0.527792
C2    C     C_3   0.318970 0.771794 0.338566 0.541776
H4    H     H_    0.393071 0.771882 0.396996 0.146984
H5    H     H_    0.196196 0.759479 0.344711 -0.020539
C3    C     C_3   0.307725 0.859996 0.331124 -1.040528
H6    H     H_    0.233622 0.906990 0.381897 0.231402
H7    H     H_    0.428840 0.880087 0.337937 0.283240
C4    C     C_3   0.378811 0.203852 0.240132 0.220031
H8    H     H_    0.488638 0.163209 0.251790 0.058474
H9    H     H_    0.273964 0.182752 0.259102 -0.004655
C5    C     C_3   0.357738 0.190956 0.144294 0.525220
H10   H     H_    0.227509 0.190641 0.126015 0.016424
Ba1   Ba    Ba6+2 0.642070 0.542310 0.469620 1.553242
C6    C     C_3   0.287062 0.740672 0.757831 0.273042
H11   H     H_    0.250633 0.684174 0.767044 0.131352
H12   H     H_    0.186704 0.770315 0.725767 0.024464
C7    C     C_3   0.322215 0.806182 0.844496 0.164946
H13   H     H_    0.215045 0.823168 0.883977 0.015151
H14   H     H_    0.342160 0.865613 0.834424 0.095014
C8    C     C_3   0.802999 0.278674 0.203553 1.175138
H15   H     H_    0.702724 0.324207 0.191297 0.105656
C9    C     C_3   0.884494 0.234318 0.118437 -1.122716
H16   H     H_    0.956498 0.277365 0.104834 0.254917
H17   H     H_    0.791796 0.214947 0.066261 0.264134
H18   H     H_    0.967777 0.176945 0.118166 0.225892
P4    P     P_3+3 0.424480 0.301290 0.395200 0.489973
O12   O     O_2   0.255890 0.287710 0.416620 -0.338890
O13   O     O_3   0.472550 0.396030 0.437270 -0.435443
O14   O     O_3   0.997190 0.341000 0.573500 -0.395840
O15   O     O_3   0.390197 0.290063 0.287596 -0.520653
P5    P     P_3+3 0.429013 0.413390 0.737718 0.396354
O16   O     O_3   0.856110 0.544300 0.605450 -0.403093
O17   O     O_3   0.397490 0.384750 0.623120 -0.386517
O18   O     O_2   0.268358 0.458765 0.776755 -0.371218
O19   O     O_3   0.438234 0.322336 0.766180 -0.605073
Ba2   Ba    Ba6+2 0.168110 0.457680 0.530320 1.531179
P6    P     P_3+3 0.791488 0.770085 0.455673 0.440150
C10   C     C_3   0.805401 0.779877 0.304367 0.655531
H19   H     H_    0.859784 0.674963 0.187498 0.190526
O20   O     O_3   0.954190 0.455690 0.394480 -0.378901
C11   C     C_3   0.815458 0.745431 0.720524 0.314236
H20   H     H_    0.817010 0.750798 0.656681 0.146637
H21   H     H_    0.708003 0.716735 0.723600 0.129917
C12   C     C_3   0.805619 0.834081 0.790322 -0.479636
H22   H     H_    0.909046 0.837519 0.837259 0.203905
H23   H     H_    0.696066 0.843380 0.826055 0.195397
P7    P     P_3+3 0.927252 0.589088 0.711259 0.462862
O21   O     O_2   0.106750 0.542200 0.705290 -0.308660
O22   O     O_3   0.957543 0.695332 0.733274 -0.606162
H24   H     H_    0.252343 0.859921 0.268562 0.253298
C13   C     C_3   0.588629 0.272484 0.752289 0.628884
H25   H     H_    0.683541 0.309485 0.748852 0.116090
C14   C     C_3   0.631685 0.243765 0.829693 -0.936295
H26   H     H_    0.549487 0.199009 0.831929 0.230285
H27   H     H_    0.757988 0.213257 0.828954 0.282725
H28   H     H_    0.618527 0.299774 0.888459 0.226104
P8    P     P_3+3 0.022414 0.227981 0.537254 0.451931
C15   C     C_3   0.104369 0.244921 0.695985 1.000511
O23   O     O_2   0.172262 0.193938 0.483617 -0.403358
O24   O     O_3   0.067615 0.183602 0.618424 -0.613636
H29   H     H_    0.192076 0.283318 0.686315 0.025138
C16   C     C_3   0.178554 0.197027 0.756603 0.130069
H30   H     H_    0.237632 0.241380 0.813001 0.054344
H31   H     H_    0.273449 0.146312 0.724291 0.028571
C17   C     C_2   0.739412 0.236887 0.447120 -0.440479
C18   C     C_R   0.095278 0.754683 0.531427 -0.581789
C19   C     C_2   0.534833 0.140142 0.405422 -0.302249
C20   C     C_2   0.573299 0.218598 0.419366 0.282020
C21   C     C_2   0.846483 0.183013 0.474481 0.227226
C22   C     C_3   0.795200 0.101179 0.478209 0.025899
C23   C     C_3   0.661140 0.068685 0.411520 -0.042369
C24   C     C_2   0.927981 0.030351 0.483216 -0.161784
C25   C     C_2   0.893242 0.958682 0.493565 -0.168790
C26   C     C_R   0.160721 0.918165 0.557329 -0.127685
C27   C     C_R   0.015224 0.893891 0.515013 -0.052123
C28   C     C_R   0.273412 0.862514 0.587981 0.490902
C29   C     C_R   0.242023 0.778437 0.571190 0.146524
C30   C     C_R   0.981913 0.810744 0.503442 0.178694
H32   H     H_    0.415362 0.124839 0.381107 0.164233
H33   H     H_    0.772710 0.296744 0.447951 0.178292
H34   H     H_    0.066558 0.692492 0.525346 0.198786
H35   H     H_    0.052522 0.040468 0.485225 0.184222
H36   H     H_    0.768055 0.949022 0.489345 0.176267
C31   C     C_R   0.082322 0.541300 0.270081 -0.242463
C32   C     C_R   0.965576 0.486438 0.235182 0.113558
C33   C     C_R   0.910693 0.472267 0.149768 0.403258
C34   C     C_R   0.985198 0.508141 0.098675 -0.055371
C35   C     C_R   0.127503 0.547674 0.131981 -0.044555
C36   C     C_R   0.177139 0.564484 0.219001 0.152846
C37   C     C_R   0.846339 0.578934 0.869771 0.499958
C38   C     C_R   0.797024 0.565917 0.784184 0.009499
C39   C     C_R   0.768894 0.543752 0.918440 0.003365
N1    N     N_2   0.930620 0.496759 0.012121 -0.055160
N2    N     N_2   0.823986 0.554760 0.004585 -0.056044
C40   C     C_R   0.652999 0.528715 0.751832 -0.233538
C41   C     C_R   0.582218 0.487666 0.796143 0.267093
C42   C     C_R   0.635357 0.499054 0.881078 -0.452705
H37   H     H_    0.574177 0.471712 0.916768 0.167424
O25   O     O_3   0.423653 0.255085 0.126007 -0.570583
C43   C     C_3   0.301340 0.319968 0.118783 -0.180670
H38   H     H_    0.220950 0.342902 0.173079 0.125234
H39   H     H_    0.230036 0.297167 0.057948 0.117696
H40   H     H_    0.357186 0.375370 0.119101 0.143065
C44   C     C_3   0.441949 0.102868 0.092410 -0.396385
C45   C     C_3   0.400800 0.081225 0.997565 -0.916476
H41   H     H_    0.269903 0.077795 0.984885 0.238559
H42   H     H_    0.435984 0.129982 0.974363 0.278527
H43   H     H_    0.466438 0.018239 0.962396 0.256304
H44   H     H_    0.574320 0.101255 0.103447 0.234539
H45   H     H_    0.404231 0.052857 0.113051 0.143912
O26   O     O_3   0.464115 0.777331 0.884211 -0.589730
C46   C     C_3   0.427077 0.733588 0.936519 -0.205788
H46   H     H_    0.540758 0.708535 0.963562 0.156131
H47   H     H_    0.362737 0.678248 0.899889 0.152612
H48   H     H_    0.355947 0.777572 0.990461 0.132338
O27   O     O_3   0.730369 0.220902 0.228490 -0.638012
C47   C     C_3   0.842329 0.155153 0.243366 -0.312312
H49   H     H_    0.954311 0.177941 0.278672 0.181279
H50   H     H_    0.870093 0.102714 0.182943 0.141177
H51   H     H_    0.785932 0.126531 0.281879 0.164816
C48   C     C_3   0.783905 0.855391 0.270896 -0.339419
C49   C     C_3   0.885108 0.840598 0.195454 -1.037480
H52   H     H_    0.010300 0.815072 0.207915 0.271838
H53   H     H_    0.833276 0.795227 0.137687 0.271589
H54   H     H_    0.885264 0.901677 0.184081 0.269908
H55   H     H_    0.655497 0.870321 0.252654 0.206139
H56   H     H_    0.819821 0.912060 0.322636 0.193223
C50   C     C_3   0.794420 0.908532 0.756312 -0.276427
C51   C     C_3   0.958000 0.924941 0.738937 -0.908732
H57   H     H_    0.038490 0.937720 0.797084 0.238781
H58   H     H_    0.012488 0.869018 0.688342 0.253257
H59   H     H_    0.943639 0.980912 0.717219 0.280375
H60   H     H_    0.717347 0.896077 0.697119 0.257556
H61   H     H_    0.738962 0.967361 0.804535 0.190428
C52   C     C_3   0.576448 0.197615 0.667786 -0.305552
C53   C     C_3   0.691138 0.116593 0.662518 -0.885530
H62   H     H_    0.817519 0.128353 0.664936 0.329663
H63   H     H_    0.673837 0.091771 0.713695 0.251500
H64   H     H_    0.663862 0.066237 0.602190 0.250244
H65   H     H_    0.452672 0.180444 0.655724 0.173072
H66   H     H_    0.599013 0.219392 0.615085 0.169551
O28   O     O_3   0.960840 0.295379 0.728396 -0.654847
C54   C     C_3   0.991667 0.370867 0.793934 -0.299078
H67   H     H_    0.983192 0.422244 0.766670 0.196961
H68   H     H_    0.109300 0.367636 0.829269 0.155977
H69   H     H_    0.899591 0.385760 0.841050 0.172240
O29   O     O_3   0.058200 0.159735 0.778990 -0.569738
C55   C     C_3   0.107455 0.141313 0.853872 -0.266845
H70   H     H_    0.226164 0.101188 0.847683 0.133362
H71   H     H_    0.018340 0.105294 0.866042 0.175175
H72   H     H_    0.111246 0.201049 0.909210 0.156507
O30   O     O_3   0.411928 0.888452 0.636036 -0.583518
C56   C     C_3   0.393456 0.977228 0.679389 -0.254817
H73   H     H_    0.278609 0.998908 0.712498 0.159541
H74   H     H_    0.401764 0.011872 0.634713 0.172156
H75   H     H_    0.490282 0.993447 0.729175 0.137168
O31   O     O_3   0.973228 0.624424 0.905287 -0.598850
C57   C     C_3   0.910662 0.711453 0.936565 -0.236638
H76   H     H_    0.834342 0.732250 0.888058 0.159832
H77   H     H_    0.011725 0.750274 0.956180 0.153265
H78   H     H_    0.838314 0.724759 0.992523 0.130504
C58   C     C_3   0.225841 0.569722 0.073627 -0.246518
C59   C     C_3   0.181057 0.662249 0.079279 -0.817307
H79   H     H_    0.232343 0.672687 0.026093 0.243567
H80   H     H_    0.048932 0.677804 0.075918 0.269457
H81   H     H_    0.228253 0.705829 0.139310 0.266409
H82   H     H_    0.356083 0.557446 0.088364 0.183548
H83   H     H_    0.206804 0.528395 0.006717 0.204885
O32   O     O_3   0.802044 0.413266 0.118032 -0.645907
C60   C     C_3   0.681087 0.433373 0.062350 -0.136174
H84   H     H_    0.721947 0.403930 0.996933 0.134859
H85   H     H_    0.641938 0.502909 0.079584 0.156107
H86   H     H_    0.574881 0.403242 0.064841 0.148366
C61   C     C_3   0.131004 0.561122 0.360215 -0.343281
C62   C     C_3   0.260069 0.489821 0.366418 -0.444569
H87   H     H_    0.211993 0.430019 0.356204 0.235418
H88   H     H_    0.352830 0.471632 0.318562 0.224167
H89   H     H_    0.317163 0.512874 0.429127 0.288367
H90   H     H_    0.156689 0.627367 0.386382 0.160358
H91   H     H_    0.038282 0.570914 0.403092 0.235045
C63   C     C_3   0.593062 0.514940 0.662251 -0.215471
C64   C     C_3   0.684756 0.430361 0.607997 -0.557438
H92   H     H_    0.804781 0.429884 0.637577 0.243567
H93   H     H_    0.656668 0.370018 0.611106 0.174670
H94   H     H_    0.689204 0.426157 0.541706 0.251426
H95   H     H_    0.461312 0.518301 0.654536 0.232663
H96   H     H_    0.607255 0.570238 0.644732 0.219934

loop_
_geom_bond_atom_site_label_1
_geom_bond_atom_site_label_2
_geom_bond_distance
_ccdc_geom_bond_type
C22   C23   1.534344 S    
C28   C29   1.408017 A    
O2    Ba2   2.902431 S    
O30   C56   1.411600 S    
Ba1   O13   2.901745 S    
C2    H4    1.111607 S    
O6    C10   1.410340 S    
C16   O29   1.413892 S    
O26   C46   1.409289 S    
C47   H51   1.106205 S    
C50   C51   1.521442 S    
C57   H77   1.109094 S    
C4    C5    1.545612 S    
C28   O30   1.391844 S    
C55   H70   1.111366 S    
C10   C48   1.541023 S    
P8    O23   1.542934 D    
P3    O11   1.750214 S    
C24   H35   1.084850 S    
C3    H7    1.107715 S    
O29   C55   1.408196 S    
C2    H5    1.107571 S    
O7    Ba1   2.850293 S    
C7    H13   1.115782 S    
C48   H55   1.111552 S    
C43   H39   1.111335 S    
C49   H54   1.110564 S    
C56   H73   1.112188 S    
C11   H21   1.103592 S    
Ba1   O20   2.974991 S    
C15   O24   1.397566 S    
O25   C43   1.413480 S    
O14   Ba2   2.920324 S    
P1    O1    1.567681 D    
C19   H32   1.084098 S    
C40   C63   1.491309 S    
C12   H23   1.112194 S    
C12   C50   1.536319 S    
O31   C57   1.411331 S    
C34   C35   1.433133 A    
C60   H86   1.105753 S    
C41   C42   1.410432 A    
C5    O25   1.420742 S    
C61   H90   1.097141 S    
O12   Ba2   2.873113 S    
P4    Ba2   3.443440 S    
P5    O18   1.536181 D    
C53   H62   1.107786 S    
C6    H11   1.107269 S    
C59   H80   1.105443 S    
P1    C29   1.867774 S    
P8    O24   1.756262 S    
P2    O10   1.769308 S    
C64   H94   1.095920 S    
C37   C38   1.408927 A    
C6    H12   1.106793 S    
C14   H26   1.111520 S    
C1    C10   1.530110 S    
C53   H63   1.108245 S    
Ba2   O21   2.850266 S    
C1    H2    1.107939 S    
C4    O15   1.408861 S    
C50   H60   1.108478 S    
O19   C13   1.401925 S    
C59   H81   1.102677 S    
C46   H48   1.112146 S    
P2    Ba1   3.454837 S    
C11   C12   1.544928 S    
P5    O17   1.820034 S    
O5    C6    1.399035 S    
O13   Ba2   2.992801 S    
C64   H92   1.083717 S    
C55   H71   1.109141 S    
O16   P7    1.760035 S    
C37   C39   1.415849 A    
C12   H22   1.112257 S    
C33   O32   1.389389 S    
C35   C58   1.513804 S    
H1    C10   1.108236 S    
C25   H36   1.084367 S    
C40   C41   1.399419 A    
C11   O22   1.400343 S    
P7    C38   1.893114 S    
C9    H18   1.104020 S    
C51   H58   1.101279 S    
Ba1   Ba2   4.752484 S    
C52   H66   1.111129 S    
O17   Ba2   2.775030 S    
C51   H57   1.110515 S    
C61   C62   1.518308 S    
P4    C20   1.855111 S    
C31   C32   1.400020 A    
C61   H91   1.070344 S    
O4    P6    1.541668 D    
C2    C3    1.522783 S    
C19   C20   1.345980 D    
C9    H17   1.110973 S    
C54   H69   1.102438 S    
C43   H40   1.106586 S    
C26   C27   1.400674 A    
C16   H31   1.104873 S    
Ba2   O20   2.763574 S    
C57   H78   1.109503 S    
O11   C2    1.407079 S    
C47   H50   1.109335 S    
C4    H8    1.108761 S    
C17   C21   1.345111 D    
C18   C29   1.394451 A    
C18   H34   1.080302 S    
C27   C30   1.415230 A    
N1    N2    1.255256 D    
P1    O2    1.605378 S    
P7    O22   1.753246 S    
O2    Ba1   2.991782 S    
P4    O12   1.567952 D    
C62   H89   1.081639 S    
P2    C32   1.905791 S    
C8    H15   1.106314 S    
C13   C52   1.547361 S    
C26   C28   1.419709 A    
C51   H59   1.110340 S    
P4    O13   1.605408 S    
C25   C27   1.496062 S    
O28   C54   1.406401 S    
P3    O8    1.776056 S    
C18   C30   1.404463 A    
C14   H28   1.106641 S    
C63   H95   1.100989 S    
P6    C30   1.843674 S    
C6    C7    1.528064 S    
C1    H19   1.106834 S    
O10   C8    1.416376 S    
P8    C21   1.837558 S    
C53   H64   1.105343 S    
C1    H3    1.109112 S    
C44   C45   1.524898 S    
C63   C64   1.537624 S    
C39   C42   1.423171 A    
O32   C60   1.400029 S    
P2    O20   1.548983 S    
C7    O26   1.416284 S    
Ba1   O16   2.764027 S    
P2    O7    1.526129 D    
C55   H72   1.112438 S    
C22   C24   1.526209 S    
C63   H96   1.095773 S    
O27   C47   1.417254 S    
C17   H33   1.083214 S    
C8    O27   1.418922 S    
C16   H30   1.112961 S    
C45   H42   1.110941 S    
O14   P8    1.773748 S    
C59   H79   1.106450 S    
O8    Ba1   2.774558 S    
C64   H93   1.098390 S    
C46   H46   1.108398 S    
C58   H82   1.106168 S    
C15   O28   1.406527 S    
C31   C36   1.410523 A    
C52   H65   1.106780 S    
C5    H10   1.111578 S    
P1    O5    1.748779 S    
O3    P6    1.749225 S    
C21   C22   1.530172 S    
C13   H25   1.104211 S    
C19   C23   1.506110 S    
P3    C36   1.915001 S    
C31   C61   1.465511 S    
C14   H27   1.108962 S    
C49   H52   1.106411 S    
C44   H45   1.112554 S    
C47   H49   1.111846 S    
C58   H83   1.110942 S    
C37   O31   1.378382 S    
C50   H61   1.111680 S    
C4    H9    1.113037 S    
C17   C20   1.476707 S    
C35   C36   1.423642 A    
O1    Ba1   2.872537 S    
C62   H87   1.096356 S    
C45   H43   1.110678 S    
C39   N2    1.434509 S    
C11   H20   1.109235 S    
C44   H44   1.111363 S    
C8    C9    1.540489 S    
C57   H76   1.108594 S    
C48   H56   1.106469 S    
C43   H38   1.112708 S    
C54   H67   1.101991 S    
C34   N1    1.438808 S    
C49   H53   1.107196 S    
C56   H74   1.111665 S    
O16   Ba2   2.974072 S    
P7    O21   1.592166 D    
P1    Ba1   3.442782 S    
C7    H14   1.111306 S    
C42   H37   1.078065 S    
C32   C33   1.414578 A    
C15   H29   1.111110 S    
C3    H24   1.108293 S    
C60   H85   1.110347 S    
P4    O15   1.752271 S    
C48   C49   1.524788 S    
C58   C59   1.519707 S    
C9    H16   1.106206 S    
C38   C40   1.425855 A    
P5    O19   1.747883 S    
C52   C53   1.529187 S    
C13   C14   1.532798 S    
P3    O9    1.543990 D    
C33   C34   1.441385 A    
C45   H41   1.110151 S    
C3    H6    1.109769 S    
C60   H84   1.103862 S    
C5    C44   1.540591 S    
O6    P6    1.753753 S    
C24   C25   1.356143 D    
C15   C16   1.540270 S    
O3    Ba1   2.920950 S    
C54   H68   1.109689 S    
P5    C41   1.897415 S    
C46   H47   1.112170 S    
C56   H75   1.104335 S    
C62   H88   1.109620 S    
