data_mof_unit_56942.cif
_audit_creation_date              2012-12-11T15:45:00-0500
_audit_creation_method            fapswitch 2.2
_symmetry_space_group_name_H-M    P1
_symmetry_Int_Tables_number       1
_space_group_crystal_system       triclinic
_cell_length_a                    19.201134
_cell_length_b                    11.068986
_cell_length_c                    18.775254
_cell_angle_alpha                 89.999449
_cell_angle_beta                  90.136008
_cell_angle_gamma                 90.000232
_cell_volume                      3990.42648282

loop_
_atom_site_label
_atom_site_type_symbol
_atom_type_description
_atom_site_fract_x
_atom_site_fract_y
_atom_site_fract_z
_atom_type_partial_charge
C1    C     C_R   0.759761 0.536403 0.647632 0.535043
C2    C     C_R   0.191671 0.041540 0.538630 -0.166793
C3    C     C_R   0.499370 0.947962 0.962070 0.071634
C4    C     C_R   0.011409 0.235345 0.960317 -0.184232
C5    C     C_R   0.009034 0.232587 0.034990 -0.185156
C6    C     C_R   0.490881 0.732552 0.965008 -0.185023
C7    C     C_R   0.488516 0.735371 0.039681 -0.184121
C8    C     C_3   0.945496 0.540766 0.045203 -0.274478
C9    C     C_3   0.947218 0.549281 0.965442 -0.237593
C10   C     C_3   0.553272 0.048927 0.034470 -0.237486
C11   C     C_3   0.555029 0.040305 0.954717 -0.274554
C12   C     C_R   0.759954 0.533942 0.850882 0.560813
C13   C     C_R   0.308329 0.541541 0.461370 -0.166790
C14   C     C_R   0.236330 0.522903 0.144543 0.565480
C15   C     C_R   0.263694 0.022838 0.855477 0.565427
C16   C     C_R   0.740046 0.033938 0.149117 0.560767
C17   C     C_R   0.774966 0.134178 0.855842 0.566936
C18   C     C_R   0.228209 0.124637 0.147930 0.549033
C19   C     C_R   0.271793 0.624659 0.852081 0.549052
C20   C     C_R   0.725037 0.634169 0.144160 0.566949
C21   C     C_R   0.970073 0.347502 0.853597 0.534701
C22   C     C_R   0.029866 0.346538 0.146653 0.541578
C23   C     C_R   0.470144 0.846525 0.853338 0.541721
C24   C     C_R   0.676009 0.586626 0.552215 -0.166142
C25   C     C_R   0.529933 0.847502 0.146397 0.534628
C26   C     C_R   0.758449 0.105219 0.416260 0.003163
C27   C     C_R   0.252287 0.076345 0.574028 0.011617
C28   C     C_R   0.247713 0.576345 0.425972 0.011623
C29   C     C_R   0.741553 0.605193 0.583719 0.003143
C30   C     C_R   0.707117 0.164444 0.455189 0.033537
C31   C     C_R   0.310221 0.111429 0.534125 0.044458
C32   C     C_R   0.189779 0.611428 0.465874 0.044454
C33   C     C_R   0.792877 0.664445 0.544793 0.033523
C34   C     C_R   0.718693 0.189461 0.527729 0.024020
C35   C     C_3   0.686140 0.291990 0.440729 -0.261443
C36   C     C_R   0.305067 0.119964 0.460266 0.008006
C37   C     C_R   0.194934 0.619964 0.539733 0.007999
C38   C     C_R   0.781291 0.689516 0.472264 0.024053
C39   C     C_3   0.346193 0.230368 0.539321 -0.278195
C40   C     C_3   0.153805 0.730366 0.460677 -0.278181
C41   C     C_3   0.813870 0.791958 0.559287 -0.261463
C42   C     C_3   0.699561 0.318248 0.517879 -0.252984
C43   C     C_3   0.339467 0.240319 0.459366 -0.265078
C44   C     C_3   0.160531 0.740317 0.540632 -0.265087
C45   C     C_R   0.238478 0.531932 0.354312 0.542470
C46   C     C_3   0.800435 0.818286 0.482153 -0.253021
C47   C     C_R   0.779758 0.151223 0.562055 0.001793
C48   C     C_R   0.243856 0.084992 0.425129 0.010954
C49   C     C_R   0.256145 0.584995 0.574870 0.010949
C50   C     C_R   0.720221 0.651300 0.437939 0.001810
C51   C     C_R   0.990256 0.331128 0.421007 -0.038635
C52   C     C_R   0.997859 0.342817 0.571516 -0.036702
C53   C     C_R   0.502140 0.842818 0.428483 -0.036701
C54   C     C_R   0.509744 0.831132 0.578993 -0.038633
C55   C     C_R   0.996951 0.108291 0.428631 -0.089178
C56   C     C_R   0.261522 0.031932 0.645688 0.542448
C57   C     C_R   0.019942 0.123416 0.574777 -0.095453
C58   C     C_R   0.480056 0.623418 0.425227 -0.095461
C59   C     C_R   0.503054 0.608295 0.571372 -0.089169
C60   C     C_R   0.005689 0.003464 0.468715 -0.160234
C61   C     C_R   0.018155 0.011368 0.541451 -0.153529
C62   C     C_R   0.481844 0.511370 0.458554 -0.153531
C63   C     C_R   0.494314 0.503467 0.531290 -0.160232
C64   C     C_R   0.005167 0.230140 0.536513 0.003887
C65   C     C_R   0.998052 0.223369 0.461289 0.019470
C66   C     C_R   0.501949 0.723372 0.538713 0.019481
C67   C     C_R   0.740240 0.036409 0.352361 0.535083
C68   C     C_R   0.494832 0.730143 0.463489 0.003884
C69   C     C_R   0.990997 0.449333 0.529117 0.023627
C70   C     C_R   0.973964 0.438439 0.456608 0.010675
C71   C     C_R   0.526033 0.938445 0.543390 0.010674
C72   C     C_R   0.509000 0.949336 0.470881 0.023626
C73   C     C_R   0.790891 0.169920 0.638593 0.559683
C74   C     C_R   0.226463 0.125623 0.353996 0.549800
C75   C     C_R   0.273538 0.625625 0.646004 0.549793
C76   C     C_R   0.709100 0.669944 0.361391 0.559773
C77   C     C_R   0.999627 0.567601 0.556395 -0.065491
C78   C     C_R   0.833567 0.104749 0.520431 -0.163513
C79   C     C_R   0.948219 0.539570 0.419136 -0.066731
C80   C     C_R   0.551773 0.039579 0.580861 -0.066733
C81   C     C_R   0.500371 0.067603 0.443601 -0.065486
C82   C     C_R   0.979341 0.668030 0.516824 -0.140079
C83   C     C_R   0.952292 0.653899 0.448769 -0.114639
C84   C     C_R   0.547696 0.153906 0.551228 -0.114646
C85   C     C_R   0.520656 0.168033 0.483170 -0.140066
C86   C     C_R   0.752154 0.081063 0.078443 0.020596
C87   C     C_R   0.261832 0.045694 0.931851 0.024102
C88   C     C_R   0.238207 0.545766 0.068172 0.024185
C89   C     C_R   0.188982 0.038436 0.465599 -0.156559
C90   C     C_R   0.747849 0.581096 0.921551 0.020693
C91   C     C_R   0.801777 0.019495 0.039061 0.019952
C92   C     C_R   0.211327 0.983555 0.970152 0.016027
C93   C     C_R   0.288534 0.483272 0.029807 0.015938
C94   C     C_R   0.698183 0.519611 0.960920 0.019932
C95   C     C_R   0.806605 0.036465 0.966748 0.058310
C96   C     C_R   0.204612 0.001255 0.042512 0.044879
C97   C     C_R   0.295232 0.500983 0.957442 0.044339
C98   C     C_R   0.693361 0.536545 0.033234 0.058333
C99   C     C_R   0.710828 0.176466 0.969970 -0.158216
C100  C     C_R   0.311019 0.538440 0.534401 -0.156558
C101  C     C_R   0.308778 0.121908 0.044134 -0.136118
C102  C     C_R   0.191326 0.622327 0.955952 -0.136049
C103  C     C_R   0.789235 0.676349 0.030051 -0.158278
C104  C     C_R   0.708604 0.165431 0.044703 0.029107
C105  C     C_R   0.313953 0.110076 0.969948 0.061679
C106  C     C_R   0.186203 0.610512 0.030141 0.061628
C107  C     C_R   0.791464 0.665339 0.955317 0.029072
C108  C     C_3   0.877908 0.034574 0.050502 -0.275452
C109  C     C_3   0.135113 0.992326 0.956787 -0.267514
C110  C     C_3   0.364795 0.491444 0.043096 -0.267203
C111  C     C_R   0.666424 0.604771 0.479557 -0.163487
C112  C     C_3   0.622057 0.534788 0.949485 -0.275547
C113  C     C_3   0.882563 0.062577 0.972632 -0.245689
C114  C     C_3   0.128542 0.023806 0.034056 -0.253036
C115  C     C_3   0.371367 0.523001 0.965836 -0.253115
C116  C     C_3   0.617406 0.562693 0.027370 -0.245668
C117  C     C_R   0.759012 0.107312 0.930063 -0.013111
C118  C     C_R   0.251111 0.074031 0.080211 -0.009061
C119  C     C_R   0.248859 0.574100 0.919804 -0.009169
C120  C     C_R   0.740989 0.607296 0.069939 -0.012981
C121  C     C_R   0.970920 0.346914 0.646090 0.521026
C122  C     C_R   0.823993 0.086654 0.447763 -0.166146
C123  C     C_R   0.026705 0.344520 0.351644 0.529331
C124  C     C_R   0.473295 0.844521 0.648356 0.529318
C125  C     C_R   0.529079 0.846913 0.353910 0.521036
C126  C     C_R   0.004360 0.339772 0.074229 0.012224
C127  C     C_R   0.000947 0.344615 0.924515 0.010919
C128  C     C_R   0.499112 0.844640 0.075451 0.010922
C129  C     C_R   0.495706 0.839697 0.925737 0.012184
C130  C     C_R   0.000911 0.448018 0.037855 0.071345
C131  C     C_R   0.000654 0.451404 0.964708 0.032292
C132  C     C_R   0.499610 0.951400 0.035218 0.032576
Cr1   Cr    Cr6+3 0.885860 0.491680 0.749630 1.038117
Cr2   Cr    Cr6+3 0.112430 0.179310 0.249850 1.011597
Cr3   Cr    Cr6+3 0.387570 0.679310 0.750150 1.011497
Cr4   Cr    Cr6+3 0.612430 0.679310 0.249850 1.017098
Cr5   Cr    Cr6+3 0.114140 0.491680 0.250370 1.056047
Cr6   Cr    Cr6+3 0.385860 0.991680 0.749630 1.056066
Cr7   Cr    Cr6+3 0.614140 0.991680 0.250370 1.038115
Cr8   Cr    Cr6+3 0.730490 0.332970 0.748720 1.003498
Cr9   Cr    Cr6+3 0.269510 0.332970 0.251280 1.008320
Cr10  Cr    Cr6+3 0.230490 0.832970 0.748720 1.008325
Cr11  Cr    Cr6+3 0.769510 0.832970 0.251280 1.003485
Cr12  Cr    Cr6+3 0.887570 0.179310 0.750150 1.017099
H1    H     H_    0.984845 0.756883 0.539058 0.090594
H2    H     H_    0.111827 0.903472 0.942858 0.166386
H3    H     H_    0.387866 0.402380 0.056953 0.166501
H4    H     H_    0.596376 0.448372 0.934506 0.156072
H5    H     H_    0.890461 0.159776 0.961635 0.153390
H6    H     H_    0.120166 0.121345 0.042181 0.157568
H7    H     H_    0.379946 0.620495 0.957772 0.157522
H8    H     H_    0.609506 0.659877 0.038414 0.153369
H9    H     H_    0.012110 0.151234 0.931093 0.128416
H10   H     H_    0.010507 0.146847 0.062395 0.131434
H11   H     H_    0.489363 0.646797 0.937622 0.131411
H12   H     H_    0.937653 0.731527 0.417356 0.101381
H13   H     H_    0.487734 0.651281 0.068926 0.128303
H14   H     H_    0.896064 0.502188 0.066031 0.134625
H15   H     H_    0.969816 0.635409 0.945876 0.185822
H16   H     H_    0.530825 0.135218 0.053978 0.186089
H17   H     H_    0.604391 0.001310 0.933944 0.134549
H18   H     H_    0.865276 0.044388 0.417930 0.139965
H19   H     H_    0.147766 0.007489 0.567799 0.148103
H20   H     H_    0.352234 0.507490 0.432201 0.148103
H21   H     H_    0.634730 0.544338 0.582041 0.139965
H22   H     H_    0.099339 0.721021 0.441696 0.154946
H23   H     H_    0.562327 0.231533 0.582644 0.101357
H24   H     H_    0.869388 0.800280 0.574822 0.145370
H25   H     H_    0.630625 0.300341 0.425181 0.145364
H26   H     H_    0.400658 0.221026 0.558303 0.154940
H27   H     H_    0.745278 0.378235 0.525825 0.148758
H28   H     H_    0.302373 0.311098 0.442539 0.178170
H29   H     H_    0.197624 0.811098 0.557458 0.178171
H30   H     H_    0.754725 0.878291 0.474241 0.148770
H31   H     H_    0.652184 0.343179 0.547778 0.142856
H32   H     H_    0.389688 0.239824 0.430504 0.124504
H33   H     H_    0.110311 0.739817 0.569493 0.124502
H34   H     H_    0.515154 0.256886 0.460932 0.090599
H35   H     H_    0.847809 0.843233 0.452252 0.142870
H36   H     H_    0.004400 0.916259 0.442854 0.102459
H37   H     H_    0.028660 0.931341 0.572480 0.100271
H38   H     H_    0.471339 0.431343 0.427527 0.100270
H39   H     H_    0.495606 0.416262 0.557151 0.102448
H40   H     H_    0.985021 0.097409 0.372705 0.131112
H41   H     H_    0.034246 0.125341 0.630491 0.135842
H42   H     H_    0.465751 0.625342 0.369513 0.135850
H43   H     H_    0.514988 0.597414 0.627298 0.131100
H44   H     H_    0.928597 0.530856 0.365212 0.131413
H45   H     H_    0.677736 0.242382 0.944041 0.159551
H46   H     H_    0.024047 0.584199 0.607401 0.136960
H47   H     H_    0.475952 0.084199 0.392593 0.136964
H48   H     H_    0.571395 0.030868 0.634787 0.131411
H49   H     H_    0.882214 0.078874 0.544610 0.165629
H50   H     H_    0.141136 0.007950 0.441293 0.163564
H51   H     H_    0.358865 0.507955 0.558707 0.163564
H52   H     H_    0.617782 0.578880 0.455375 0.165626
H53   H     H_    0.890369 0.112491 0.085665 0.138352
H54   H     H_    0.121399 0.067606 0.920249 0.140118
H55   H     H_    0.378750 0.566559 0.079662 0.140109
H56   H     H_    0.345586 0.179184 0.071968 0.151586
H57   H     H_    0.609626 0.612765 0.914358 0.138326
H58   H     H_    0.916999 0.000323 0.942858 0.177872
H59   H     H_    0.094350 0.963681 0.065331 0.181353
H60   H     H_    0.405388 0.462732 0.934466 0.181499
H61   H     H_    0.582974 0.500389 0.057117 0.177875
H62   H     H_    0.962660 0.624457 0.072341 0.182835
H63   H     H_    0.897561 0.519903 0.940848 0.182630
H64   H     H_    0.602852 0.019249 0.059124 0.182249
H65   H     H_    0.538100 0.124128 0.927529 0.182681
H66   H     H_    0.722622 0.340097 0.404500 0.155444
H67   H     H_    0.154622 0.679880 0.928174 0.151726
H68   H     H_    0.314785 0.297799 0.569021 0.137265
H69   H     H_    0.185212 0.797798 0.430976 0.137284
H70   H     H_    0.777402 0.840034 0.595539 0.155438
H71   H     H_    0.822368 0.742187 0.055995 0.159516
H72   H     H_    0.903558 0.948109 0.065442 0.156072
I1    I     I_    0.645397 0.281452 0.107169 -0.442916
I2    I     I_    0.395021 0.209094 0.921106 -0.454526
I3    I     I_    0.105488 0.710132 0.079134 -0.454456
I4    I     I_    0.854745 0.781311 0.892892 -0.443199
O1    O     O_R   0.957020 0.451640 0.669920 -0.520309
O2    O     O_R   0.168040 0.093290 0.169870 -0.510561
O3    O     O_R   0.331960 0.593290 0.830130 -0.510731
O4    O     O_R   0.668040 0.593290 0.169870 -0.485907
O5    O     O_R   0.945600 0.250580 0.824860 -0.513039
O6    O     O_R   0.054400 0.250580 0.175140 -0.517927
O7    O     O_R   0.445600 0.750580 0.824860 -0.517953
O8    O     O_R   0.554400 0.750580 0.175140 -0.513042
O9    O     O_3   0.834640 0.334650 0.749500 -0.279160
O10   O     O_3   0.165360 0.334650 0.250500 -0.258554
O11   O     O_3   0.334640 0.834650 0.749500 -0.258532
O12   O     O_R   0.042980 0.451640 0.330080 -0.513804
O13   O     O_3   0.665360 0.834650 0.250500 -0.279208
O14   O     O_R   0.821450 0.543440 0.674610 -0.483958
O15   O     O_R   0.178550 0.543440 0.325390 -0.488092
O16   O     O_R   0.321450 0.043440 0.674610 -0.488123
O17   O     O_R   0.678550 0.043440 0.325390 -0.483958
O18   O     O_R   0.715320 0.458650 0.668100 -0.544813
O19   O     O_R   0.284680 0.458650 0.331900 -0.542384
O20   O     O_R   0.215320 0.958650 0.668100 -0.542380
O21   O     O_R   0.784680 0.958650 0.331900 -0.544809
O22   O     O_R   0.737170 0.209590 0.674530 -0.496933
O23   O     O_R   0.457020 0.951640 0.669920 -0.513812
O24   O     O_R   0.262830 0.209590 0.325470 -0.506468
O25   O     O_R   0.237170 0.709590 0.674530 -0.506459
O26   O     O_R   0.762830 0.709590 0.325470 -0.496956
O27   O     O_R   0.832710 0.092740 0.669580 -0.513560
O28   O     O_R   0.167290 0.092740 0.330420 -0.523595
O29   O     O_R   0.332710 0.592740 0.669580 -0.523626
O30   O     O_R   0.667290 0.592740 0.330420 -0.513585
O31   O     O_R   0.946290 0.250060 0.676040 -0.521275
O32   O     O_R   0.053710 0.250060 0.323960 -0.509153
O33   O     O_R   0.446290 0.750060 0.676040 -0.509160
O34   O     O_R   0.542980 0.951640 0.330080 -0.520304
O35   O     O_R   0.553710 0.750060 0.323960 -0.521280
O36   O     O_R   0.956270 0.452200 0.830470 -0.511458
O37   O     O_R   0.043730 0.452200 0.169530 -0.490388
O38   O     O_R   0.456270 0.952200 0.830470 -0.490137
O39   O     O_R   0.543730 0.952200 0.169530 -0.511400
O40   O     O_R   0.820760 0.543950 0.823440 -0.477132
O41   O     O_R   0.179240 0.543950 0.176560 -0.463282
O42   O     O_R   0.320760 0.043950 0.823440 -0.463310
O43   O     O_R   0.679240 0.043950 0.176560 -0.477186
O44   O     O_R   0.714570 0.459210 0.828640 -0.525913
O45   O     O_R   0.736470 0.210100 0.823360 -0.508370
O46   O     O_R   0.285430 0.459210 0.171360 -0.526628
O47   O     O_R   0.214570 0.959210 0.828640 -0.526608
O48   O     O_R   0.785430 0.959210 0.171360 -0.525898
O49   O     O_R   0.263530 0.210100 0.176640 -0.508656
O50   O     O_R   0.236470 0.710100 0.823360 -0.508655
O51   O     O_R   0.763530 0.710100 0.176640 -0.508381
O52   O     O_R   0.831960 0.093290 0.830130 -0.485928

loop_
_geom_bond_atom_site_label_1
_geom_bond_atom_site_label_2
_ccdc_geom_bond_type
C58   C62   A    
Cr10  O47   S    
C66   C68   A    
C124  O33   A    
Cr6   O38   S    
Cr7   O43   S    
C58   H42   S    
C52   C121  S    
C51   C123  S    
Cr4   O35   S    
C69   C77   A    
C103  C120  A    
C34   C42   S    
C3    C11   S    
Cr2   O32   S    
C50   C76   S    
C80   C84   A    
C86   C104  A    
Cr10  O50   S    
C67   O21   A    
C101  H56   S    
C73   O27   A    
C95   C117  A    
Cr10  O20   S    
C76   O30   A    
Cr3   O7    S    
C30   C35   S    
C13   H20   S    
Cr11  O51   S    
C101  C118  A    
Cr2   O6    S    
C12   C90   S    
Cr6   O11   S    
Cr12  O52   S    
C25   C128  S    
C90   C107  A    
C39   H26   S    
C15   O47   A    
C86   C91   A    
Cr5   O12   S    
C59   C66   A    
C12   O44   A    
C98   C120  A    
C92   C109  S    
C121  O31   A    
C99   C117  A    
C9    H15   S    
C5    H10   S    
C41   H24   S    
C29   C33   A    
C11   H17   S    
C74   O28   A    
C23   C129  S    
Cr11  O48   S    
C51   C65   A    
C109  H2    S    
Cr2   O28   S    
C108  H53   S    
C125  O35   A    
C53   C68   A    
C10   H64   S    
C24   C29   A    
C81   H47   S    
C17   O45   A    
C52   C69   A    
C54   C66   A    
C16   O43   A    
Cr6   O16   S    
C84   C85   A    
Cr1   O40   S    
C73   O22   A    
Cr6   O42   S    
C23   O38   A    
C85   H34   S    
Cr2   O2    S    
C20   C120  S    
Cr7   O39   S    
C5    C126  A    
Cr7   O13   S    
Cr1   O1    S    
C55   H40   S    
C46   H30   S    
C13   C28   A    
C59   H43   S    
C2    C27   A    
C51   C70   A    
Cr9   O49   S    
C7    C128  A    
C21   C127  S    
C18   C118  S    
C40   H22   S    
C72   C81   A    
C75   O25   A    
C17   C117  S    
C93   C110  S    
C17   O52   A    
C74   O24   A    
C81   C85   A    
C32   C40   S    
C106  I3    S    
C70   C79   A    
C8    H14   S    
Cr8   O9    S    
Cr9   O19   S    
Cr3   O11   S    
C55   C60   A    
C115  H60   S    
C61   H37   S    
C16   C86   S    
C80   H48   S    
Cr4   O30   S    
C109  H54   S    
C69   C70   A    
C24   C111  A    
C112  H57   S    
Cr3   O29   S    
C6    C129  A    
C78   C122  A    
C10   H16   S    
C128  C132  A    
Cr1   O36   S    
C1    C29   S    
C71   C80   A    
C55   C65   A    
C56   O20   A    
C88   C106  A    
C90   C94   A    
C19   O50   A    
C10   C132  S    
C9    C131  S    
C22   O37   A    
C101  C105  A    
C3    C129  A    
C28   C45   S    
Cr9   O24   S    
C63   H39   S    
C79   H44   S    
C54   C71   A    
C27   C31   A    
C3    C132  A    
C48   C74   S    
Cr12  O9    S    
C28   C32   A    
C36   C48   A    
C19   O3    A    
C44   H29   S    
C47   C73   S    
C52   C64   A    
C99   H45   S    
C126  C130  A    
C30   C34   A    
C27   C56   S    
C8    C9    S    
C39   C43   S    
C83   H12   S    
C116  H8    S    
C121  O1    A    
Cr9   O10   S    
C32   C37   A    
C91   C95   A    
C67   O17   A    
Cr11  O26   S    
C112  H4    S    
C60   C61   A    
C78   H49   S    
C108  C113  S    
C97   C119  A    
C2    C89   A    
C45   O19   A    
C42   H27   S    
C62   C63   A    
C14   O41   A    
C113  H5    S    
C96   C114  S    
C62   H38   S    
C37   C49   A    
C43   H32   S    
C93   C97   A    
C98   C116  S    
Cr4   O4    S    
C77   H46   S    
C1    O14   A    
C41   C46   S    
Cr10  O25   S    
Cr4   O13   S    
Cr7   O34   S    
Cr8   O18   S    
C20   O4    A    
C6    H11   S    
C16   O48   A    
C113  H58   S    
Cr3   O33   S    
C124  O23   A    
C8    H62   S    
C4    C5    A    
C20   O51   A    
C49   C75   S    
C108  H72   S    
C53   C125  S    
C109  C114  S    
C87   C105  A    
C7    H13   S    
C38   C50   A    
Cr12  O31   S    
C26   C30   A    
C48   C89   A    
C8    C130  S    
C35   H25   S    
C102  H67   S    
Cr12  O5    S    
Cr12  O27   S    
Cr5   O15   S    
C114  H6    S    
C116  H61   S    
C115  H7    S    
C110  H3    S    
C103  H71   S    
C112  C116  S    
C82   H1    S    
C21   O5    A    
C57   C64   A    
C15   C87   S    
C100  H51   S    
C58   C68   A    
C54   C124  S    
C88   C93   A    
C123  O12   A    
C99   C104  A    
C4    C127  A    
C110  H55   S    
C31   C36   A    
C57   H41   S    
C91   C108  S    
C35   H66   S    
C76   O26   A    
C45   O15   A    
Cr5   O10   S    
Cr1   O9    S    
C2    H19   S    
C44   H33   S    
C23   O7    A    
C43   H28   S    
C92   C96   A    
C57   C61   A    
C6    C7    A    
C22   O6    A    
Cr5   O37   S    
C1    O18   A    
C60   H36   S    
Cr3   O3    S    
C97   C115  S    
C111  H52   S    
C25   O8    A    
C59   C63   A    
C33   C38   A    
C122  H18   S    
Cr11  O21   S    
C42   H31   S    
C33   C41   S    
Cr9   O46   S    
Cr11  O13   S    
C13   C100  A    
C24   H21   S    
C96   C118  A    
C14   C88   S    
C123  O32   A    
C84   H23   S    
C75   O29   A    
C46   H35   S    
C21   O36   A    
C79   C83   A    
C41   H70   S    
Cr10  O11   S    
C77   C82   A    
C95   C113  S    
C89   H50   S    
C64   C65   A    
C94   C112  S    
C50   C111  A    
C35   C42   S    
C31   C39   S    
C39   H68   S    
C4    H9    S    
Cr8   O22   S    
Cr1   O14   S    
Cr2   O10   S    
Cr4   O8    S    
C125  O34   A    
C18   O2    A    
C127  C131  A    
C104  I1    S    
C38   C46   S    
C26   C67   S    
C22   C126  S    
C10   C11   S    
C102  C119  A    
C19   C119  S    
C107  I4    S    
C25   O39   A    
C37   C44   S    
C12   O40   A    
C40   C44   S    
C71   C72   A    
Cr7   O17   S    
C105  I2    S    
Cr8   O44   S    
C102  C106  A    
C130  C131  A    
C15   O42   A    
C9    H63   S    
C94   C98   A    
Cr8   O45   S    
C56   O16   A    
C36   C43   S    
C103  C107  A    
C34   C47   A    
C26   C122  A    
C47   C78   A    
C82   C83   A    
C87   C92   A    
C53   C72   A    
C110  C115  S    
C114  H59   S    
C18   O49   A    
C11   H65   S    
Cr6   O23   S    
C14   O46   A    
C40   H69   S    
C49   C100  A    
Cr5   O41   S    
