data_mof_unit_22256.cif
_audit_creation_date              2013-03-05T15:55:21-0500
_audit_creation_method            fapswitch 2.2
_symmetry_space_group_name_H-M    P1
_symmetry_Int_Tables_number       1
_space_group_crystal_system       triclinic
_cell_length_a                    27.721552
_cell_length_b                    10.713075
_cell_length_c                    9.913955
_cell_angle_alpha                 88.078615
_cell_angle_beta                  90.366253
_cell_angle_gamma                 92.527757
_cell_volume                      2939.72254551

loop_
_atom_site_label
_atom_site_type_symbol
_atom_site_description
_atom_site_fract_x
_atom_site_fract_y
_atom_site_fract_z
_atom_type_partial_charge
O1    O     O_R   0.500000 0.316780 0.614690 -0.655066
O2    O     O_R   0.500000 0.316750 0.385360 -0.634133
C1    C     C_R   0.501179 0.259377 0.503410 0.872245
O3    O     O_R   0.428760 0.500030 0.614650 -0.649933
O4    O     O_R   0.428750 0.500010 0.385320 -0.638548
C2    C     C_R   0.406092 0.499338 0.499664 0.845615
Zn1   Zn    Zn3+2 0.500000 0.500020 0.653130 0.931658
Zn2   Zn    Zn3+2 0.500000 0.499980 0.346870 0.937749
O5    O     O_R   0.500000 0.683250 0.614640 -0.616671
O6    O     O_R   0.500000 0.683220 0.385310 -0.618355
O7    O     O_R   0.571250 0.499990 0.614680 -0.609270
O8    O     O_R   0.571240 0.499970 0.385350 -0.619496
C3    C     C_R   0.495973 0.738573 0.497622 0.890602
C4    C     C_R   0.593754 0.499251 0.500309 0.885801
C5    C     C_R   0.175737 0.385217 0.469696 0.503508
O9    O     O_2   0.199017 0.281260 0.441302 -0.555581
N1    N     N_R   0.201489 0.492652 0.498616 -0.358142
C6    C     C_R   0.179405 0.599684 0.528404 0.504381
C7    C     C_R   0.277647 0.492900 0.376366 -0.102125
C8    C     C_R   0.327791 0.495017 0.376386 -0.220518
C9    C     C_R   0.328161 0.496740 0.621691 -0.227248
C10   C     C_R   0.278050 0.494716 0.621251 -0.101212
C11   C     C_R   0.252852 0.493015 0.498709 0.322676
C12   C     C_R   0.101508 0.491712 0.500980 -0.051681
C13   C     C_R   0.125244 0.382608 0.470568 -0.020548
C14   C     C_R   0.098275 0.273789 0.441303 -0.137990
C15   C     C_R   0.129005 0.601324 0.529997 -0.021985
C16   C     C_R   0.353381 0.497232 0.499156 -0.035770
H1    H     H_    0.347036 0.498030 0.717716 0.167798
H2    H     H_    0.258705 0.494531 0.715871 0.139529
H3    H     H_    0.115736 0.189312 0.415535 0.190566
C17   C     C_R   0.646116 0.495484 0.500603 -0.025862
C18   C     C_R   0.972215 0.376860 0.486197 0.046379
C19   C     C_R   0.976029 0.604331 0.522132 0.047093
C20   C     C_R   0.948880 0.490432 0.504500 0.070213
C21   C     C_R   0.943487 0.264866 0.477680 -0.215582
C22   C     C_R   0.893506 0.265485 0.480129 -0.137001
C23   C     C_R   0.870274 0.377428 0.492021 -0.021564
C24   C     C_R   0.897770 0.490144 0.504927 -0.052537
C25   C     C_R   0.874034 0.602615 0.518020 -0.017341
C26   C     C_R   0.823561 0.600323 0.517580 0.498650
N2    N     N_R   0.797750 0.489865 0.504016 -0.356211
C27   C     C_R   0.819853 0.379423 0.491645 0.504454
C28   C     C_R   0.720036 0.435625 0.610307 -0.120733
C29   C     C_R   0.669981 0.437805 0.609371 -0.240591
C30   C     C_R   0.672555 0.548301 0.391249 -0.219553
C31   C     C_R   0.722604 0.545871 0.392237 -0.100713
C32   C     C_R   0.746351 0.490159 0.502059 0.318188
O10   O     O_2   0.793045 0.272284 0.477741 -0.557430
C33   C     C_R   0.023244 0.378640 0.477923 0.046264
C34   C     C_R   0.050402 0.491220 0.502391 0.070855
C35   C     C_R   0.027077 0.603336 0.528223 0.045685
C36   C     C_R   0.048258 0.271635 0.444558 -0.216828
H4    H     H_    0.649940 0.393946 0.692907 0.151246
H5    H     H_    0.738444 0.392152 0.695064 0.144370
H6    H     H_    0.873114 0.177322 0.472604 0.191092
H7    H     H_    0.958434 0.174155 0.471748 0.138961
H8    H     H_    0.030301 0.184872 0.417292 0.141153
O11   O     O_2   0.206243 0.704159 0.555593 -0.553501
C37   C     C_R   0.105804 0.709620 0.560773 -0.135528
H9    H     H_    0.346407 0.495081 0.280607 0.167619
H10   H     H_    0.257994 0.491824 0.281575 0.140141
H11   H     H_    0.126215 0.794433 0.585636 0.192572
C38   C     C_R   0.950986 0.715939 0.531791 -0.216420
C39   C     C_R   0.900976 0.714753 0.530173 -0.139425
O12   O     O_2   0.800345 0.707300 0.531421 -0.566028
C40   C     C_R   0.055834 0.710799 0.560316 -0.216448
H12   H     H_    0.968889 0.806848 0.537677 0.138548
H13   H     H_    0.654582 0.592711 0.306215 0.152859
H14   H     H_    0.883501 0.802704 0.538094 0.188517
H15   H     H_    0.743025 0.587533 0.308188 0.141992
H16   H     H_    0.040938 0.797221 0.588610 0.141920
H17   H     H_    0.529576 0.120363 0.306902 0.173485
C41   C     C_R   0.479027 0.096489 0.757090 -0.199517
H18   H     H_    0.497442 0.180491 0.790115 0.178237
C42   C     C_R   0.453483 0.025733 0.856107 -0.169651
H19   H     H_    0.450602 0.060020 0.957028 0.162928
C43   C     C_R   0.431616 0.911084 0.825148 -0.153771
H20   H     H_    0.410373 0.858014 0.900217 0.147839
C44   C     C_R   0.440178 0.860853 0.700413 -0.158453
H21   H     H_    0.424447 0.768936 0.680658 0.157256
C45   C     C_R   0.470080 0.927119 0.604688 0.094408
C46   C     C_R   0.483479 0.052467 0.624608 0.097195
C47   C     C_R   0.501621 0.124861 0.511059 -0.123573
C48   C     C_R   0.514651 0.067205 0.393008 -0.212259
H22   H     H_    0.524549 0.896251 0.298445 0.167295
C49   C     C_R   0.510325 0.939934 0.385962 -0.211681
C50   C     C_R   0.489363 0.869910 0.492775 -0.120256
H23   H     H_    0.557817 0.630872 0.124684 0.148923
C51   C     C_R   0.432457 0.345441 0.144052 -0.157374
H24   H     H_    0.432048 0.334265 0.251121 0.206861
C52   C     C_R   0.397427 0.274879 0.075736 -0.213555
H25   H     H_    0.371237 0.216111 0.131658 0.165355
C53   C     C_R   0.396928 0.276752 0.936046 -0.196346
H26   H     H_    0.370582 0.218728 0.883090 0.169925
C54   C     C_R   0.431951 0.347560 0.864122 -0.176521
H27   H     H_    0.432322 0.335085 0.757988 0.211100
C55   C     C_R   0.466414 0.424940 0.929695 0.126990
C56   C     C_R   0.466551 0.424482 0.074229 0.170068
N3    N     N_R   0.499540 0.498800 0.142780 -0.125985
C57   C     C_R   0.531941 0.572111 0.070871 -0.165147
C58   C     C_R   0.532259 0.572582 0.928052 0.015145
N4    N     N_R   0.499520 0.498720 0.857170 -0.142855
C59   C     C_R   0.568798 0.655538 0.859702 0.176875
C60   C     C_R   0.558692 0.780099 0.827281 -0.122455
C61   C     C_R   0.594108 0.861376 0.769020 -0.156240
C62   C     C_R   0.640505 0.820047 0.748171 -0.105358
C63   C     C_R   0.651649 0.698150 0.787660 -0.130014
C64   C     C_R   0.616056 0.616467 0.844824 -0.146457
H28   H     H_    0.523463 0.813988 0.847535 0.151263
H29   H     H_    0.585716 0.956650 0.741481 0.144508
H30   H     H_    0.668019 0.883043 0.703610 0.154622
H31   H     H_    0.687900 0.667156 0.774472 0.159576
H32   H     H_    0.625190 0.522889 0.877242 0.120285

loop_
_geom_bond_atom_site_label_1
_geom_bond_atom_site_label_2
_geom_bond_distance
_ccdc_geom_bond_type
C49   C50   1.392096 A    
C57   C58   1.415821 A    
C26   N2    1.365697 A    
C7    C11   1.397995 A    
C7    C8    1.389264 A    
C12   C15   1.408402 A    
C41   C46   1.418258 A    
C60   H28   1.079128 S    
Zn1   O7    2.014015 S    
N1    C11   1.423707 S    
C41   C42   1.396882 A    
C37   H11   1.083671 S    
C38   H12   1.076576 S    
C21   C22   1.386236 A    
C42   C43   1.388338 A    
C40   H16   1.076579 S    
C15   C37   1.394569 A    
O4    C2    1.299150 A    
O7    C4    1.298062 A    
C43   C44   1.390974 A    
C5    C13   1.398861 A    
C61   C62   1.397436 A    
C7    H10   1.083374 S    
C55   N4    1.374888 A    
C18   C21   1.415108 A    
C63   C64   1.399352 A    
C5    N1    1.365120 A    
C19   C20   1.420396 A    
C17   C29   1.401625 A    
C8    H9    1.083581 S    
O5    C3    1.291384 A    
C52   H25   1.082715 S    
C30   H13   1.083481 S    
O1    Zn1   2.012217 S    
C22   H6    1.083647 S    
C2    C16   1.460389 S    
C56   N3    1.377026 A    
C37   C40   1.385851 A    
C54   C55   1.407452 A    
C62   C63   1.397787 A    
C53   C54   1.390715 A    
C12   C34   1.416694 A    
C14   H3    1.083663 S    
Zn1   N4    2.022548 S    
C9    C10   1.388351 A    
C58   N4    1.381835 A    
O3    Zn1   2.009003 S    
C52   C53   1.384343 A    
C59   C60   1.401984 A    
N1    C6    1.365183 A    
C61   H29   1.082539 S    
C48   C49   1.367535 A    
C23   C24   1.408355 A    
C33   C36   1.415215 A    
C41   H18   1.074595 S    
C34   C35   1.420414 A    
C12   C13   1.408571 A    
O3    C2    1.298249 A    
C21   H7    1.076665 S    
C24   C25   1.408228 A    
C43   H20   1.082403 S    
C27   O10   1.350096 S    
C8    C16   1.405215 A    
C18   C33   1.416771 A    
C9    H1    1.083582 S    
O1    C1    1.282216 A    
C63   H31   1.082256 S    
C20   C24   1.416732 A    
C22   C23   1.394797 A    
C51   C52   1.390813 A    
C31   C32   1.398902 A    
Zn2   O8    2.009000 S    
C31   H15   1.082948 S    
C54   H27   1.065264 S    
C19   C38   1.415101 A    
C33   C34   1.420358 A    
C62   H30   1.082261 S    
N2    C32   1.424992 S    
C47   C48   1.398317 A    
C58   C59   1.471035 S    
H17   C48   1.084126 S    
C35   C40   1.415094 A    
C64   H32   1.082659 S    
C44   C45   1.415869 A    
C25   C26   1.398315 A    
C9    C16   1.405235 A    
O8    C4    1.295854 A    
C29   H4    1.082619 S    
C55   C56   1.432729 A    
C25   C39   1.394626 A    
C46   C47   1.426876 A    
N2    C27   1.365658 A    
C14   C36   1.386284 A    
C51   C56   1.409933 A    
C28   C29   1.388775 A    
Zn1   O5    1.987105 S    
C30   C31   1.388813 A    
C10   H2    1.083406 S    
H23   C57   1.083183 S    
H22   C49   1.084050 S    
C17   C30   1.401832 A    
O2    Zn2   1.987102 S    
C6    C15   1.398262 A    
C4    C17   1.453876 S    
C44   H21   1.082662 S    
O6    C3    1.286706 A    
O4    Zn2   2.014018 S    
C36   H8    1.076638 S    
C26   O12   1.350258 S    
C60   C61   1.397793 A    
C19   C35   1.416521 A    
C38   C39   1.385848 A    
O2    C1    1.304452 A    
C13   C14   1.394709 A    
C23   C27   1.398831 A    
C42   H19   1.081946 S    
C28   H5    1.082878 S    
C51   H24   1.064288 S    
C59   C64   1.402950 A    
C45   C50   1.405160 A    
C5    O9    1.350119 S    
C3    C50   1.426065 S    
N3    C57   1.356555 A    
C18   C20   1.420383 A    
Zn2   N3    2.023758 S    
C53   H26   1.082765 S    
C28   C32   1.398420 A    
C6    O11   1.350234 S    
Zn2   O6    2.012217 S    
C45   C46   1.397534 A    
C1    C47   1.441119 S    
C10   C11   1.397736 A    
C39   H14   1.083673 S    
