data_mof_unit_37973.cif
_audit_creation_date              2012-12-10T17:53:14-0500
_audit_creation_method            fapswitch 2.2
_symmetry_space_group_name_H-M    P1
_symmetry_Int_Tables_number       1
_space_group_crystal_system       triclinic
_cell_length_a                    22.947687
_cell_length_b                    10.685842
_cell_length_c                    10.026883
_cell_angle_alpha                 89.36953
_cell_angle_beta                  87.551339
_cell_angle_gamma                 91.615415
_cell_volume                      2455.34087014

loop_
_atom_site_label
_atom_site_type_symbol
_atom_type_description
_atom_site_fract_x
_atom_site_fract_y
_atom_site_fract_z
_atom_type_partial_charge
C1    C     C_R   0.506777 0.261114 0.501101 0.889406
C2    C     C_R   0.977522 0.568807 0.202001 0.417588
C3    C     C_R   0.037583 0.550533 0.212651 0.377893
C4    C     C_R   0.066035 0.586443 0.329678 -0.178565
C5    C     C_R   0.033465 0.638955 0.436839 -0.078896
C6    C     C_R   0.061548 0.681511 0.552016 -0.129726
C7    C     C_R   0.028511 0.740202 0.655178 0.492352
C8    C     C_R   0.968054 0.736614 0.652814 -0.068729
C9    C     C_R   0.126389 0.573684 0.342902 0.738430
C10   C     C_R   0.120708 0.655613 0.563720 0.635953
C11   C     C_R   0.253765 0.669599 0.458861 0.461385
C12   C     C_R   0.389453 0.499388 0.502269 0.875800
C13   C     C_R   0.311642 0.642105 0.475097 -0.239651
C14   C     C_R   0.327620 0.520601 0.504881 -0.216929
C15   C     C_R   0.285359 0.422803 0.523319 0.402817
C16   C     C_R   0.226212 0.449976 0.510621 0.361026
C17   C     C_R   0.210807 0.573639 0.476825 -0.061423
C18   C     C_R   0.773182 0.467759 0.493190 -0.126845
C19   C     C_R   0.714173 0.434399 0.509288 0.459616
C20   C     C_R   0.672878 0.527613 0.490152 -0.182623
C21   C     C_R   0.690984 0.650834 0.457854 -0.233646
C22   C     C_R   0.749858 0.682828 0.437762 0.499138
C23   C     C_R   0.494134 0.739423 0.499121 0.887224
C24   C     C_R   0.791113 0.590441 0.456970 0.052132
C25   C     C_R   0.514515 0.106085 0.755833 0.409160
C26   C     C_R   0.481116 0.054258 0.864901 -0.274717
C27   C     C_R   0.443989 0.950577 0.846940 0.536289
C28   C     C_R   0.447124 0.888834 0.724936 -0.251953
C29   C     C_R   0.481490 0.937824 0.617281 -0.075416
C30   C     C_R   0.505976 0.058053 0.626336 0.064832
C31   C     C_R   0.515247 0.127017 0.505268 -0.109050
C32   C     C_R   0.513938 0.066449 0.382743 -0.262000
C33   C     C_R   0.496017 0.942489 0.376699 0.399138
C34   C     C_R   0.610643 0.501407 0.497463 0.878556
C35   C     C_R   0.486655 0.874150 0.496262 -0.185763
C36   C     C_R   0.419895 0.344186 0.144404 -0.189392
C37   C     C_R   0.379062 0.273803 0.074774 0.396753
C38   C     C_R   0.373854 0.296511 0.938388 -0.365334
C39   C     C_R   0.400842 0.404649 0.882078 0.400620
C40   C     C_R   0.454260 0.443872 0.935105 -0.033673
C41   C     C_R   0.458418 0.430588 0.076628 -0.007735
C42   C     C_R   0.543742 0.559655 0.064084 0.463559
C43   C     C_R   0.543489 0.557008 0.921718 0.406056
C44   C     C_R   0.879099 0.672207 0.547709 0.625371
C45   C     C_R   0.882225 0.584397 0.329549 0.662369
C46   C     C_R   0.943577 0.600660 0.318131 -0.228191
C47   C     C_R   0.972292 0.643168 0.432148 -0.058678
C48   C     C_R   0.939685 0.685303 0.544519 -0.109524
H1    H     H_    0.658828 0.722092 0.447441 0.212375
H2    H     H_    0.519523 0.119362 0.289969 0.187515
H3    H     H_    0.483216 0.096386 0.962169 0.176992
H4    H     H_    0.419709 0.807936 0.709522 0.213516
H5    H     H_    0.421442 0.327249 0.249198 0.236844
H6    H     H_    0.336982 0.254073 0.890089 0.238633
H7    H     H_    0.943379 0.775213 0.736488 0.236553
H8    H     H_    0.345061 0.715485 0.461605 0.206999
H9    H     H_    0.805604 0.397732 0.508015 0.189724
N1    N     N_R   0.852099 0.619748 0.442789 -0.339867
N2    N     N_R   0.151096 0.601978 0.460580 -0.315070
N3    N     N_R   0.499460 0.498800 0.142780 -0.172695
N4    N     N_R   0.499440 0.498720 0.857170 -0.186334
O1    O     O_R   0.500000 0.316780 0.614690 -0.587995
O2    O     O_2   0.852682 0.527525 0.232910 -0.431658
O3    O     O_2   0.160721 0.534342 0.240021 -0.453505
O4    O     O_2   0.147395 0.677406 0.678893 -0.457250
O5    O     O_R   0.500000 0.316750 0.385360 -0.657991
O6    O     O_R   0.416160 0.499970 0.614690 -0.580355
O7    O     O_R   0.416150 0.499950 0.385360 -0.605043
O8    O     O_R   0.500000 0.683250 0.614640 -0.645081
O9    O     O_R   0.500000 0.683220 0.385310 -0.514543
O10   O     O_R   0.583850 0.500050 0.614640 -0.582108
O11   O     O_R   0.583840 0.500030 0.385310 -0.539265
O12   O     O_2   0.847312 0.706882 0.656878 -0.468445
Zn1   Zn    Zn3+2 0.500000 0.500020 0.653130 1.015753
Zn2   Zn    Zn3+2 0.500000 0.499980 0.346870 1.069046
S1    S     S_3+6 0.947648 0.555780 0.040982 0.142098
O13   O     O_2   0.902708 0.653752 0.023702 -0.213484
O14   O     O_2   0.994439 0.573914 0.932390 -0.205493
O15   O     O_3   0.916445 0.412543 0.026635 -0.469576
H10   H     H_    0.898561 0.413657 0.938455 0.395593
O16   O     O_3   0.699370 0.311254 0.541965 -0.695263
H11   H     H_    0.656431 0.300063 0.550799 0.345372
S2    S     S_3+6 0.770569 0.837650 0.387711 0.086477
O17   O     O_2   0.819642 0.835954 0.283604 -0.252427
O18   O     O_2   0.719602 0.902415 0.331249 -0.265957
O19   O     O_3   0.792819 0.916675 0.521235 -0.483349
H12   H     H_    0.805490 0.000487 0.485977 0.399702
O20   O     O_3   0.557289 0.197150 0.774496 -0.708521
H13   H     H_    0.557114 0.219135 0.870369 0.333084
O21   O     O_3   0.405809 0.910852 0.949241 -0.591863
H14   H     H_    0.381213 0.840241 0.918407 0.396787
S3    S     S_3+6 0.465157 0.896667 0.225923 0.104233
O22   O     O_2   0.421411 0.790069 0.246089 -0.194960
O23   O     O_2   0.434193 0.007694 0.174354 -0.235561
O24   O     O_3   0.517308 0.857541 0.112695 -0.494804
H15   H     H_    0.544032 0.931898 0.104499 0.354671
S4    S     S_3+6 0.607317 0.632936 0.130959 0.121977
O25   O     O_2   0.593176 0.708012 0.252315 -0.286526
O26   O     O_2   0.649096 0.532491 0.164146 -0.280819
O27   O     O_3   0.642127 0.732815 0.021439 -0.450095
H16   H     H_    0.678267 0.759663 0.065057 0.409827
O28   O     O_3   0.067196 0.493816 0.108617 -0.608360
H17   H     H_    0.083267 0.416371 0.146029 0.381227
S5    S     S_3+6 0.325752 0.179983 0.162890 0.125836
O29   O     O_2   0.270290 0.251415 0.174379 -0.254400
O30   O     O_2   0.314494 0.061097 0.088401 -0.136521
O31   O     O_3   0.347851 0.146206 0.316653 -0.519581
H18   H     H_    0.311532 0.126626 0.370539 0.437216
S6    S     S_3+6 0.347578 0.521516 0.876044 0.081296
O32   O     O_2   0.369962 0.634482 0.799177 -0.304043
O33   O     O_2   0.293318 0.471362 0.814145 -0.268219
O34   O     O_3   0.330263 0.566439 0.032838 -0.461296
H19   H     H_    0.302932 0.500401 0.070209 0.392654
O35   O     O_3   0.588557 0.614912 0.848652 -0.646082
H20   H     H_    0.571141 0.661260 0.775507 0.376925
O36   O     O_3   0.053288 0.800898 0.760150 -0.641839
H21   H     H_    0.087893 0.849405 0.723483 0.387872
S7    S     S_3+6 0.236979 0.825075 0.414942 0.105551
O37   O     O_2   0.221364 0.895013 0.540072 -0.231183
O38   O     O_2   0.289415 0.887994 0.345532 -0.205838
O39   O     O_3   0.180804 0.828154 0.312810 -0.523105
H22   H     H_    0.172539 0.918043 0.301524 0.414068
O40   O     O_3   0.300106 0.301243 0.552656 -0.682951
H23   H     H_    0.342330 0.296901 0.567562 0.326328
S8    S     S_3+6 0.171860 0.328005 0.531110 0.130846
O41   O     O_2   0.157814 0.279988 0.395597 -0.209003
O42   O     O_2   0.192818 0.221112 0.613366 -0.156450
O43   O     O_3   0.110395 0.380595 0.605499 -0.540287
H24   H     H_    0.121175 0.401456 0.697423 0.396468

loop_
_geom_bond_atom_site_label_1
_geom_bond_atom_site_label_2
_ccdc_geom_bond_type
C9    O3    S    
C11   C13   A    
C23   O8    A    
C19   C20   A    
S1    O15   S    
C1    O1    A    
S5    O30   D    
S4    O25   D    
C7    C8    A    
C45   C46   A    
C2    C46   A    
O7    Zn2   S    
C5    C47   A    
C28   C29   A    
C26   C27   A    
C29   C30   A    
C15   O40   S    
S2    O17   D    
C18   C24   A    
S3    O22   D    
C36   C37   A    
S1    O14   D    
S6    O33   D    
C43   O35   S    
C30   C31   A    
C15   C16   A    
C1    C31   S    
O36   H21   S    
C27   O21   S    
C18   C19   A    
S7    O37   D    
S5    O29   D    
C36   H5    S    
C47   C48   A    
C44   N1    A    
C16   C17   A    
S8    O43   S    
O31   H18   S    
C16   S8    S    
C13   H8    S    
C20   C34   S    
C21   C22   A    
O43   H24   S    
C23   O9    A    
C36   C41   A    
C44   O12   S    
O11   Zn2   S    
C8    H7    S    
C21   H1    S    
O34   H19   S    
S4    O26   D    
O35   H20   S    
C38   C39   A    
C12   O6    A    
C45   N1    A    
O40   H23   S    
S1    O13   D    
C33   S3    S    
C42   N3    A    
C39   C40   A    
O19   H12   S    
C25   C26   A    
C45   O2    S    
S3    O24   S    
O16   H11   S    
C40   N4    A    
S6    O34   S    
C9    N2    A    
S7    O39   S    
C7    O36   S    
C8    C48   A    
C37   C38   A    
C37   S5    S    
C12   O7    A    
C18   H9    S    
C31   C32   A    
C38   H6    S    
S3    O23   D    
C1    O5    A    
O8    Zn1   S    
O6    Zn1   S    
C20   C21   A    
C32   H2    S    
O39   H22   S    
C17   N2    S    
C3    O28   S    
C40   C41   A    
S2    O18   D    
C12   C14   S    
C23   C35   S    
S8    O41   D    
C22   C24   A    
C42   S4    S    
C42   C43   A    
C3    C4    A    
C34   O11   A    
O9    Zn2   S    
S4    O27   S    
C2    S1    S    
C43   N4    A    
C10   O4    S    
C25   C30   A    
C46   C47   A    
C11   C17   A    
C41   N3    A    
C4    C5    A    
C6    C10   A    
O10   Zn1   S    
C6    C7    A    
N4    Zn1   S    
C29   C35   A    
N3    Zn2   S    
C22   S2    S    
C2    C3    A    
O24   H15   S    
C19   O16   S    
C26   H3    S    
C32   C33   A    
C28   H4    S    
O21   H14   S    
C5    C6    A    
O5    Zn2   S    
O27   H16   S    
C33   C35   A    
C10   N2    A    
C25   O20   S    
O28   H17   S    
S7    O38   D    
O15   H10   S    
C39   S6    S    
S2    O19   S    
O20   H13   S    
C24   N1    S    
S6    O32   D    
C27   C28   A    
S8    O42   D    
C14   C15   A    
O1    Zn1   S    
C4    C9    A    
C13   C14   A    
C11   S7    S    
C34   O10   A    
S5    O31   S    
C44   C48   A    
