data_mof_unit_19437.cif
_audit_creation_date              2012-12-10T17:35:01-0500
_audit_creation_method            fapswitch 2.2
_symmetry_space_group_name_H-M    P1
_symmetry_Int_Tables_number       1
_space_group_crystal_system       triclinic
_cell_length_a                    12.124099
_cell_length_b                    12.79409
_cell_length_c                    15.748219
_cell_angle_alpha                 92.288388
_cell_angle_beta                  86.584128
_cell_angle_gamma                 95.148242
_cell_volume                      2427.16669092

loop_
_atom_site_label
_atom_site_type_symbol
_atom_type_description
_atom_site_fract_x
_atom_site_fract_y
_atom_site_fract_z
_atom_type_partial_charge
C1    C     C_R   0.523795 0.700199 0.491869 0.936966
C2    C     C_R   0.541486 0.812355 0.477087 -0.272483
C3    C     C_R   0.650894 0.979883 0.486935 0.082386
C4    C     C_R   0.500288 0.500208 0.661216 0.882039
C5    C     C_R   0.646146 0.870127 0.480283 0.368170
C6    C     C_R   0.448647 0.864230 0.461416 0.316196
C7    C     C_R   0.447514 0.969892 0.485919 -0.066400
C8    C     C_R   0.550227 0.027767 0.501598 -0.061167
C9    C     C_R   0.548977 0.132222 0.529226 0.329979
C10   C     C_R   0.353282 0.128975 0.502280 0.354025
C11   C     C_R   0.347306 0.019137 0.497139 0.102374
C12   C     C_3   0.384808 0.549895 0.057697 0.235359
C13   C     C_R   0.947433 0.394928 0.420657 0.350649
C14   C     C_R   0.833802 0.409784 0.426874 0.386060
C15   C     C_R   0.858946 0.535794 0.540159 0.520846
C16   C     C_R   0.475973 0.299207 0.505366 0.963122
C17   C     C_R   0.975036 0.522843 0.537693 -0.243219
C18   C     C_R   0.021892 0.459060 0.471561 -0.262940
C19   C     C_R   0.140484 0.461093 0.460806 0.575465
C20   C     C_R   0.161497 0.573297 0.584266 0.137319
C21   C     C_R   0.045588 0.569366 0.599436 0.400182
C22   C     C_R   0.499691 0.499799 0.338777 0.929796
C23   C     C_3   0.498505 0.499595 0.083308 0.042812
C24   C     C_3   0.391825 0.557150 0.955318 0.406095
C25   C     C_3   0.612058 0.561207 0.946531 0.589157
C26   C     C_3   0.609526 0.572264 0.048429 0.165141
C27   C     C_1   0.498976 0.499817 0.250295 -0.141045
C28   C     C_3   0.498126 0.497496 0.916693 -0.122373
C29   C     C_3   0.364088 0.658300 0.106080 -0.791751
C30   C     C_3   0.275964 0.484529 0.092435 -0.680841
C31   C     C_3   0.610738 0.328288 0.068963 -0.795806
C32   C     C_3   0.761419 0.043254 0.470347 -0.557343
C33   C     C_3   0.235426 0.957487 0.511669 -0.618072
C34   C     C_3   0.501660 0.376802 0.046765 0.291678
C35   C     C_3   0.391786 0.671940 0.924736 -0.707314
C36   C     C_3   0.230915 0.636696 0.647921 -0.659066
C37   C     C_3   0.610503 0.690314 0.081679 -0.748967
C38   C     C_3   0.721503 0.545574 0.086885 -0.682082
C39   C     C_3   0.377833 0.312005 0.918025 -0.721863
C40   C     C_3   0.572152 0.305547 0.891813 -0.721844
C41   C     C_3   0.414615 0.296792 0.094849 -0.783399
C42   C     C_3   0.488619 0.375095 0.944972 0.250871
C43   C     C_1   0.498623 0.499755 0.175160 -0.006849
C44   C     C_1   0.499788 0.498393 0.824821 0.145921
C45   C     C_1   0.500565 0.499323 0.749685 -0.063698
C46   C     C_R   0.457361 0.185875 0.513431 -0.284410
Cl1   Cl    Cl    0.264388 0.506200 0.906508 -0.623809
Cl2   Cl    Cl    0.797046 0.630492 0.606812 -0.372165
Cl3   Cl    Cl    0.735139 0.506527 0.901990 -0.503246
Cl4   Cl    Cl    0.642130 0.684711 0.893784 -0.527031
Cl5   Cl    Cl    0.648558 0.189198 0.599985 -0.571390
Cl6   Cl    Cl    0.228446 0.190732 0.498866 -0.493307
Cl7   Cl    Cl    0.771893 0.809169 0.467197 -0.525848
Cl8   Cl    Cl    0.348744 0.802470 0.393026 -0.595388
Cl9   Cl    Cl    0.205461 0.397172 0.373211 -0.461089
Cl10  Cl    Cl    0.985613 0.283768 0.358483 -0.419791
Cl11  Cl    Cl    0.994093 0.604805 0.703865 -0.411075
Cl12  Cl    Cl    0.744453 0.334690 0.358841 -0.532212
H1    H     H_    0.280458 0.682795 0.095415 0.250196
H2    H     H_    0.806258 0.010840 0.413097 0.250596
H3    H     H_    0.751671 0.125753 0.455477 0.269699
H4    H     H_    0.813149 0.041038 0.525985 0.275629
H5    H     H_    0.185989 0.995027 0.564107 0.245732
H6    H     H_    0.188965 0.954088 0.452825 0.287560
H7    H     H_    0.243466 0.877103 0.533081 0.235060
H8    H     H_    0.403444 0.674960 0.854330 0.256578
H9    H     H_    0.311131 0.704341 0.942665 0.262048
H10   H     H_    0.452998 0.729596 0.951301 0.227200
H11   H     H_    0.315555 0.660282 0.625022 0.251085
H12   H     H_    0.368453 0.652714 0.175977 0.267712
H13   H     H_    0.194952 0.712339 0.664072 0.226216
H14   H     H_    0.232673 0.592400 0.706992 0.273279
H15   H     H_    0.577718 0.696737 0.148812 0.239437
H16   H     H_    0.694356 0.733315 0.080872 0.261163
H17   H     H_    0.571344 0.742243 0.042039 0.240032
H18   H     H_    0.713323 0.543463 0.157401 0.234994
H19   H     H_    0.761564 0.476693 0.063411 0.248961
H20   H     H_    0.791067 0.605460 0.070864 0.261805
H21   H     H_    0.302457 0.328835 0.954337 0.260548
H22   H     H_    0.364037 0.322301 0.849829 0.261742
H23   H     H_    0.413197 0.729652 0.087509 0.222026
H24   H     H_    0.378895 0.226074 0.925889 0.223618
H25   H     H_    0.561234 0.223037 0.912698 0.229310
H26   H     H_    0.556791 0.302720 0.822808 0.251522
H27   H     H_    0.661144 0.324907 0.894485 0.278307
H28   H     H_    0.425385 0.214595 0.072480 0.236171
H29   H     H_    0.425569 0.300305 0.164476 0.258490
H30   H     H_    0.326724 0.300376 0.087103 0.229920
H31   H     H_    0.243493 0.420126 0.051732 0.239755
H32   H     H_    0.284638 0.456711 0.157370 0.250360
H33   H     H_    0.201512 0.529655 0.097777 0.256801
H34   H     H_    0.681199 0.344562 0.023927 0.247108
H35   H     H_    0.634150 0.350775 0.134720 0.263588
H36   H     H_    0.603439 0.240964 0.065504 0.243670
N1    N     N_R   0.207800 0.519340 0.515510 -0.148103
N2    N     N_R   0.792190 0.480660 0.484490 -0.191740
O1    O     O_R   0.421690 0.658830 0.504140 -0.610299
O2    O     O_R   0.609320 0.646410 0.494190 -0.541769
O3    O     O_R   0.406150 0.506210 0.627840 -0.643155
O4    O     O_R   0.593770 0.493790 0.617880 -0.544228
O5    O     O_R   0.390680 0.353590 0.505810 -0.551370
O6    O     O_R   0.578310 0.341170 0.495860 -0.546485
O7    O     O_R   0.406230 0.506210 0.382120 -0.555548
O8    O     O_R   0.593850 0.493790 0.372160 -0.585287
Zn1   Zn    Zn3+2 0.374720 0.508290 0.506640 1.055032
Zn2   Zn    Zn3+2 0.625280 0.491710 0.493360 1.111714

loop_
_geom_bond_atom_site_label_1
_geom_bond_atom_site_label_2
_ccdc_geom_bond_type
C37   H16   S    
C12   C29   S    
C40   H26   S    
C34   C42   S    
C30   H32   S    
C10   Cl6   S    
O8    Zn2   S    
C33   H7    S    
C7    C8    A    
C38   H18   S    
C36   H11   S    
C25   C28   S    
C7    C11   A    
C41   H28   S    
C12   C23   S    
C13   C18   A    
C5    Cl7   S    
C32   H3    S    
C1    C2    S    
C23   C43   S    
C18   C19   A    
C23   C26   S    
C25   Cl4   S    
N2    Zn2   S    
N1    Zn1   S    
C29   H1    S    
C8    C9    A    
C9    Cl5   S    
C10   C46   A    
C36   H13   S    
C13   Cl10  S    
O1    Zn1   S    
C40   C42   S    
C37   H17   S    
C9    C46   A    
C13   C14   A    
C40   H25   S    
C2    C6    A    
C34   C41   S    
C15   Cl2   S    
C6    Cl8   S    
C30   H31   S    
C14   Cl12  S    
C14   N2    A    
C39   C42   S    
C4    C45   S    
O5    Zn1   S    
C41   H29   S    
C24   C35   S    
C11   C33   S    
C3    C8    A    
C16   C46   S    
C15   N2    A    
C26   C38   S    
C38   H20   S    
C35   H8    S    
C25   C26   S    
C31   H35   S    
C28   C44   S    
C17   C21   A    
C22   O7    A    
C39   H21   S    
C40   H27   S    
C21   Cl11  S    
C35   H9    S    
C33   H5    S    
C23   C34   S    
C17   C18   A    
C31   C34   S    
O7    Zn1   S    
C16   O6    A    
C20   N1    A    
C29   H23   S    
C22   C27   S    
C4    O4    A    
C2    C5    A    
C32   H2    S    
C1    O1    A    
C19   N1    A    
C44   C45   T    
C29   H12   S    
C19   Cl9   S    
C15   C17   A    
C41   H30   S    
C37   H15   S    
C12   C30   S    
C24   Cl1   S    
C24   C28   S    
C39   H24   S    
C30   H33   S    
C3    C5    A    
C1    O2    A    
C26   C37   S    
C6    C7    A    
C38   H19   S    
C31   H36   S    
C12   C24   S    
O4    Zn2   S    
O2    Zn2   S    
C39   H22   S    
C22   O8    A    
C32   H4    S    
C35   H10   S    
C33   H6    S    
C28   C42   S    
O6    Zn2   S    
C3    C32   S    
O3    Zn1   S    
C25   Cl3   S    
C10   C11   A    
C20   C36   S    
C27   C43   T    
C16   O5    A    
C20   C21   A    
C31   H34   S    
C4    O3    A    
C36   H14   S    
