data_mof_unit_55968.cif
_audit_creation_date              2012-10-26T19:42:10-0400
_audit_creation_method            fapswitch 2.2
_symmetry_space_group_name_H-M    P1
_symmetry_Int_Tables_number       1
_space_group_crystal_system       triclinic
_cell_length_a                    9.572345
_cell_length_b                    10.861834
_cell_length_c                    17.350622
_cell_angle_alpha                 92.455875
_cell_angle_beta                  85.969187
_cell_angle_gamma                 89.268973
_cell_volume                      1797.65973352

loop_
_atom_site_label
_atom_site_type_symbol
_atom_type_description
_atom_site_fract_x
_atom_site_fract_y
_atom_site_fract_z
_atom_type_partial_charge
C1    C     C_R   0.498264 0.737820 0.496510 0.555434
C2    C     C_R   0.528172 0.485672 0.265667 -0.030090
C3    C     C_R   0.228602 0.890933 0.495294 -0.145157
C4    C     C_R   0.481725 0.501223 0.649883 0.552690
C5    C     C_R   0.106440 0.956107 0.520817 -0.103625
C6    C     C_R   0.114866 0.072212 0.556697 0.246366
C7    C     C_R   0.244843 0.127411 0.560489 -0.055517
C8    C     C_R   0.368441 0.067456 0.527105 -0.015388
C9    C     C_R   0.362884 0.941272 0.505258 0.014499
C10   C     C_R   0.491811 0.872703 0.494209 0.001196
C11   C     C_R   0.619112 0.935113 0.489482 -0.145489
C12   C     C_R   0.342295 0.500330 0.776659 -0.120807
C13   C     C_R   0.620957 0.062229 0.495465 -0.129421
C14   C     C_R   0.496669 0.129642 0.513215 0.000009
C15   C     C_R   0.870584 0.334391 0.398502 -0.075603
C16   C     C_R   0.499408 0.263189 0.506105 0.536403
C17   C     C_R   0.950108 0.252508 0.349337 -0.154295
C18   C     C_R   0.094049 0.252526 0.349096 -0.157759
C19   C     C_R   0.159261 0.334392 0.398032 -0.083391
C20   C     C_R   0.082289 0.418447 0.450004 0.174217
C21   C     C_R   0.932530 0.418457 0.450114 0.184334
C22   C     C_R   0.918874 0.577584 0.547491 0.005527
C23   C     C_R   0.414848 0.453085 0.146599 -0.141085
C24   C     C_R   0.066947 0.577510 0.547494 -0.006982
C25   C     C_R   0.518351 0.496961 0.350129 0.535383
C26   C     C_R   0.472626 0.504124 0.734418 0.015490
C27   C     C_R   0.595668 0.512065 0.773627 -0.112711
C28   C     C_R   0.588967 0.514144 0.853717 -0.095932
C29   C     C_R   0.459056 0.506955 0.895919 0.038812
C30   C     C_R   0.335698 0.502414 0.857143 -0.100264
C31   C     C_R   0.406708 0.465935 0.226564 -0.143283
C32   C     C_R   0.658577 0.489922 0.223667 -0.092066
C33   C     C_R   0.667315 0.477822 0.143158 0.252803
C34   C     C_R   0.544355 0.461690 0.104092 0.052494
C35   C     C_2   0.449833 0.506632 0.980521 -0.134273
C36   C     C_2   0.550758 0.455872 0.019269 -0.093810
Cl1   Cl    Cl    0.833319 0.488369 0.093327 -0.638260
Cl2   Cl    Cl    0.961991 0.151842 0.593146 -0.631408
Cu1   Cu    Cu3+1 0.359340 0.500010 0.500010 0.927159
Cu2   Cu    Cu3+1 0.640660 0.499990 0.499990 0.960735
H1    H     H_    0.697469 0.517237 0.742564 0.143435
H2    H     H_    0.305085 0.459556 0.257641 0.147250
H3    H     H_    0.156048 0.189162 0.310289 0.129146
H4    H     H_    0.270103 0.327694 0.392009 0.181415
H5    H     H_    0.116600 0.641068 0.586338 0.121853
H6    H     H_    0.753619 0.503543 0.253165 0.160967
H7    H     H_    0.642324 0.412854 0.988291 0.177032
H8    H     H_    0.234598 0.498513 0.889139 0.133165
H9    H     H_    0.319450 0.435871 0.118158 0.140030
H10   H     H_    0.245825 0.495219 0.747666 0.139659
H11   H     H_    0.357320 0.548659 0.011276 0.137852
H12   H     H_    0.718198 0.885692 0.479410 0.140981
H13   H     H_    0.685469 0.523050 0.882308 0.136173
H14   H     H_    0.213678 0.804646 0.464303 0.156962
H15   H     H_    0.005301 0.915302 0.513500 0.129535
H16   H     H_    0.247524 0.216564 0.590465 0.176100
H17   H     H_    0.720286 0.107709 0.485701 0.181039
H18   H     H_    0.857613 0.641168 0.586376 0.119768
H19   H     H_    0.761269 0.327753 0.393178 0.175896
H20   H     H_    0.899390 0.189092 0.310758 0.131187
N1    N     N_R   0.852190 0.498790 0.499250 -0.238371
N2    N     N_R   0.148060 0.498710 0.499220 -0.248759
O1    O     O_R   0.381190 0.680360 0.500010 -0.514701
O2    O     O_R   0.618760 0.680340 0.500000 -0.506957
O3    O     O_R   0.367440 0.500030 0.613600 -0.506864
O4    O     O_R   0.605010 0.500010 0.613590 -0.492925
O5    O     O_R   0.381240 0.319660 0.500000 -0.537607
O6    O     O_R   0.618810 0.319640 0.499990 -0.503165
O7    O     O_R   0.394990 0.499990 0.386410 -0.525970
O8    O     O_R   0.632560 0.499970 0.386400 -0.531062

loop_
_geom_bond_atom_site_label_1
_geom_bond_atom_site_label_2
_ccdc_geom_bond_type
C22   H18   S    
C4    C26   S    
C28   H13   S    
C6    Cl2   S    
C15   H19   S    
C29   C30   A    
C3    C9    A    
C31   H2    S    
C12   H10   S    
Cu1   O1    S    
C9    C10   A    
C27   H1    S    
C21   N1    A    
C19   C20   A    
Cu2   O2    S    
C23   C34   A    
C32   C33   A    
C17   C18   A    
Cu1   O7    S    
C35   H11   S    
C7    C8    A    
C16   O5    A    
Cu2   O4    S    
C18   H3    S    
C19   H4    S    
C22   N1    A    
C4    O4    A    
C11   C13   A    
C26   C27   A    
C6    C7    A    
Cu2   O8    S    
C7    H16   S    
C16   O6    A    
C24   H5    S    
C1    O1    A    
C30   H8    S    
C28   C29   A    
Cu1   O3    S    
C33   C34   A    
C2    C25   S    
C34   C36   S    
C20   N2    A    
C5    C6    A    
C3    H14   S    
C22   C24   A    
C23   H9    S    
C25   O7    A    
C10   C11   A    
C11   H12   S    
C17   H20   S    
C1    O2    A    
C3    C5    A    
C15   C21   A    
C13   H17   S    
C20   C21   A    
C36   H7    S    
C2    C32   A    
C18   C19   A    
Cu2   O6    S    
C12   C26   A    
Cu1   Cu2   S    
C15   C17   A    
Cu1   N2    S    
C29   C35   S    
C4    O3    A    
C8    C9    A    
C24   N2    A    
C25   O8    A    
C8    C14   A    
C12   C30   A    
C14   C16   S    
C13   C14   A    
C32   H6    S    
C1    C10   S    
C5    H15   S    
C33   Cl1   S    
Cu2   N1    S    
C35   C36   D    
Cu1   O5    S    
C2    C31   A    
C27   C28   A    
C23   C31   A    
