data_mof_unit_11392.cif
_audit_creation_date              2012-12-11T14:50:45-0500
_audit_creation_method            fapswitch 2.2
_symmetry_space_group_name_H-M    P1
_symmetry_Int_Tables_number       1
_space_group_crystal_system       triclinic
_cell_length_a                    10.937514
_cell_length_b                    10.995015
_cell_length_c                    18.825891
_cell_angle_alpha                 90.062958
_cell_angle_beta                  89.761584
_cell_angle_gamma                 59.895224
_cell_volume                      1958.54890707

loop_
_atom_site_label
_atom_site_type_symbol
_atom_type_description
_atom_site_fract_x
_atom_site_fract_y
_atom_site_fract_z
_atom_type_partial_charge
C1    C     C_R   0.235985 0.646548 0.609444 0.561329
C2    C     C_R   0.555293 0.194346 0.791316 -0.141637
C3    C     C_R   0.546914 0.196997 0.718746 -0.117264
C4    C     C_R   0.629780 0.590562 0.609134 0.591109
C5    C     C_R   0.659730 0.182868 0.677103 0.058509
C6    C     C_R   0.200695 0.549905 0.722384 -0.118729
C7    C     C_R   0.190360 0.557267 0.796351 -0.141198
C8    C     C_R   0.169557 0.678603 0.831967 0.037455
C9    C     C_R   0.162369 0.790636 0.792719 -0.133098
C10   C     C_R   0.166836 0.785600 0.719480 -0.124844
C11   C     C_R   0.189710 0.664073 0.683500 0.062782
C12   C     C_3   0.679125 0.530855 0.811057 -0.249471
C13   C     C_R   0.690367 0.533415 0.270528 -0.138670
C14   C     C_R   0.695632 0.550067 0.198140 -0.128294
C15   C     C_R   0.660568 0.681427 0.171179 0.038140
C16   C     C_R   0.627560 0.229415 0.603452 0.555513
C17   C     C_R   0.617508 0.797145 0.217174 -0.096138
C18   C     C_R   0.609845 0.781040 0.290382 0.081012
C19   C     C_R   0.649954 0.647465 0.316991 0.084615
C20   C     C_R   0.513368 0.223889 0.279641 -0.140900
C21   C     C_R   0.522175 0.209520 0.207049 -0.145363
C22   C     C_R   0.650738 0.168378 0.173436 0.022871
C23   C     C_3   0.690202 0.664973 0.815801 0.056885
C24   C     C_R   0.767698 0.152188 0.212394 -0.136160
C25   C     C_R   0.759288 0.165017 0.285319 -0.154289
C26   C     C_R   0.632780 0.198813 0.319234 0.016392
C27   C     C_R   0.243723 0.725079 0.282683 -0.129263
C28   C     C_R   0.226603 0.647291 0.399812 0.566969
C29   C     C_R   0.228101 0.729104 0.210550 0.068391
C30   C     C_R   0.158122 0.664151 0.180313 0.013107
C31   C     C_R   0.116305 0.585758 0.222308 -0.143428
C32   C     C_R   0.131656 0.582539 0.295324 0.052641
C33   C     C_R   0.191447 0.657197 0.325786 0.019076
C34   C     C_3   0.649615 0.621417 0.683685 0.067400
C35   C     C_R   0.700227 0.105154 0.896959 0.561280
C36   C     C_R   0.721179 0.686474 0.889354 0.567955
C37   C     C_R   0.116654 0.707667 0.905024 0.561892
C38   C     C_R   0.674337 0.109100 0.103141 0.537094
C39   C     C_R   0.696728 0.692122 0.098339 0.556708
C40   C     C_R   0.641779 0.621762 0.391857 0.597873
C41   C     C_R   0.096359 0.707340 0.111287 0.564673
C42   C     C_R   0.613861 0.234708 0.393436 0.550097
C43   C     C_3   0.549232 0.790775 0.787881 -0.231039
C44   C     C_3   0.536334 0.773020 0.707715 -0.225226
C45   C     C_3   0.797553 0.606147 0.691796 -0.227245
C46   C     C_3   0.815457 0.644783 0.767467 -0.046276
C47   C     C_3   0.644029 0.511675 0.733609 -0.047562
C48   C     C_R   0.786195 0.155717 0.710061 -0.125825
C49   C     C_R   0.797138 0.146486 0.784340 -0.124804
C50   C     C_R   0.682050 0.162446 0.825228 0.035457
Cr1   Cr    Cr6+3 0.392930 0.397900 0.502230 1.053004
Cr2   Cr    Cr6+3 0.398240 0.708600 0.501260 1.040596
Cr3   Cr    Cr6+3 0.708800 0.393470 0.496460 1.039178
Cr4   Cr    Cr6+3 0.937620 0.938540 0.007640 1.045774
Cr5   Cr    Cr6+3 0.625150 0.937450 0.994520 1.040447
Cr6   Cr    Cr6+3 0.937990 0.625080 0.001190 1.024522
H1    H     H_    0.542953 0.893558 0.797433 0.171664
H2    H     H_    0.193584 0.470699 0.825348 0.114475
H3    H     H_    0.144421 0.886750 0.818055 0.132356
H4    H     H_    0.457995 0.794914 0.816535 0.107920
H5    H     H_    0.158735 0.875234 0.691350 0.127304
H6    H     H_    0.718264 0.430645 0.290530 0.146069
H7    H     H_    0.731401 0.459683 0.163400 0.133983
H8    H     H_    0.594358 0.898478 0.196601 0.146952
H9    H     H_    0.412118 0.255806 0.304474 0.169798
H10   H     H_    0.430925 0.223162 0.177892 0.148231
H11   H     H_    0.868531 0.121064 0.187275 0.162617
H12   H     H_    0.726120 0.406736 0.715002 0.150995
H13   H     H_    0.850527 0.150065 0.314950 0.145492
H14   H     H_    0.298321 0.775651 0.304859 0.171430
H15   H     H_    0.427445 0.796136 0.695596 0.138178
H16   H     H_    0.061470 0.536188 0.199289 0.164443
H17   H     H_    0.552507 0.851548 0.678164 0.151416
H18   H     H_    0.812057 0.672144 0.651682 0.172296
H19   H     H_    0.781106 0.437341 0.826629 0.112875
H20   H     H_    0.597656 0.537751 0.849128 0.117517
H21   H     H_    0.638861 0.934098 0.331030 0.238506
H22   H     H_    0.467761 0.977852 0.322046 0.244876
H23   H     H_    0.917902 0.559566 0.788324 0.144483
H24   H     H_    0.432543 0.612684 0.754475 0.241224
H25   H     H_    0.510430 0.441634 0.762202 0.238265
H26   H     H_    0.882109 0.495595 0.681353 0.115366
H27   H     H_    0.874105 0.145862 0.678822 0.115520
H28   H     H_    0.896882 0.118868 0.809097 0.122113
H29   H     H_    0.463151 0.209651 0.820698 0.127657
H30   H     H_    0.447127 0.219167 0.695917 0.130391
H31   H     H_    0.220413 0.454241 0.695915 0.120529
I1    I     I_    0.301024 0.849256 0.154217 -0.399533
I2    I     I_    0.052950 0.472034 0.354691 -0.366263
I3    I     I_    0.832553 0.828400 0.762831 -0.440358
N1    N     N_3   0.567712 0.897745 0.337535 -0.605437
N2    N     N_3   0.506800 0.519857 0.729892 -0.643289
O1    O     O_R   0.507430 0.255570 0.581420 -0.520445
O2    O     O_R   0.837200 0.593290 0.915250 -0.528199
O3    O     O_R   0.065330 0.635370 0.931590 -0.499237
O4    O     O_R   0.280190 0.527390 0.578910 -0.498732
O5    O     O_R   0.068300 0.828790 0.091860 -0.478214
O6    O     O_R   0.798730 0.057480 0.079370 -0.509920
O7    O     O_R   0.584680 0.080480 0.076790 -0.523950
O8    O     O_R   0.626790 0.809640 0.067050 -0.487706
O9    O     O_R   0.816010 0.596460 0.076500 -0.524019
O10   O     O_R   0.045680 0.638310 0.081070 -0.518871
O11   O     O_3   0.833590 0.833690 0.001120 -0.251614
O12   O     O_R   0.524460 0.695920 0.424060 -0.482821
O13   O     O_R   0.260310 0.739740 0.584580 -0.532139
O14   O     O_R   0.532250 0.695150 0.573830 -0.502547
O15   O     O_R   0.744930 0.503430 0.576380 -0.527743
O16   O     O_R   0.699250 0.276390 0.571950 -0.516324
O17   O     O_R   0.499020 0.256400 0.419850 -0.508930
O18   O     O_R   0.272400 0.528160 0.429140 -0.472561
O19   O     O_R   0.251910 0.740570 0.423020 -0.527992
O20   O     O_R   0.736530 0.504260 0.414810 -0.498910
O21   O     O_R   0.691460 0.277160 0.422180 -0.510821
O22   O     O_3   0.499990 0.499990 0.499980 -0.284135
O23   O     O_R   0.089490 0.825610 0.930610 -0.516212
O24   O     O_R   0.818370 0.054540 0.929880 -0.497653
O25   O     O_R   0.605870 0.077310 0.915530 -0.521595
O26   O     O_R   0.646440 0.806700 0.917570 -0.492787

loop_
_geom_bond_atom_site_label_1
_geom_bond_atom_site_label_2
_ccdc_geom_bond_type
Cr6   O3    S    
C21   H10   S    
C27   C29   A    
C47   N2    S    
C45   H26   S    
C1    C11   S    
C38   O6    A    
C7    C8    A    
C40   O20   A    
C45   C46   S    
C27   C33   A    
Cr6   O2    S    
C12   C23   S    
C16   O1    A    
C2    H29   S    
C18   N1    S    
C49   H28   S    
C42   O17   A    
Cr6   O9    S    
C17   H8    S    
C30   C31   A    
C22   C38   S    
Cr5   O11   S    
C23   C43   S    
C41   O10   A    
C37   O3    A    
C44   H15   S    
C18   C19   A    
C29   I1    S    
C2    C50   A    
C24   H11   S    
H25   N2    S    
H21   N1    S    
C13   H6    S    
C31   C32   A    
C8    C9    A    
C5    C16   S    
Cr4   O24   S    
Cr5   O8    S    
C30   C41   S    
C36   O26   A    
C9    C10   A    
C7    H2    S    
Cr1   O4    S    
Cr2   O14   S    
Cr1   O17   S    
C23   C46   S    
C21   C22   A    
C3    H30   S    
C12   C47   S    
C5    C48   A    
Cr3   O21   S    
C39   O9    A    
C28   O19   A    
C4    O15   A    
C4    C34   S    
Cr1   O22   S    
C13   C19   A    
Cr4   O11   S    
C34   C44   S    
C24   C25   A    
C10   C11   A    
C6    C11   A    
C16   O16   A    
Cr2   O19   S    
C28   O18   A    
C25   C26   A    
C4    O14   A    
C6    H31   S    
C45   H18   S    
C9    H3    S    
H24   N2    S    
C43   C44   S    
C29   C30   A    
C40   O12   A    
Cr3   O15   S    
C42   O21   A    
C32   I2    S    
Cr4   O23   S    
C35   C50   S    
C17   C18   A    
C35   O24   A    
Cr4   O5    S    
C34   C45   S    
C15   C39   S    
C27   H14   S    
C43   H4    S    
Cr1   O1    S    
C46   I3    S    
Cr3   O20   S    
C31   H16   S    
C28   C33   S    
C23   C36   S    
Cr1   O18   S    
C12   H20   S    
C22   C24   A    
C35   O25   A    
C10   H5    S    
C25   H13   S    
C8    C37   S    
C47   H12   S    
Cr3   O22   S    
C26   C42   S    
Cr5   O25   S    
C15   C17   A    
Cr2   O12   S    
Cr6   O11   S    
C38   O7    A    
C3    C5    A    
Cr2   O13   S    
C6    C7    A    
C37   O23   A    
Cr2   O22   S    
H22   N1    S    
C48   H27   S    
C32   C33   A    
C2    C3    A    
Cr6   O10   S    
Cr3   O16   S    
C39   O8    A    
C46   H23   S    
C20   C26   A    
C1    O4    A    
C48   C49   A    
C14   H7    S    
C20   H9    S    
C41   O5    A    
C44   H17   S    
C19   C40   S    
C43   H1    S    
C36   O2    A    
C20   C21   A    
C49   C50   A    
C12   H19   S    
Cr5   O7    S    
C14   C15   A    
Cr4   O6    S    
C34   C47   S    
C13   C14   A    
C1    O13   A    
Cr5   O26   S    
