data_mof_unit_64595.cif
_audit_creation_date              2012-10-26T17:14:03-0400
_audit_creation_method            fapswitch 2.2
_symmetry_space_group_name_H-M    P1
_symmetry_Int_Tables_number       1
_space_group_crystal_system       triclinic
_cell_length_a                    19.273003
_cell_length_b                    18.861321
_cell_length_c                    19.042959
_cell_angle_alpha                 109.25228
_cell_angle_beta                  110.22469
_cell_angle_gamma                 109.641867
_cell_volume                      5281.68336832

loop_
_atom_site_label
_atom_site_type_symbol
_atom_type_description
_atom_site_fract_x
_atom_site_fract_y
_atom_site_fract_z
_atom_type_partial_charge
C1    C     C_R   0.385417 0.381890 0.501978 0.538302
C2    C     C_R   0.603624 0.334800 0.614845 0.132687
C3    C     C_2   0.252310 0.255773 0.573640 0.252885
C4    C     C_R   0.617951 0.499937 0.618532 0.532703
C5    C     C_2   0.179605 0.188216 0.499479 0.270900
C6    C     C_2   0.311863 0.328487 0.571723 -0.115796
C7    C     C_2   0.329366 0.312817 0.507884 -0.080522
C8    C     C_2   0.169931 0.478537 0.240346 -0.088235
C9    C     C_2   0.183746 0.528081 0.204310 0.222224
C10   C     C_2   0.243351 0.493589 0.315314 -0.074887
C11   C     C_2   0.308153 0.485683 0.308502 0.133643
C12   C     C_R   0.758717 0.581183 0.757872 -0.055060
C13   C     C_2   0.749029 0.741315 0.424330 0.289005
C14   C     C_2   0.820869 0.809586 0.498674 0.327040
C15   C     C_2   0.689249 0.670018 0.427769 -0.044626
C16   C     C_R   0.611602 0.618238 0.495213 0.535917
C17   C     C_2   0.663614 0.688074 0.485412 0.262586
C18   C     C_R   0.992969 0.381969 0.876490 0.537794
C19   C     C_R   0.879295 0.501133 0.879992 0.603474
C20   C     C_R   0.000679 0.618223 0.117370 0.623489
C21   C     C_R   0.115039 0.507235 0.121428 0.543303
C22   C     C_R   0.001204 0.118625 0.617502 0.568961
C23   C     C_R   0.813023 0.501780 0.814490 0.011927
C24   C     C_R   0.116838 0.118548 0.500481 0.577661
C25   C     C_R   0.997761 0.880054 0.382644 0.582139
C26   C     C_R   0.883231 0.880569 0.498681 0.563061
C27   C     C_2   0.004216 0.256628 0.681847 0.104814
C28   C     C_R   0.379265 0.496383 0.380785 0.599207
C29   C     C_2   0.007804 0.188362 0.687957 0.277603
C30   C     C_2   0.015549 0.328788 0.755135 -0.111410
C31   C     C_2   0.980311 0.312876 0.801685 -0.083369
C32   C     C_2   0.011588 0.750180 0.326356 0.196892
C33   C     C_2   0.988208 0.806607 0.313706 -0.055667
C34   C     C_R   0.750330 0.423170 0.735765 -0.021211
C35   C     C_2   0.993760 0.674404 0.250193 0.192942
C36   C     C_2   0.012125 0.687474 0.191908 -0.060464
C37   C     C_R   0.782550 0.663685 0.762800 0.084929
C38   C     C_R   0.838759 0.741077 0.843819 0.115352
C39   C     C_R   0.874635 0.737367 0.919680 0.278505
C40   C     C_R   0.863225 0.656757 0.912385 0.282135
C41   C     C_R   0.811963 0.579921 0.829326 -0.019194
C42   C     C_R   0.677987 0.419566 0.677983 0.025714
C43   C     C_R   0.685075 0.500186 0.685589 -0.014894
C44   C     C_R   0.756670 0.347127 0.715170 -0.104983
C45   C     C_R   0.688320 0.267103 0.644426 -0.139630
C46   C     C_R   0.611087 0.260458 0.596920 -0.058580
Cu1   Cu    Cu3+1 0.500390 0.438990 0.439360 0.961122
Cu2   Cu    Cu3+1 0.499610 0.561010 0.560640 0.946886
Cu3   Cu    Cu3+1 0.935830 0.439030 0.996840 1.024071
Cu4   Cu    Cu3+1 0.057850 0.561040 0.996790 0.989655
Cu5   Cu    Cu3+1 0.061410 0.000010 0.561410 1.056669
Cu6   Cu    Cu3+1 0.938590 0.999990 0.438590 1.027965
H1    H     H_    0.555443 0.196508 0.547670 0.135881
H2    H     H_    0.043108 0.753251 0.203002 0.052127
H3    H     H_    0.814219 0.348663 0.753633 0.119992
H4    H     H_    0.693557 0.209239 0.629871 0.122128
H5    H     H_    0.107226 0.133906 0.374221 0.336450
H6    H     H_    0.264389 0.636890 0.219715 0.346818
H7    H     H_    0.311392 0.497890 0.206357 0.278763
H8    H     H_    0.243864 0.394828 0.179503 0.232865
H9    H     H_    0.679330 0.680803 0.299383 0.325020
H10   H     H_    0.891564 0.864006 0.624201 0.332444
H11   H     H_    0.744462 0.616244 0.633170 0.250756
H12   H     H_    0.342747 0.394688 0.624337 0.129588
H13   H     H_    0.715699 0.689302 0.677138 0.272125
H14   H     H_    0.661362 0.777893 0.572388 0.345500
H15   H     H_    0.942950 0.270653 0.582010 0.231769
H16   H     H_    0.050663 0.321133 0.627656 0.235085
H17   H     H_    0.023227 0.133030 0.758007 0.333431
H18   H     H_    0.067636 0.718009 0.406038 0.336063
H19   H     H_    0.945196 0.593771 0.284798 0.338271
H20   H     H_    0.804540 0.825709 0.822199 0.241271
H21   H     H_    0.889984 0.830288 0.812465 0.275651
H22   H     H_    0.921772 0.861394 0.997191 0.364209
H23   H     H_    0.305505 0.246259 0.460405 0.159334
H24   H     H_    0.927997 0.707575 0.038563 0.362102
H25   H     H_    0.495399 0.304757 0.514555 0.267669
H26   H     H_    0.514825 0.371956 0.615348 0.235952
H27   H     H_    0.323306 0.314038 0.698543 0.326021
H28   H     H_    0.106388 0.424565 0.213023 0.113045
H29   H     H_    0.242382 0.507401 0.374921 0.122680
H30   H     H_    0.667860 0.603189 0.383437 0.085796
H31   H     H_    0.051290 0.394979 0.769094 0.137425
H32   H     H_    0.937273 0.246286 0.782048 0.154255
H33   H     H_    0.954379 0.794555 0.248233 0.065876
N1    N     N_3   0.303329 0.451713 0.226020 -0.601324
N2    N     N_3   0.762980 0.672493 0.687470 -0.602561
N3    N     N_3   0.996360 0.263888 0.607118 -0.614964
N4    N     N_3   0.860960 0.824100 0.849111 -0.629156
N5    N     N_3   0.518003 0.319398 0.578658 -0.632889
O1    O     O_R   0.411310 0.359450 0.448800 -0.524241
O2    O     O_R   0.947570 0.089010 0.536620 -0.496576
O3    O     O_R   0.140880 0.089030 0.551840 -0.472434
O4    O     O_R   0.410660 0.462490 0.551220 -0.505325
O5    O     O_R   0.037150 0.089020 0.448130 -0.523330
O6    O     O_R   0.052430 0.910990 0.463380 -0.446191
O7    O     O_R   0.948700 0.910980 0.359670 -0.518289
O8    O     O_R   0.962850 0.910980 0.551870 -0.531547
O9    O     O_R   0.859120 0.910970 0.448160 -0.472710
O10   O     O_R   0.589930 0.448490 0.538390 -0.514719
O11   O     O_R   0.589280 0.551530 0.640800 -0.510976
O12   O     O_R   0.048900 0.462510 0.908320 -0.507053
O13   O     O_R   0.589340 0.537510 0.448780 -0.522037
O14   O     O_R   0.588690 0.640550 0.551200 -0.537083
O15   O     O_R   0.410720 0.448470 0.359200 -0.473562
O16   O     O_R   0.410070 0.551510 0.461610 -0.511699
O17   O     O_R   0.945860 0.359480 0.908360 -0.518296
O18   O     O_3   0.157664 0.190983 0.423350 -0.742000
O19   O     O_3   0.264236 0.602229 0.248986 -0.704071
O20   O     O_3   0.734487 0.735282 0.345698 -0.701605
O21   O     O_3   0.841827 0.806678 0.574729 -0.690945
O22   O     O_3   0.682528 0.773046 0.531531 -0.675270
O23   O     O_R   0.855710 0.448510 0.907250 -0.506049
O24   O     O_3   0.030106 0.190209 0.766287 -0.722325
O25   O     O_3   0.047940 0.760525 0.408228 -0.664583
O26   O     O_3   0.961995 0.592272 0.240893 -0.673367
O27   O     O_3   0.924838 0.811399 0.001099 -0.708981
O28   O     O_3   0.896570 0.650123 0.985351 -0.683937
O29   O     O_3   0.267599 0.260341 0.651947 -0.689747
O30   O     O_R   0.958760 0.551540 0.907200 -0.491689
O31   O     O_R   0.944780 0.537560 0.085320 -0.429919
O32   O     O_R   0.047820 0.640590 0.085270 -0.506771
O33   O     O_R   0.034920 0.448530 0.086440 -0.517717
O34   O     O_R   0.137970 0.551560 0.086390 -0.521669
O35   O     O_R   0.051300 0.089020 0.640330 -0.514384

loop_
_geom_bond_atom_site_label_1
_geom_bond_atom_site_label_2
_ccdc_geom_bond_type
Cu3   O23   S    
C29   O24   S    
C22   C29   S    
C27   C29   D    
H6    O19   S    
C40   O28   S    
C35   C36   D    
Cu4   O32   S    
C3    C6    S    
Cu3   O17   S    
C45   C46   A    
H26   N5    S    
C38   N4    S    
H15   N3    S    
C13   O20   S    
Cu2   O4    S    
Cu4   O30   S    
C12   C43   A    
C30   C31   D    
C19   O23   A    
C11   N1    S    
Cu3   O33   S    
Cu6   O7    S    
C30   H31   S    
Cu6   O5    S    
C18   O12   A    
C6    H12   S    
C12   C37   A    
C2    N5    S    
C33   H33   S    
C18   O17   A    
C16   O14   A    
Cu2   O16   S    
H10   O21   S    
C45   H4    S    
C28   O16   A    
C8    C9    D    
Cu1   O15   S    
H27   O29   S    
C20   O32   A    
Cu5   O6    S    
Cu5   O8    S    
C1    O1    A    
C13   C14   D    
C27   C30   S    
H9    O20   S    
H13   N2    S    
C15   H30   S    
C9    O19   S    
C14   O21   S    
H25   N5    S    
H17   O24   S    
C34   C42   A    
Cu1   O13   S    
Cu5   Cu6   S    
Cu5   O35   S    
C32   C35   S    
Cu4   O34   S    
C24   O5    A    
C39   C40   A    
H8    N1    S    
C16   C17   S    
C22   O35   A    
C7    H23   S    
C39   O27   S    
H24   O28   S    
Cu1   O10   S    
C21   O33   A    
C19   C23   S    
C37   C38   A    
C16   O13   A    
Cu1   Cu2   S    
C13   C15   S    
C28   O15   A    
C23   C34   A    
Cu3   O31   S    
C4    O11   A    
C34   C44   A    
C35   O26   S    
C14   C26   S    
C20   O31   A    
C3    O29   S    
Cu5   O3    S    
C25   O7    A    
C40   C41   A    
C26   O8    A    
C19   O30   A    
Cu4   O12   S    
C2    C46   A    
H16   N3    S    
Cu6   O2    S    
C42   C43   A    
C17   O22   S    
C44   C45   A    
C12   C41   A    
C15   C17   D    
H22   O27   S    
Cu6   O9    S    
H11   N2    S    
C1    C7    S    
Cu1   O1    S    
C37   N2    S    
C3    C5    D    
C1    O4    A    
C6    C7    D    
C4    C43   S    
H18   O25   S    
C26   O9    A    
C10   H29   S    
C23   C41   A    
C32   C33   D    
C21   O34   A    
C4    O10   A    
H7    N1    S    
H21   N4    S    
C24   O3    A    
H20   N4    S    
C44   H3    S    
C9    C21   S    
C38   C39   A    
C5    C24   S    
C11   C28   S    
C2    C42   A    
Cu2   O11   S    
C46   H1    S    
H19   O26   S    
C32   O25   S    
C27   N3    S    
C36   H2    S    
C10   C11   D    
C31   H32   S    
C20   C36   S    
H5    O18   S    
C25   O6    A    
C8    C10   S    
Cu3   Cu4   S    
C8    H28   S    
C22   O2    A    
C18   C31   S    
H14   O22   S    
C25   C33   S    
C5    O18   S    
Cu2   O14   S    
