data_mof_unit_61001.cif
_audit_creation_date              2012-12-10T16:57:51-0500
_audit_creation_method            fapswitch 2.2
_symmetry_space_group_name_H-M    P1
_symmetry_Int_Tables_number       1
_space_group_crystal_system       triclinic
_cell_length_a                    13.123112
_cell_length_b                    13.133054
_cell_length_c                    15.10432
_cell_angle_alpha                 86.335099
_cell_angle_beta                  100.253104
_cell_angle_gamma                 91.359564
_cell_volume                      2556.166567

loop_
_atom_site_label
_atom_site_type_symbol
_atom_type_description
_atom_site_fract_x
_atom_site_fract_y
_atom_site_fract_z
_atom_type_partial_charge
C1    C     C_R   0.464889 0.773161 0.465689 0.521071
C2    C     C_2   0.515262 0.056959 0.484835 -0.125271
C3    C     C_2   0.455272 0.884022 0.449677 -0.104868
C4    C     C_R   0.536645 0.227688 0.534364 0.465961
C5    C     C_2   0.526174 0.945775 0.494352 -0.106233
C6    C     C_2   0.111980 0.447622 0.466666 -0.096616
C7    C     C_2   0.050661 0.526089 0.470549 -0.107666
C8    C     C_2   0.888857 0.560787 0.528784 0.013412
C9    C     C_2   0.942084 0.506147 0.479606 -0.129050
C10   C     C_R   0.777163 0.538090 0.525025 0.470419
C11   C     C_R   0.223375 0.462856 0.473816 0.517205
C12   C     C_R   0.385185 0.441544 0.111451 -0.120641
C13   C     C_R   0.514286 0.517250 0.741460 0.512013
C14   C     C_R   0.485430 0.482039 0.259159 0.498141
C15   C     C_R   0.524707 0.519992 0.839141 0.027969
C16   C     C_R   0.477696 0.475808 0.162712 0.038212
C17   C     C_R   0.374826 0.440911 0.018187 -0.126131
C18   C     C_2   0.597240 0.082811 0.645785 0.232733
C19   C     C_2   0.936746 0.643651 0.586188 0.225169
C20   C     C_R   0.559820 0.510937 0.121016 -0.117170
C21   C     C_R   0.548724 0.514190 0.027200 0.046859
C22   C     C_R   0.455884 0.477707 0.975513 0.044388
C23   C     C_R   0.445192 0.479577 0.881937 -0.112630
C24   C     C_R   0.615468 0.558774 0.890303 -0.119250
C25   C     C_R   0.627913 0.554901 0.984034 -0.129375
C26   C     C_2   0.551955 0.118318 0.551713 0.032426
H1    H     H_    0.374643 0.450502 0.842280 0.133217
H2    H     H_    0.592710 0.913720 0.539825 0.204792
H3    H     H_    0.473935 0.090267 0.421056 0.114652
H4    H     H_    0.389668 0.915220 0.402289 0.111182
H5    H     H_    0.640795 0.136677 0.690006 0.104821
H6    H     H_    0.887745 0.699615 0.607067 0.135379
H7    H     H_    0.904364 0.442171 0.444062 0.144224
H8    H     H_    0.082202 0.603332 0.472139 0.188918
H9    H     H_    0.082327 0.369930 0.472564 0.104470
H10   H     H_    0.677749 0.589674 0.857906 0.140591
H11   H     H_    0.303072 0.413420 0.979425 0.118361
H12   H     H_    0.699080 0.583852 0.022633 0.115313
H13   H     H_    0.321215 0.415183 0.143808 0.118803
H14   H     H_    0.630367 0.539111 0.161350 0.106193
O1    O     O_3   0.500000 0.500000 0.500000 -0.441256
O2    O     O_R   0.563230 0.581310 0.697440 -0.532064
O3    O     O_R   0.421030 0.536630 0.288090 -0.539910
O4    O     O_R   0.459330 0.447650 0.700640 -0.540805
O5    O     O_R   0.556410 0.434400 0.313840 -0.540107
O6    O     O_2   0.583036 0.996405 0.676391 -0.496834
O7    O     O_2   0.029884 0.648368 0.613831 -0.507179
O8    O     O_R   0.733070 0.467190 0.476550 -0.542827
O9    O     O_R   0.261010 0.525210 0.419080 -0.535817
O10   O     O_R   0.532760 0.736590 0.530220 -0.528465
O11   O     O_R   0.473150 0.271000 0.574150 -0.535852
O12   O     O_R   0.407210 0.713280 0.414580 -0.533295
O13   O     O_R   0.586880 0.279120 0.481060 -0.539756
O14   O     O_R   0.723250 0.592730 0.566440 -0.557097
O15   O     O_R   0.282660 0.414860 0.537920 -0.525384
Zn1   Zn    Zn3+2 0.592480 0.421540 0.443840 0.934504
Zn2   Zn    Zn3+2 0.578450 0.600910 0.572270 0.957796
Zn3   Zn    Zn3+2 0.430000 0.409940 0.576840 0.959787
Zn4   Zn    Zn3+2 0.399070 0.567610 0.407050 0.952568

loop_
_geom_bond_atom_site_label_1
_geom_bond_atom_site_label_2
_ccdc_geom_bond_type
C12   C17   A    
C8    C9    D    
C3    H4    S    
C4    C26   S    
O1    Zn1   S    
C6    C7    D    
C11   O9    A    
O12   Zn4   S    
C23   H1    S    
C25   H12   S    
C5    H2    S    
C1    O10   A    
C17   C22   A    
O9    Zn4   S    
O3    Zn4   S    
C16   C20   A    
C14   O3    A    
C12   H13   S    
C15   C23   A    
O1    Zn2   S    
C2    C26   D    
O11   Zn3   S    
C17   H11   S    
C21   C22   A    
C20   C21   A    
C9    H7    S    
C24   H10   S    
O8    Zn1   S    
C2    H3    S    
C20   H14   S    
C19   H6    S    
C18   O6    D    
O2    Zn2   S    
C13   O2    A    
C7    H8    S    
O1    Zn3   S    
C14   O5    A    
C19   O7    D    
C13   C15   S    
C10   O8    A    
C10   O14   A    
C1    O12   A    
C14   C16   S    
O13   Zn1   S    
C4    O13   A    
C4    O11   A    
C2    C5    S    
C11   O15   A    
C24   C25   A    
O1    Zn4   S    
C8    C10   S    
O15   Zn3   S    
C6    C11   S    
C7    C9    S    
C21   C25   A    
C22   C23   A    
C15   C24   A    
C18   H5    S    
C3    C5    D    
O10   Zn2   S    
C13   O4    A    
C6    H9    S    
C12   C16   A    
O5    Zn1   S    
O4    Zn3   S    
C8    C19   S    
C1    C3    S    
O14   Zn2   S    
C18   C26   S    
