data_mof_unit_36461.cif
_audit_creation_date              2012-10-26T19:27:33-0400
_audit_creation_method            fapswitch 2.2
_symmetry_space_group_name_H-M    P1
_symmetry_Int_Tables_number       1
_space_group_crystal_system       triclinic
_cell_length_a                    20.504928
_cell_length_b                    21.343021
_cell_length_c                    14.753354
_cell_angle_alpha                 89.999885
_cell_angle_beta                  127.981334
_cell_angle_gamma                 90.000019
_cell_volume                      5089.17694969

loop_
_atom_site_label
_atom_site_type_symbol
_atom_type_description
_atom_site_fract_x
_atom_site_fract_y
_atom_site_fract_z
_atom_type_partial_charge
C1    C     C_R   0.602950 0.913456 0.630920 0.551856
C2    C     C_R   0.695352 0.206464 0.104125 -0.134956
C3    C     C_R   0.718471 0.771922 0.959288 0.043489
C4    C     C_R   0.228667 0.721103 0.972501 0.045265
C5    C     C_R   0.781552 0.271905 0.040740 0.043489
C6    C     C_R   0.771340 0.721109 0.027509 0.045265
C7    C     C_R   0.218487 0.271933 0.959307 0.043489
C8    C     C_R   0.331452 0.798890 0.014674 -0.137564
C9    C     C_R   0.687155 0.188573 0.007200 -0.132935
C10   C     C_R   0.668555 0.798896 0.985336 -0.137569
C11   C     C_R   0.312902 0.188610 0.992866 -0.132929
C12   C     C_R   0.831473 0.298876 0.014698 -0.137568
C13   C     C_R   0.669649 0.776158 0.074200 -0.132060
C14   C     C_R   0.187143 0.688581 0.007186 -0.132933
C15   C     C_R   0.168560 0.298899 0.985342 -0.137565
C16   C     C_R   0.812866 0.688587 0.992825 -0.132934
C17   C     C_3   0.359354 0.797160 0.518868 0.012982
C18   C     C_3   0.394981 0.826004 0.635734 -0.241367
C19   C     C_3   0.452644 0.780370 0.733461 -0.500238
C20   C     C_3   0.808266 0.074531 0.708081 0.009218
C21   C     C_3   0.893529 0.098896 0.751992 -0.284687
C22   C     C_3   0.958540 0.047087 0.810718 -0.479219
C23   C     C_3   0.640646 0.797160 0.481138 0.012986
C24   C     C_R   0.304708 0.206502 0.895945 -0.134959
C25   C     C_3   0.605026 0.825997 0.364270 -0.241368
C26   C     C_3   0.547363 0.780362 0.266548 -0.500239
C27   C     C_3   0.191729 0.074500 0.291851 0.009202
C28   C     C_3   0.106451 0.098849 0.247896 -0.284684
C29   C     C_3   0.041455 0.047030 0.189148 -0.479211
C30   C     C_3   0.859360 0.297160 0.518878 0.012982
C31   C     C_3   0.894984 0.326005 0.635741 -0.241366
C32   C     C_3   0.952648 0.280373 0.733471 -0.500237
C33   C     C_3   0.308265 0.574534 0.708085 0.009216
C34   C     C_3   0.393529 0.598900 0.752005 -0.284688
C35   C     C_R   0.830375 0.276140 0.925829 -0.132062
C36   C     C_3   0.458542 0.547093 0.810742 -0.479219
C37   C     C_3   0.140667 0.297152 0.481169 0.012993
C38   C     C_3   0.105046 0.325973 0.364289 -0.241367
C39   C     C_3   0.047387 0.280325 0.266587 -0.500242
C40   C     C_3   0.691736 0.574530 0.291906 0.009215
C41   C     C_3   0.606469 0.598894 0.247974 -0.284689
C42   C     C_3   0.541458 0.547086 0.189231 -0.479218
C43   C     C_3   0.190391 0.038463 0.545392 -0.005313
C44   C     C_3   0.170777 0.076429 0.614050 -0.263610
C45   C     C_3   0.110005 0.129265 0.541767 -0.492056
C46   C     C_R   0.195340 0.706472 0.104110 -0.134957
C47   C     C_3   0.809587 0.038471 0.454518 -0.005310
C48   C     C_3   0.829181 0.076390 0.385793 -0.263625
C49   C     C_3   0.889885 0.129279 0.457958 -0.492056
C50   C     C_3   0.690407 0.538476 0.545453 -0.005314
C51   C     C_3   0.670781 0.576397 0.614139 -0.263619
C52   C     C_3   0.610062 0.629272 0.541938 -0.492054
C53   C     C_3   0.309589 0.538474 0.454533 -0.005315
C54   C     C_3   0.329204 0.576392 0.385831 -0.263622
C55   C     C_3   0.389913 0.629276 0.458014 -0.492055
C56   C     C_R   0.169644 0.276154 0.074195 -0.132059
C57   C     C_R   0.804668 0.706478 0.895901 -0.134958
C58   C     C_R   0.319570 0.993375 0.664590 0.228914
C59   C     C_R   0.680425 0.993355 0.335405 0.228909
C60   C     C_R   0.819573 0.493365 0.664592 0.228908
C61   C     C_R   0.394973 0.085005 0.366305 0.558777
C62   C     C_R   0.180427 0.493360 0.335407 0.228912
C63   C     C_R   0.351037 0.994241 0.602978 0.069201
C64   C     C_R   0.648962 0.994232 0.397019 0.069205
C65   C     C_R   0.851037 0.494238 0.602979 0.069203
C66   C     C_R   0.148962 0.494234 0.397021 0.069214
C67   C     C_R   0.488283 0.001919 0.775389 -0.003093
C68   C     C_R   0.511716 0.001925 0.224610 -0.003090
C69   C     C_R   0.988284 0.501919 0.775390 -0.003093
C70   C     C_R   0.011716 0.501921 0.224610 -0.003087
C71   C     C_R   0.461276 0.998364 0.844458 -0.043322
C72   C     C_R   0.397050 0.913455 0.369081 0.551856
C73   C     C_R   0.538720 0.998362 0.155538 -0.043321
C74   C     C_R   0.961278 0.498358 0.844460 -0.043320
C75   C     C_R   0.038721 0.498358 0.155540 -0.043322
C76   C     C_R   0.374866 0.994861 0.785811 0.044026
C77   C     C_R   0.625129 0.994839 0.214183 0.044007
C78   C     C_R   0.874868 0.494847 0.785814 0.044017
C79   C     C_R   0.125131 0.494842 0.214185 0.044012
C80   C     C_R   0.516330 0.997535 0.968573 0.027151
C81   C     C_R   0.483665 0.997544 0.031423 0.027151
C82   C     C_R   0.016332 0.497532 0.968575 0.027153
C83   C     C_R   0.605029 0.085004 0.633697 0.558777
C84   C     C_R   0.983667 0.497534 0.031424 0.027154
C85   C     C_R   0.397146 0.994796 0.968076 -0.163558
C86   C     C_R   0.602847 0.994756 0.031918 -0.163567
C87   C     C_R   0.897149 0.494771 0.968078 -0.163561
C88   C     C_R   0.102850 0.494762 0.031920 -0.163565
C89   C     C_R   0.344431 0.992500 0.848627 -0.119600
C90   C     C_R   0.655561 0.992454 0.151365 -0.119635
C91   C     C_R   0.844435 0.492472 0.848631 -0.119620
C92   C     C_R   0.155564 0.492462 0.151368 -0.119626
C93   C     C_R   0.667095 0.132663 0.711222 -0.003967
C94   C     C_R   0.102952 0.413457 0.630922 0.551855
C95   C     C_R   0.340711 0.861492 0.299725 0.001101
C96   C     C_R   0.332913 0.132668 0.288788 -0.003965
C97   C     C_R   0.659292 0.861494 0.700278 0.001102
C98   C     C_R   0.167091 0.632665 0.711217 -0.003968
C99   C     C_R   0.840716 0.361488 0.299731 0.001104
C100  C     C_R   0.832911 0.632667 0.288785 -0.003968
C101  C     C_R   0.159301 0.361500 0.700289 0.001097
C102  C     C_R   0.780131 0.202869 0.771586 -0.107049
C103  C     C_R   0.251575 0.775152 0.266625 -0.122376
C104  C     C_R   0.219864 0.202865 0.228408 -0.107052
C105  C     C_R   0.894972 0.585004 0.366305 0.558776
C106  C     C_R   0.748431 0.775156 0.733383 -0.122372
C107  C     C_R   0.280122 0.702876 0.771574 -0.107048
C108  C     C_R   0.751585 0.275146 0.266637 -0.122378
C109  C     C_R   0.719879 0.702878 0.228428 -0.107048
C110  C     C_R   0.248460 0.275173 0.733416 -0.122376
C111  C     C_R   0.730335 0.151922 0.705477 0.268748
C112  C     C_R   0.301739 0.825781 0.334489 0.249559
C113  C     C_R   0.269659 0.151915 0.294510 0.268751
C114  C     C_R   0.698265 0.825783 0.665516 0.249559
C115  C     C_R   0.230331 0.651926 0.705472 0.268749
C116  C     C_R   0.897051 0.413454 0.369082 0.551858
C117  C     C_R   0.801745 0.325777 0.334497 0.249561
C118  C     C_R   0.769669 0.651926 0.294528 0.268751
C119  C     C_R   0.198282 0.325793 0.665536 0.249556
C120  C     C_R   0.663996 0.158219 0.795851 -0.187139
C121  C     C_R   0.330274 0.845438 0.199910 -0.193323
C122  C     C_R   0.336032 0.158240 0.204186 -0.187137
C123  C     C_R   0.669731 0.845442 0.800096 -0.193322
C124  C     C_R   0.163988 0.658224 0.795842 -0.187137
C125  C     C_R   0.830282 0.345431 0.199919 -0.193320
C126  C     C_R   0.836017 0.658228 0.204165 -0.187137
C127  C     C_R   0.105028 0.585004 0.633696 0.558775
C128  C     C_R   0.169740 0.345450 0.800108 -0.193323
C129  C     C_R   0.722848 0.201984 0.875520 0.014840
C130  C     C_R   0.285530 0.792141 0.135882 0.013551
C131  C     C_R   0.277182 0.202006 0.124518 0.014840
C132  C     C_R   0.714477 0.792146 0.864127 0.013552
C133  C     C_R   0.222836 0.701993 0.875506 0.014841
C134  C     C_R   0.785543 0.292132 0.135897 0.013550
C135  C     C_R   0.777169 0.701998 0.124502 0.014840
C136  C     C_R   0.214496 0.292159 0.864150 0.013555
C137  C     C_R   0.777310 0.227593 0.856850 0.005069
C138  C     C_R   0.330357 0.776153 0.925807 -0.132057
C139  C     C_R   0.243799 0.757927 0.168659 0.004094
C140  C     C_R   0.222705 0.227604 0.143169 0.005069
C141  C     C_R   0.756209 0.757932 0.831350 0.004093
C142  C     C_R   0.277297 0.727603 0.856835 0.005069
C143  C     C_R   0.743810 0.257919 0.168674 0.004093
C144  C     C_R   0.722708 0.727607 0.143171 0.005068
C145  C     C_R   0.256239 0.257951 0.831384 0.004089
C146  C     C_R   0.728680 0.221093 0.972517 0.045265
C147  C     C_R   0.281536 0.771916 0.040721 0.043489
C148  C     C_R   0.271363 0.221124 0.027535 0.045265
Cu1   Cu    Cu3+1 0.526640 0.000000 0.436960 0.944687
Cu2   Cu    Cu3+1 0.473360 0.000000 0.563040 0.944682
Cu3   Cu    Cu3+1 0.026640 0.500000 0.436960 0.944700
Cu4   Cu    Cu3+1 0.973360 0.500000 0.563040 0.944686
H1    H     H_    0.371966 0.796410 0.911701 0.108086
H2    H     H_    0.632040 0.992521 0.991332 0.090762
H3    H     H_    0.610039 0.617819 0.321059 0.158939
H4    H     H_    0.586289 0.636981 0.184606 0.151180
H5    H     H_    0.535637 0.528439 0.114243 0.149541
H6    H     H_    0.480606 0.566256 0.158465 0.148101
H7    H     H_    0.558521 0.508318 0.250418 0.151372
H8    H     H_    0.131315 0.022936 0.463677 0.158328
H9    H     H_    0.221585 0.069234 0.521356 0.139333
H10   H     H_    0.143384 0.045220 0.642942 0.174386
H11   H     H_    0.228900 0.096810 0.691183 0.154376
H12   H     H_    0.134618 0.159516 0.508111 0.134639
H13   H     H_    0.867955 0.492547 0.008664 0.090764
H14   H     H_    0.100534 0.158166 0.595407 0.146589
H15   H     H_    0.049458 0.109749 0.468256 0.148274
H16   H     H_    0.868672 0.022976 0.536253 0.158313
H17   H     H_    0.778385 0.069264 0.478515 0.139315
H18   H     H_    0.856622 0.045162 0.356997 0.174370
H19   H     H_    0.771043 0.096717 0.308601 0.154401
H20   H     H_    0.865197 0.159569 0.491465 0.134634
H21   H     H_    0.899368 0.158126 0.404277 0.146641
H22   H     H_    0.950438 0.109823 0.531564 0.148247
H23   H     H_    0.631335 0.522973 0.463709 0.158313
H24   H     H_    0.132043 0.492534 0.991335 0.090762
H25   H     H_    0.721618 0.569271 0.521473 0.139321
H26   H     H_    0.643339 0.545166 0.642932 0.174385
H27   H     H_    0.728906 0.596737 0.691331 0.154394
H28   H     H_    0.634747 0.659561 0.508426 0.134634
H29   H     H_    0.600559 0.658123 0.595593 0.146618
H30   H     H_    0.549520 0.609800 0.468334 0.148256
H31   H     H_    0.368666 0.522976 0.536276 0.158312
H32   H     H_    0.278380 0.569270 0.478516 0.139317
H33   H     H_    0.356649 0.545162 0.357044 0.174380
H34   H     H_    0.271074 0.596724 0.308635 0.154397
H35   H     H_    0.357137 0.876098 0.173084 0.125133
H36   H     H_    0.365223 0.659565 0.491518 0.134634
H37   H     H_    0.399408 0.658123 0.404347 0.146628
H38   H     H_    0.450460 0.609812 0.531623 0.148251
H39   H     H_    0.614368 0.143998 0.797639 0.136416
H40   H     H_    0.642867 0.876102 0.826920 0.125127
H41   H     H_    0.385672 0.144029 0.202419 0.136420
H42   H     H_    0.857144 0.376092 0.173090 0.125132
H43   H     H_    0.114361 0.644002 0.797628 0.136418
H44   H     H_    0.142868 0.376107 0.826925 0.125128
H45   H     H_    0.663818 0.179531 0.129038 0.110391
H46   H     H_    0.885646 0.644007 0.202381 0.136418
H47   H     H_    0.323881 0.721053 0.760124 0.110697
H48   H     H_    0.719682 0.248817 0.291576 0.117556
H49   H     H_    0.676119 0.721053 0.239876 0.110699
H50   H     H_    0.280371 0.248848 0.708487 0.117549
H51   H     H_    0.823891 0.221045 0.760136 0.110695
H52   H     H_    0.219672 0.748823 0.291563 0.117554
H53   H     H_    0.176090 0.221029 0.239839 0.110698
H54   H     H_    0.780334 0.748827 0.708445 0.117554
H55   H     H_    0.375670 0.835597 0.064891 0.102791
H56   H     H_    0.628039 0.796414 0.088306 0.108087
H57   H     H_    0.650955 0.146930 0.964341 0.103243
H58   H     H_    0.624339 0.835604 0.935120 0.102787
H59   H     H_    0.349107 0.146970 0.035731 0.103247
H60   H     H_    0.875696 0.335578 0.064923 0.102793
H61   H     H_    0.150944 0.646938 0.964328 0.103243
H62   H     H_    0.124340 0.335604 0.935123 0.102788
H63   H     H_    0.849064 0.646944 0.035684 0.103243
H64   H     H_    0.278652 0.989057 0.805296 0.155997
H65   H     H_    0.721338 0.988985 0.194694 0.156002
H66   H     H_    0.778657 0.489016 0.805301 0.155998
H67   H     H_    0.336250 0.179574 0.871041 0.110394
H68   H     H_    0.221341 0.489001 0.194697 0.156000
H69   H     H_    0.447278 0.005997 0.186839 0.127407
H70   H     H_    0.552722 0.005984 0.813164 0.127402
H71   H     H_    0.947278 0.505991 0.186837 0.127402
H72   H     H_    0.052722 0.505987 0.813164 0.127402
H73   H     H_    0.690253 0.988971 0.489125 0.147992
H74   H     H_    0.309746 0.988981 0.510872 0.147981
H75   H     H_    0.190254 0.488975 0.489126 0.147988
H76   H     H_    0.809746 0.488980 0.510873 0.147986
H77   H     H_    0.412181 0.781025 0.521037 0.117532
H78   H     H_    0.871987 0.296394 0.911726 0.108083
H79   H     H_    0.320271 0.756402 0.504564 0.136133
H80   H     H_    0.430451 0.868873 0.648599 0.204879
H81   H     H_    0.343631 0.839296 0.638126 0.182820
H82   H     H_    0.420282 0.735583 0.719640 0.140749
H83   H     H_    0.473030 0.800983 0.816287 0.142790
H84   H     H_    0.508001 0.770798 0.738363 0.156709
H85   H     H_    0.793602 0.032900 0.653909 0.145615
H86   H     H_    0.810651 0.057305 0.781664 0.116277
H87   H     H_    0.889946 0.117824 0.678899 0.158941
H88   H     H_    0.913716 0.136980 0.815368 0.151173
H89   H     H_    0.163807 0.679539 0.129024 0.110393
H90   H     H_    0.964374 0.028438 0.885713 0.149541
H91   H     H_    0.019388 0.066259 0.841470 0.148099
H92   H     H_    0.941469 0.008322 0.749524 0.151374
H93   H     H_    0.587816 0.781031 0.478966 0.117536
H94   H     H_    0.679727 0.756398 0.495449 0.136130
H95   H     H_    0.569558 0.868870 0.351396 0.204868
H96   H     H_    0.656380 0.839284 0.361884 0.182824
H97   H     H_    0.579725 0.735573 0.280376 0.140752
H98   H     H_    0.526982 0.800971 0.183720 0.142788
H99   H     H_    0.492004 0.770794 0.261642 0.156709
H100  H     H_    0.128024 0.296402 0.088288 0.108081
H101  H     H_    0.206391 0.032865 0.346013 0.145610
H102  H     H_    0.189374 0.057286 0.218286 0.116277
H103  H     H_    0.110004 0.117769 0.320970 0.158939
H104  H     H_    0.086268 0.136936 0.184528 0.151184
H105  H     H_    0.035654 0.028382 0.114176 0.149538
H106  H     H_    0.980593 0.066190 0.158357 0.148100
H107  H     H_    0.058519 0.008265 0.250341 0.151377
H108  H     H_    0.912188 0.281025 0.521050 0.117532
H109  H     H_    0.820278 0.256402 0.504576 0.136130
H110  H     H_    0.930453 0.368875 0.648605 0.204878
H111  H     H_    0.836202 0.679545 0.870988 0.110394
H112  H     H_    0.843633 0.339297 0.638130 0.182822
H113  H     H_    0.920287 0.235586 0.719653 0.140748
H114  H     H_    0.973031 0.300988 0.816296 0.142789
H115  H     H_    0.008006 0.270802 0.738376 0.156707
H116  H     H_    0.293604 0.532903 0.653915 0.145610
H117  H     H_    0.310645 0.557308 0.781664 0.116279
H118  H     H_    0.389951 0.617825 0.678915 0.158940
H119  H     H_    0.413711 0.636986 0.815375 0.151177
H120  H     H_    0.464371 0.528446 0.885736 0.149542
H121  H     H_    0.519391 0.566265 0.841498 0.148100
H122  H     H_    0.367950 0.992583 0.008660 0.090763
H123  H     H_    0.441475 0.508324 0.749555 0.151371
H124  H     H_    0.087838 0.281024 0.479000 0.117541
H125  H     H_    0.179757 0.256392 0.495504 0.136141
H126  H     H_    0.069575 0.368848 0.351395 0.204848
H127  H     H_    0.156400 0.339253 0.361898 0.182818
H128  H     H_    0.079749 0.235533 0.280442 0.140761
H129  H     H_    0.027009 0.300919 0.183751 0.142784
H130  H     H_    0.992025 0.270767 0.261680 0.156708
H131  H     H_    0.706395 0.532900 0.346076 0.145608
H132  H     H_    0.689363 0.557305 0.218332 0.116279
N1    N     N_R   0.433280 0.000000 0.657760 -0.270129
N2    N     N_R   0.566720 0.000000 0.342240 -0.270129
N3    N     N_R   0.933280 0.500000 0.657760 -0.270130
N4    N     N_R   0.066720 0.500000 0.342240 -0.270120
O1    O     O_R   0.600040 0.935040 0.546740 -0.462226
O2    O     O_R   0.444990 0.064930 0.346780 -0.519702
O3    O     O_R   0.444990 0.935070 0.346780 -0.532662
O4    O     O_R   0.555010 0.064930 0.653220 -0.519697
O5    O     O_R   0.055010 0.435070 0.653220 -0.532670
O6    O     O_R   0.944990 0.564930 0.346780 -0.519700
O7    O     O_R   0.944990 0.435070 0.346780 -0.532655
O8    O     O_R   0.055010 0.564930 0.653220 -0.519697
O9    O     O_3   0.309908 0.842170 0.431849 -0.550859
O10   O     O_3   0.745881 0.120165 0.638884 -0.566474
O11   O     O_3   0.690093 0.842171 0.568153 -0.550855
O12   O     O_R   0.399960 0.064960 0.453260 -0.450855
O13   O     O_3   0.254096 0.120143 0.361072 -0.566498
O14   O     O_3   0.809913 0.342168 0.431855 -0.550854
O15   O     O_3   0.245880 0.620168 0.638883 -0.566477
O16   O     O_3   0.190102 0.342175 0.568165 -0.550856
O17   O     O_3   0.754117 0.620166 0.361111 -0.566480
O18   O     O_3   0.235757 0.983966 0.607192 -0.587171
O19   O     O_3   0.764240 0.983950 0.392807 -0.587165
O20   O     O_3   0.735757 0.483962 0.607190 -0.587167
O21   O     O_3   0.264242 0.483956 0.392810 -0.587165
O22   O     O_R   0.399960 0.935040 0.453260 -0.462226
O23   O     O_R   0.600040 0.064960 0.546740 -0.450850
O24   O     O_R   0.100040 0.435040 0.546740 -0.462217
O25   O     O_R   0.899960 0.564960 0.453260 -0.450853
O26   O     O_R   0.899960 0.435040 0.453260 -0.462227
O27   O     O_R   0.100040 0.564960 0.546740 -0.450854
O28   O     O_R   0.555010 0.935070 0.653220 -0.532669

loop_
_geom_bond_atom_site_label_1
_geom_bond_atom_site_label_2
_ccdc_geom_bond_type
C40   H131  S    
Cu1   O3    S    
C87   C91   A    
C42   H7    S    
C67   N1    A    
C49   H21   S    
C62   O21   S    
C124  C133  A    
Cu3   O7    S    
Cu4   O8    S    
C72   O3    A    
C52   H30   S    
C53   H31   S    
C56   C140  A    
C83   C93   S    
C101  C128  A    
C85   H122  S    
C8    C138  A    
C41   C42   S    
C90   H65   S    
C80   C86   A    
C131  C140  A    
C134  C143  A    
C116  O26   A    
C30   O14   S    
C66   H75   S    
Cu2   N1    S    
C53   O21   S    
C51   H26   S    
C41   H4    S    
C7    C15   A    
C61   O12   A    
C21   C22   S    
C102  C111  A    
C73   C81   A    
C22   H91   S    
C109  C118  A    
Cu2   O28   S    
C51   C52   S    
C105  O6    A    
C5    C12   A    
C86   C90   A    
C99   C116  S    
C29   H105  S    
C104  C140  A    
C14   H61   S    
C103  C112  A    
C16   H63   S    
C43   C44   S    
C37   C38   S    
C26   H97   S    
C121  H35   S    
C70   H71   S    
C1    O1    A    
C69   C74   A    
C104  H53   S    
C98   C127  S    
C60   C65   A    
C82   C84   A    
C114  O11   S    
C8    C147  A    
C106  H54   S    
C57   C141  A    
C110  H50   S    
C65   N3    A    
C23   H94   S    
C66   N4    A    
C86   H2    S    
C35   C137  A    
C30   C31   S    
C20   H86   S    
C109  C144  A    
C4    C14   A    
C63   N1    A    
C6    C16   A    
C38   H127  S    
C129  C137  A    
C20   C21   S    
C73   C77   A    
Cu4   O25   S    
C47   O19   S    
C46   H89   S    
C123  H40   S    
C75   C79   A    
C46   C139  A    
C127  O27   A    
C116  O7    A    
C40   C41   S    
C123  C132  A    
Cu2   O4    S    
C121  C130  A    
C3    C6    A    
C19   H84   S    
C59   O19   S    
C61   C96   S    
C58   C76   A    
C87   H13   S    
C53   C54   S    
C98   C124  A    
C60   C78   A    
C133  C142  A    
C29   H107  S    
C30   H108  S    
C55   H37   S    
C94   O5    A    
C24   C145  A    
C38   C39   S    
C11   C148  A    
C9    C146  A    
C13   C144  A    
C39   H128  S    
C10   H58   S    
C54   H33   S    
C117  O14   S    
C44   H11   S    
C119  O16   S    
C45   H14   S    
C76   C89   A    
C126  H46   S    
Cu2   O22   S    
Cu3   O27   S    
C51   H27   S    
C64   H73   S    
C47   H17   S    
C17   O9    S    
C62   C66   A    
C33   H116  S    
C120  C129  A    
C120  H39   S    
C25   C26   S    
C50   H23   S    
C102  C137  A    
C8    H55   S    
C6    C135  A    
C99   C117  A    
C48   H19   S    
C45   H15   S    
C31   C32   S    
C111  O10   S    
C17   C18   S    
C36   H120  S    
C13   H56   S    
C32   H113  S    
C55   H36   S    
C12   C35   A    
C89   H64   S    
C21   H87   S    
C54   H34   S    
C110  C145  A    
C19   H82   S    
C25   H95   S    
C122  C131  A    
C132  C141  A    
C54   C55   S    
C40   H132  S    
Cu1   O2    S    
C130  C147  A    
C108  C117  A    
C34   H118  S    
C110  C119  A    
C49   H20   S    
C50   O20   S    
C88   H24   S    
C35   H78   S    
Cu4   O5    S    
C7    C136  A    
C97   C123  A    
C107  H47   S    
C47   H16   S    
C98   C115  A    
C82   C88   A    
C34   C36   S    
C27   H102  S    
C104  C113  A    
C25   H96   S    
C1    O28   A    
C70   C75   A    
C97   C114  A    
C2    C9    A    
C81   C85   A    
C37   H125  S    
C41   H3    S    
C125  C134  A    
C2    H45   S    
Cu1   N2    S    
C28   H103  S    
C22   H92   S    
C14   C46   A    
C37   O16   S    
C28   C29   S    
C95   C112  A    
C128  C136  A    
C37   H124  S    
C71   C76   A    
C33   O15   S    
C39   H130  S    
C61   O2    A    
C118  O17   S    
C32   H115  S    
C18   C19   S    
C103  H52   S    
C26   H98   S    
Cu3   Cu4   S    
C95   C121  A    
C83   O23   A    
C42   H6    S    
C44   H10   S    
C74   C82   A    
C130  C139  A    
C49   H22   S    
C77   C90   A    
Cu4   N3    S    
C3    C132  A    
C28   H104  S    
C50   H25   S    
C52   H29   S    
C138  C142  A    
C53   H32   S    
C105  O25   A    
C17   H77   S    
C4    C147  A    
C31   H112  S    
C23   H93   S    
C50   C51   S    
C59   C64   A    
C129  C146  A    
C93   C111  A    
C68   N2    A    
C138  H1    S    
C48   C49   S    
C69   N3    A    
C126  C135  A    
C70   N4    A    
C100  C126  A    
C96   C113  A    
C100  C118  A    
C122  H41   S    
C36   H121  S    
C22   H90   S    
C23   O11   S    
C44   C45   S    
C106  C141  A    
C57   H111  S    
C85   C89   A    
C19   H83   S    
C83   O4    A    
C29   H106  S    
C96   C122  A    
C30   H109  S    
C91   H66   S    
C109  H49   S    
Cu1   Cu2   S    
C125  H42   S    
C56   H100  S    
C67   C71   A    
C16   C57   A    
C75   C84   A    
C24   H67   S    
C113  O13   S    
C74   C78   A    
C115  O15   S    
C108  C143  A    
C127  O8    A    
Cu3   O6    S    
C68   H69   S    
C84   C87   A    
C102  H51   S    
Cu3   N4    S    
C59   C77   A    
C17   H79   S    
C18   H81   S    
C72   O22   A    
C99   C125  A    
C100  C105  S    
C94   O24   A    
C106  C114  A    
C31   H110  S    
C45   H12   S    
C20   H85   S    
C11   C24   A    
Cu4   O26   S    
C92   H68   S    
C11   H59   S    
C72   C95   S    
C38   H126  S    
C88   C92   A    
C94   C101  S    
C9    H57   S    
C20   O10   S    
C43   O18   S    
C32   H114  S    
C36   H123  S    
C136  C145  A    
Cu3   O24   S    
C2    C143  A    
C15   H62   S    
C71   C80   A    
C63   H74   S    
C5    C134  A    
Cu1   O1    S    
C101  C119  A    
C55   H38   S    
C62   C79   A    
C12   H60   S    
C43   H8    S    
C1    C97   S    
C68   C73   A    
Cu2   O12   S    
C65   H76   S    
C108  H48   S    
C67   H70   S    
C52   H28   S    
C103  C139  A    
C60   O20   S    
C47   C48   S    
C33   C34   S    
C131  C148  A    
C107  C142  A    
C27   H101  S    
C107  C115  A    
C79   C92   A    
C93   C120  A    
C43   H9    S    
C135  C144  A    
C48   H18   S    
C40   O17   S    
C7    C148  A    
C64   N2    A    
C58   C63   A    
Cu1   O23   S    
C5    C146  A    
C33   H117  S    
C128  H44   S    
C80   C81   A    
C10   C13   A    
C78   C91   A    
C112  O9    S    
C69   H72   S    
C15   C56   A    
C27   O13   S    
C58   O18   S    
C3    C10   A    
C18   H80   S    
C39   H129  S    
C124  H43   S    
C23   C25   S    
C34   H119  S    
C26   H99   S    
C42   H5    S    
C21   H88   S    
C27   C28   S    
C4    C133  A    
