data_mof_unit_35460.cif
_audit_creation_date              2012-10-26T20:40:14-0400
_audit_creation_method            fapswitch 2.2
_symmetry_space_group_name_H-M    P1
_symmetry_Int_Tables_number       1
_space_group_crystal_system       triclinic
_cell_length_a                    15.058301
_cell_length_b                    10.844179
_cell_length_c                    9.646042
_cell_angle_alpha                 92.000839
_cell_angle_beta                  90.280407
_cell_angle_gamma                 94.715713
_cell_volume                      1568.81273835

loop_
_atom_site_label
_atom_site_type_symbol
_atom_type_description
_atom_site_fract_x
_atom_site_fract_y
_atom_site_fract_z
_atom_type_partial_charge
Br1   Br    Br    0.349858 0.317605 0.834371 -0.437186
Br2   Br    Br    0.094947 0.385241 0.078216 -0.550999
C1    C     C_R   0.505349 0.263733 0.497525 0.553127
C2    C     C_R   0.183579 0.463907 0.375755 -0.106426
C3    C     C_R   0.231515 0.494291 0.498993 -0.016622
C4    C     C_R   0.328754 0.498478 0.499642 0.567114
C5    C     C_R   0.186521 0.518908 0.622232 -0.101227
C6    C     C_R   0.612778 0.148849 0.699593 -0.115751
C7    C     C_R   0.631996 0.104187 0.827896 -0.073606
C8    C     C_R   0.595559 0.986865 0.864404 0.166647
C9    C     C_R   0.551618 0.908690 0.761215 -0.097836
C10   C     C_R   0.537300 0.950245 0.625469 -0.000784
C11   C     C_R   0.556627 0.077511 0.604843 0.022281
C12   C     C_R   0.907828 0.506953 0.625067 0.016716
C13   C     C_R   0.516596 0.131754 0.492708 0.003415
C14   C     C_R   0.476931 0.057859 0.384643 -0.149042
C15   C     C_R   0.472801 0.930441 0.391123 -0.156433
C16   C     C_R   0.499833 0.738310 0.503447 0.539454
C17   C     C_R   0.501345 0.874221 0.510614 -0.010479
C18   C     C_R   0.648299 0.633312 0.140554 0.176087
C19   C     C_R   0.724272 0.661630 0.059554 -0.143094
C20   C     C_R   0.714667 0.674455 0.919428 -0.210255
C21   C     C_R   0.633759 0.639207 0.856875 -0.117218
C22   C     C_R   0.566875 0.568456 0.926601 0.085612
C23   C     C_R   0.947784 0.426390 0.253343 -0.105087
C24   C     C_R   0.570092 0.566836 0.075861 0.136231
C25   C     C_R   0.436940 0.433264 0.071817 0.021138
C26   C     C_R   0.437809 0.430579 0.924836 0.265066
C27   C     C_R   0.670750 0.494913 0.500161 0.531155
C28   C     C_R   0.815416 0.506252 0.624764 -0.147373
C29   C     C_R   0.766949 0.484701 0.500845 -0.022863
C30   C     C_R   0.810870 0.455534 0.377465 -0.148668
C31   C     C_R   0.903409 0.453719 0.376395 -0.022652
C32   C     C_R   0.952272 0.481299 0.500167 0.055298
C33   C     C_3   0.649245 0.022128 0.108726 -0.304829
C34   C     C_R   0.040591 0.427508 0.251436 0.156918
C35   C     C_3   0.719364 0.761930 0.337376 -0.298349
C36   C     C_R   0.090363 0.458218 0.374135 0.027609
C37   C     C_R   0.045573 0.484306 0.499075 0.032007
C38   C     C_R   0.093961 0.514337 0.623209 0.018183
C39   C     C_R   0.049132 0.539904 0.746505 -0.090285
C40   C     C_R   0.956500 0.535349 0.747725 -0.116301
Cu1   Cu    Cu3+1 0.499990 0.499990 0.640660 0.982639
Cu2   Cu    Cu3+1 0.500010 0.500010 0.359340 0.964613
H1    H     H_    0.781556 0.525047 0.720696 0.133033
H2    H     H_    0.773271 0.436375 0.281874 0.128944
H3    H     H_    0.910294 0.404238 0.158238 0.137096
H4    H     H_    0.219546 0.444221 0.281861 0.183136
H5    H     H_    0.223517 0.542502 0.717546 0.163554
H6    H     H_    0.085819 0.564114 0.841780 0.164046
H7    H     H_    0.922996 0.555629 0.844079 0.119256
H8    H     H_    0.447683 0.098579 0.296032 0.153110
H9    H     H_    0.590295 0.854003 0.017971 0.247165
H10   H     H_    0.638715 0.982401 0.212028 0.137699
H11   H     H_    0.626872 0.117155 0.116717 0.160336
H12   H     H_    0.639884 0.241439 0.676796 0.137238
H13   H     H_    0.721270 0.024927 0.083610 0.146922
H14   H     H_    0.599962 0.780400 0.239507 0.247437
H15   H     H_    0.699383 0.793731 0.442446 0.138466
H16   H     H_    0.752195 0.842537 0.284241 0.117134
H17   H     H_    0.767674 0.691469 0.348727 0.156024
H18   H     H_    0.671506 0.165031 0.899653 0.109901
H19   H     H_    0.522378 0.821097 0.794247 0.145402
H20   H     H_    0.443974 0.875579 0.303580 0.149476
H21   H     H_    0.385721 0.377803 0.125192 0.153081
H22   H     H_    0.786640 0.699944 0.105343 0.127869
H23   H     H_    0.768402 0.719422 0.860623 0.125239
H24   H     H_    0.626252 0.668279 0.753402 0.184571
N1    N     N_R   0.500860 0.501210 0.147910 -0.265579
N2    N     N_R   0.500890 0.501290 0.852040 -0.242394
N3    N     N_2   0.597375 0.947931 0.004394 -0.519262
N4    N     N_2   0.640683 0.711585 0.260316 -0.439150
O1    O     O_R   0.499990 0.319640 0.618810 -0.457541
O2    O     O_R   0.500000 0.319660 0.381240 -0.516954
O3    O     O_R   0.370250 0.499960 0.618800 -0.455955
O4    O     O_R   0.370260 0.499980 0.381230 -0.511907
O5    O     O_R   0.500000 0.680340 0.618760 -0.539567
O6    O     O_R   0.500010 0.680360 0.381190 -0.483407
O7    O     O_R   0.629740 0.500020 0.618770 -0.540529
O8    O     O_R   0.629750 0.500040 0.381200 -0.471830

loop_
_geom_bond_atom_site_label_1
_geom_bond_atom_site_label_2
_ccdc_geom_bond_type
Cu1   O1    S    
C6    C11   A    
C19   H22   S    
C39   C40   A    
C28   H1    S    
C6    H12   S    
C22   N2    A    
C4    O3    A    
C22   C24   A    
C9    H19   S    
C15   H20   S    
C36   C37   A    
Cu1   O7    S    
C13   C14   A    
C16   C17   S    
Cu2   O4    S    
C1    O2    A    
C14   C15   A    
Br1   C26   S    
C21   C22   A    
C7    C8    A    
C23   H3    S    
C25   N1    A    
C16   O6    A    
C40   H7    S    
C12   C40   A    
C8    N3    S    
C33   N3    S    
C19   C20   A    
C33   H10   S    
C12   C28   A    
Cu1   O3    S    
C33   H11   S    
C7    H18   S    
Cu2   O8    S    
C5    H5    S    
C37   C38   A    
C3    C5    A    
C6    C7    A    
C32   C37   A    
C21   H24   S    
Cu1   Cu2   S    
C25   H21   S    
C29   C30   A    
C27   O7    A    
C28   C29   A    
C5    C38   A    
C31   C32   A    
Cu2   N1    S    
C10   C11   A    
Cu2   O2    S    
C35   H15   S    
C38   C39   A    
C2    C36   A    
Cu1   N2    S    
C11   C13   A    
H9    N3    S    
C39   H6    S    
C1    C13   S    
C2    H4    S    
Br2   C34   S    
C30   H2    S    
C26   N2    A    
C14   H8    S    
C2    C3    A    
C12   C32   A    
C35   H17   S    
C9    C10   A    
C4    O4    A    
Cu1   O5    S    
C33   H13   S    
C30   C31   A    
Cu2   O6    S    
C27   C29   S    
H14   N4    S    
C3    C4    S    
C27   O8    A    
C18   C24   A    
C16   O5    A    
C10   C17   A    
C34   C36   A    
C15   C17   A    
C1    O1    A    
C20   H23   S    
C35   H16   S    
C8    C9    A    
C23   C34   A    
C18   C19   A    
C35   N4    S    
C25   C26   A    
C24   N1    A    
C20   C21   A    
C18   N4    S    
C23   C31   A    
