data_mof_unit_53155.cif
_audit_creation_date              2012-12-10T16:53:31-0500
_audit_creation_method            fapswitch 2.2
_symmetry_space_group_name_H-M    P1
_symmetry_Int_Tables_number       1
_space_group_crystal_system       triclinic
_cell_length_a                    7.864797
_cell_length_b                    8.6061
_cell_length_c                    13.620484
_cell_angle_alpha                 92.827471
_cell_angle_beta                  78.883708
_cell_angle_gamma                 92.680727
_cell_volume                      902.854207167

loop_
_atom_site_label
_atom_site_type_symbol
_atom_type_description
_atom_site_fract_x
_atom_site_fract_y
_atom_site_fract_z
_atom_type_partial_charge
C1    C     C_R   0.544244 0.793576 0.495990 0.967801
C2    C     C_1   0.566932 0.489508 0.120749 0.014559
C3    C     C_2   0.563381 0.952801 0.476319 -0.021371
C4    C     C_2   0.436618 0.047199 0.523681 -0.021370
C5    C     C_3   0.254476 0.539285 0.052720 -0.913809
C6    C     C_3   0.745524 0.460715 0.947280 -0.913809
C7    C     C_3   0.706831 0.998339 0.389162 -0.824069
C8    C     C_3   0.293168 0.001661 0.610837 -0.824071
C9    C     C_2   0.043787 0.395287 0.381651 0.686026
C10   C     C_2   0.956213 0.604713 0.618349 0.686024
C11   C     C_R   0.455756 0.206424 0.504011 0.967799
C12   C     C_R   0.470755 0.503491 0.686764 0.897496
C13   C     C_R   0.529245 0.496508 0.313236 0.897495
C14   C     C_1   0.550382 0.492619 0.209034 -0.190203
C15   C     C_1   0.449618 0.507381 0.790966 -0.190203
C16   C     C_2   0.573572 0.487996 0.016365 0.195863
C17   C     C_2   0.426428 0.512005 0.983635 0.195863
C18   C     C_1   0.433068 0.510492 0.879251 0.014559
H1    H     H_    0.151536 0.558582 0.009540 0.245397
H2    H     H_    0.239417 0.105460 0.655975 0.228714
H3    H     H_    0.184615 0.939669 0.582256 0.298106
H4    H     H_    0.343523 0.927939 0.662720 0.229026
H5    H     H_    0.062466 0.463653 0.315309 -0.000174
H6    H     H_    0.937540 0.536349 0.684691 -0.000175
H7    H     H_    0.214302 0.436446 0.099064 0.245083
H8    H     H_    0.265822 0.643875 0.102500 0.245906
H9    H     H_    0.848464 0.441418 0.990460 0.245397
H10   H     H_    0.734178 0.356126 0.897500 0.245906
H11   H     H_    0.785698 0.563554 0.900936 0.245083
H12   H     H_    0.760581 0.894540 0.344024 0.228713
H13   H     H_    0.656476 0.072062 0.337280 0.229026
H14   H     H_    0.815385 0.060330 0.417744 0.298107
N1    N     N_2   0.954190 0.457600 0.473930 -0.170112
N2    N     N_2   0.045810 0.542400 0.526070 -0.170114
O1    O     O_R   0.388300 0.738660 0.506400 -0.630353
O2    O     O_2   0.906646 0.737659 0.624819 -0.609052
O3    O     O_R   0.611700 0.261340 0.493600 -0.630352
O4    O     O_R   0.679920 0.711490 0.489690 -0.586323
O5    O     O_R   0.320080 0.288510 0.510310 -0.586326
O6    O     O_R   0.333200 0.515510 0.649910 -0.645031
O7    O     O_R   0.666800 0.484490 0.350090 -0.645030
O8    O     O_R   0.624820 0.488340 0.633200 -0.627887
O9    O     O_R   0.375180 0.511660 0.366800 -0.627889
O10   O     O_2   0.093349 0.262340 0.375181 -0.609054
Zn1   Zn    Zn3+2 0.305280 0.518140 0.511160 0.964413
Zn2   Zn    Zn3+2 0.694720 0.481860 0.488840 0.964415

loop_
_geom_bond_atom_site_label_1
_geom_bond_atom_site_label_2
_ccdc_geom_bond_type
C12   O6    A    
C15   C18   T    
C8    H4    S    
O7    Zn2   S    
C5    H1    S    
C2    C16   S    
C6    H9    S    
C12   C15   S    
O5    Zn1   S    
C4    C8    S    
C13   O7    A    
N1    N2    D    
C10   N2    S    
N2    Zn1   S    
C13   C14   S    
C4    C11   S    
C9    N1    S    
N1    Zn2   S    
O9    Zn1   S    
C8    H2    S    
C1    O4    A    
C5    H7    S    
C10   O2    D    
C8    H3    S    
C3    C7    S    
O6    Zn1   S    
C2    C14   T    
O4    Zn2   S    
C5    C17   S    
C6    C16   S    
C3    C4    D    
O1    Zn1   S    
C11   O5    A    
C13   O9    A    
C6    H11   S    
C7    H13   S    
C1    O1    A    
C17   C18   S    
O8    Zn2   S    
C11   O3    A    
C9    H5    S    
C9    O10   D    
C12   O8    A    
C7    H14   S    
C10   H6    S    
O3    Zn2   S    
C6    H10   S    
C5    H8    S    
C16   C17   D    
C1    C3    S    
C7    H12   S    
