data_mof_unit_10894.cif
_audit_creation_date              2013-03-05T15:55:01-0500
_audit_creation_method            fapswitch 2.2
_symmetry_space_group_name_H-M    P1
_symmetry_Int_Tables_number       1
_space_group_crystal_system       triclinic
_cell_length_a                    23.424961
_cell_length_b                    10.578388
_cell_length_c                    10.219389
_cell_angle_alpha                 91.623068
_cell_angle_beta                  87.486873
_cell_angle_gamma                 92.925186
_cell_volume                      2525.75172544

loop_
_atom_site_label
_atom_site_type_symbol
_atom_site_description
_atom_site_fract_x
_atom_site_fract_y
_atom_site_fract_z
_atom_type_partial_charge
O1    O     O_R   0.500000 0.316780 0.614690 -0.619942
O2    O     O_R   0.500000 0.316750 0.385360 -0.611042
C1    C     C_R   0.508994 0.263193 0.497069 0.964776
O3    O     O_R   0.416160 0.499970 0.614690 -0.534978
O4    O     O_R   0.416150 0.499950 0.385360 -0.628299
C2    C     C_R   0.389656 0.497986 0.501168 0.985903
Zn1   Zn    Zn3+2 0.500000 0.500020 0.653130 1.090631
Zn2   Zn    Zn3+2 0.500000 0.499980 0.346870 1.088265
O5    O     O_R   0.500000 0.683250 0.614640 -0.604895
O6    O     O_R   0.500000 0.683220 0.385310 -0.519314
O7    O     O_R   0.583850 0.500050 0.614640 -0.595461
O8    O     O_R   0.583840 0.500030 0.385310 -0.576246
C3    C     C_R   0.494666 0.739745 0.502273 0.857078
C4    C     C_R   0.610021 0.505912 0.497018 0.865078
C5    C     C_R   0.885299 0.678180 0.483687 0.590013
N1    N     N_R   0.852358 0.567441 0.492007 -0.353785
C6    C     C_R   0.876892 0.453797 0.503775 0.587828
C7    C     C_R   0.935992 0.447404 0.490810 -0.023980
C8    C     C_R   0.970129 0.560777 0.496012 -0.037963
C9    C     C_R   0.944669 0.678488 0.502131 -0.165438
C10   C     C_R   0.961383 0.331038 0.468973 -0.053134
C11   C     C_R   0.020251 0.327889 0.447139 -0.070441
C12   C     C_R   0.054675 0.439478 0.460158 -0.027564
C13   C     C_R   0.029803 0.555392 0.492105 0.011875
C14   C     C_R   0.064563 0.664927 0.518656 -0.145307
C15   C     C_R   0.039306 0.784468 0.531295 -0.166347
C16   C     C_R   0.979449 0.790994 0.519262 0.329647
C17   C     C_R   0.113788 0.438531 0.442609 0.592995
N2    N     N_R   0.147178 0.538099 0.489434 -0.333537
C18   C     C_R   0.123248 0.647625 0.534774 0.536236
O9    O     O_2   0.860871 0.785715 0.453637 -0.421010
O10   O     O_2   0.844017 0.347010 0.524239 -0.475149
H1    H     H_    0.935653 0.243270 0.462420 0.246482
H2    H     H_    0.038880 0.237622 0.425278 0.227814
O11   O     O_2   0.137731 0.339108 0.380028 -0.492597
O12   O     O_2   0.156014 0.737222 0.596402 -0.501445
C19   C     C_R   0.245472 0.616810 0.426725 -0.122677
C20   C     C_R   0.304791 0.610727 0.440393 0.248467
C21   C     C_R   0.326949 0.505444 0.498770 -0.287714
C22   C     C_R   0.289387 0.402927 0.536281 0.185046
C23   C     C_R   0.230487 0.422331 0.550699 0.290040
C24   C     C_R   0.208214 0.527172 0.491126 0.019855
C25   C     C_R   0.764768 0.487529 0.386573 0.289604
C26   C     C_R   0.705709 0.460845 0.398827 0.185918
C27   C     C_R   0.672160 0.531869 0.488331 -0.265398
C28   C     C_R   0.697545 0.635005 0.559894 -0.133258
C29   C     C_R   0.757643 0.641405 0.569470 -0.052857
C30   C     C_R   0.791244 0.567919 0.481133 0.038853
C31   C     C_R   0.554560 0.126031 0.713807 -0.052857
H3    H     H_    0.583927 0.207603 0.698726 0.191084
C32   C     C_R   0.543015 0.081793 0.838416 -0.133200
C33   C     C_R   0.498906 0.986998 0.858051 -0.166953
C34   C     C_R   0.479518 0.913736 0.748590 0.403908
C35   C     C_R   0.499650 0.949191 0.621431 -0.061734
C36   C     C_R   0.526934 0.068759 0.608450 -0.006192
C37   C     C_R   0.524365 0.130868 0.491174 -0.092199
C38   C     C_R   0.516987 0.059506 0.376348 -0.139952
C39   C     C_R   0.492933 0.937579 0.384638 0.237158
C40   C     C_R   0.489718 0.877090 0.505477 -0.140404
C41   C     C_R   0.430233 0.328980 0.149793 -0.094012
H4    H     H_    0.427714 0.330339 0.253139 0.235927
C42   C     C_R   0.399318 0.230998 0.092685 -0.219942
H5    H     H_    0.374662 0.163025 0.152251 0.259921
C43   C     C_R   0.398264 0.222548 0.959485 -0.182336
H6    H     H_    0.369914 0.149861 0.916820 0.248098
C44   C     C_R   0.425721 0.315300 0.880680 0.326876
C45   C     C_R   0.463292 0.414151 0.933503 0.017169
C46   C     C_R   0.464139 0.416765 0.076201 0.147281
N3    N     N_R   0.499460 0.498800 0.142780 -0.120003
C47   C     C_R   0.539741 0.568530 0.068271 -0.002988
C48   C     C_R   0.538887 0.569999 0.926924 0.360980
N4    N     N_R   0.499440 0.498720 0.857170 -0.144682
N5    N     N_R   0.679856 0.359979 0.322302 0.256507
O13   O     O_R   0.664796 0.253317 0.377307 -0.323874
O14   O     O_R   0.676777 0.369861 0.196217 -0.288279
C49   C     C_2   0.661008 0.738625 0.611648 0.672485
H7    H     H_    0.616625 0.739225 0.586070 0.034652
O15   O     O_2   0.679450 0.826273 0.680191 -0.464752
C50   C     C_2   0.785591 0.711452 0.678924 0.624150
H8    H     H_    0.805466 0.658987 0.752881 0.052700
O16   O     O_2   0.789965 0.826953 0.682719 -0.405204
C51   C     C_2   0.548701 0.092959 0.253869 0.481360
H9    H     H_    0.556704 0.017643 0.182849 0.048757
O17   O     O_2   0.569447 0.199078 0.234297 -0.473442
C52   C     C_2   0.576316 0.140960 0.944091 0.470344
H10   H     H_    0.599540 0.081768 0.005223 0.123223
O18   O     O_2   0.581514 0.256069 0.956939 -0.526632
C53   C     C_2   0.466050 0.986015 0.984347 0.548925
H11   H     H_    0.480877 0.044250 0.064976 0.023259
O19   O     O_2   0.418946 0.931853 0.996621 -0.416185
N6    N     N_R   0.433424 0.819512 0.764656 0.241922
O20   O     O_R   0.387645 0.825184 0.698100 -0.294139
O21   O     O_R   0.436423 0.729551 0.847938 -0.304607
N7    N     N_R   0.459912 0.888660 0.278720 0.233258
O22   O     O_R   0.482529 0.816345 0.187683 -0.340578
O23   O     O_R   0.412231 0.941134 0.258102 -0.266380
C54   C     C_2   0.589994 0.631076 0.130690 0.580507
H12   H     H_    0.632657 0.614198 0.090805 0.113168
O24   O     O_2   0.584967 0.705763 0.222641 -0.545146
N8    N     N_R   0.398217 0.323790 0.762954 0.232558
O25   O     O_R   0.401099 0.227239 0.681631 -0.348991
O26   O     O_R   0.350583 0.382367 0.773548 -0.343302
N9    N     N_R   0.582861 0.641325 0.857352 0.182584
O27   O     O_R   0.632877 0.593694 0.841349 -0.400717
O28   O     O_R   0.579004 0.763089 0.851238 -0.410595
C55   C     C_2   0.075174 0.903871 0.545297 0.627977
H13   H     H_    0.115952 0.915069 0.491300 0.112481
O29   O     O_2   0.059691 0.990541 0.617665 -0.461519
N10   N     N_R   0.954333 0.911963 0.526424 0.265352
O30   O     O_R   0.922775 0.944019 0.628751 -0.254713
O31   O     O_R   0.965195 0.992321 0.433469 -0.355485
C56   C     C_2   0.221618 0.711020 0.340424 0.612951
H14   H     H_    0.179248 0.693569 0.302918 0.022623
O32   O     O_2   0.248202 0.808858 0.310335 -0.427439
N11   N     N_R   0.343134 0.706238 0.385542 0.236074
O33   O     O_R   0.361454 0.694113 0.264035 -0.256975
O34   O     O_R   0.349729 0.814804 0.447152 -0.240823
N12   N     N_R   0.309694 0.277021 0.539781 0.275319
O35   O     O_R   0.344881 0.237713 0.447045 -0.361175
O36   O     O_R   0.289263 0.196923 0.626360 -0.200467
N13   N     N_R   0.192905 0.336703 0.624690 0.252678
O37   O     O_R   0.162346 0.380269 0.723702 -0.310210
O38   O     O_R   0.182251 0.221204 0.581954 -0.246855
N14   N     N_R   0.798651 0.428226 0.283451 0.238060
O39   O     O_R   0.839045 0.493829 0.220672 -0.343239
O40   O     O_R   0.791358 0.307764 0.255971 -0.235726

loop_
_geom_bond_atom_site_label_1
_geom_bond_atom_site_label_2
_geom_bond_distance
_ccdc_geom_bond_type
C22   N12   1.438869 S    
C36   C37   1.388026 A    
N2    C24   1.441205 S    
C7    C10   1.402269 A    
C23   C24   1.413503 A    
C8    C9    1.406497 A    
C29   C50   1.482088 S    
N1    C30   1.441022 S    
C28   C49   1.495647 S    
C54   H12   1.084025 S    
C52   H10   1.079368 S    
C26   C27   1.406077 A    
Zn1   O7    1.986183 S    
Zn2   N3    2.085948 S    
C19   C20   1.407549 A    
C17   N2    1.367587 A    
C49   O15   1.218928 D    
C45   N4    1.424826 A    
N10   O31   1.300845 A    
C20   C21   1.410483 A    
O7    C4    1.326743 A    
C10   H1    1.082891 S    
C55   H13   1.084856 S    
C44   N8    1.396629 S    
N11   O33   1.300920 A    
C37   C38   1.389613 A    
C41   C42   1.365845 A    
C7    C8    1.408142 A    
N5    O13   1.300551 A    
C23   N13   1.437461 S    
C19   C24   1.412269 A    
O5    C3    1.323061 A    
N12   O35   1.301761 A    
C19   C56   1.494339 S    
C42   C43   1.362849 A    
C28   C29   1.413516 A    
C17   O11   1.349207 S    
N1    C6    1.369212 A    
C31   C32   1.379995 A    
C34   N6    1.438821 S    
C12   C13   1.408239 A    
C47   C48   1.446024 A    
N2    C18   1.372738 A    
C25   C30   1.412029 A    
C47   C54   1.480827 S    
C44   C45   1.440554 A    
O1    Zn1   1.966853 S    
C10   C11   1.389167 A    
N5    O14   1.301139 A    
C32   C52   1.467068 S    
N3    C47   1.382759 A    
O3    Zn1   2.019642 S    
C56   O32   1.220217 D    
C56   H14   1.084785 S    
C54   O24   1.216075 D    
C4    C27   1.466738 S    
C35   C40   1.412408 A    
C52   O18   1.221476 D    
C5    C9    1.411448 A    
C11   H2    1.083525 S    
C45   C46   1.458755 A    
C33   C53   1.473472 S    
C49   H7    1.083471 S    
O3    C2    1.338752 A    
Zn1   N4    2.085061 S    
C50   O16   1.220551 D    
C46   N3    1.357650 A    
N11   O34   1.299498 A    
C14   C15   1.423459 A    
C31   C36   1.388973 A    
C32   C33   1.414535 A    
C41   H4    1.054922 S    
O1    C1    1.327385 A    
C43   C44   1.399945 A    
C25   C26   1.398647 A    
C42   H5    1.082938 S    
C15   C55   1.487882 S    
N6    O21   1.301100 A    
C1    C37   1.461999 S    
C29   C30   1.413922 A    
Zn2   O8    2.019639 S    
N8    O26   1.302664 A    
C6    C7    1.389843 A    
C15   C16   1.418235 A    
N9    O28   1.299283 A    
C12   C17   1.388976 A    
C13   C14   1.408728 A    
N7    O23   1.300214 A    
C41   C46   1.403806 A    
N13   O37   1.300914 A    
C22   C23   1.406001 A    
C53   O19   1.220225 D    
C51   H9    1.080378 S    
C51   O17   1.218548 D    
C34   C35   1.416875 A    
N6    O20   1.299632 A    
C33   C34   1.420464 A    
N14   O40   1.301389 A    
C14   C18   1.413376 A    
Zn1   O5    1.988677 S    
C48   N9    1.422225 S    
C35   C36   1.394793 A    
C2    C21   1.476353 S    
C11   C12   1.401686 A    
O2    Zn2   1.988676 S    
O8    C4    1.317837 A    
O6    C3    1.325107 A    
O4    Zn2   1.986185 S    
C5    O9    1.348114 S    
C3    C40   1.462725 S    
C9    C16   1.418643 A    
C18   O12   1.348497 S    
C43   H6    1.084736 S    
O2    C1    1.318525 A    
C39   C40   1.404201 A    
C48   N4    1.373593 A    
N10   O30   1.301038 A    
C20   N11   1.427254 S    
C38   C39   1.384212 A    
O4    C2    1.312210 A    
C55   O29   1.221093 D    
N8    O25   1.300935 A    
C8    C13   1.400678 A    
C39   N7    1.427798 S    
N7    O22   1.299702 A    
N12   O36   1.301446 A    
N13   O38   1.301551 A    
C50   H8    1.084892 S    
C21   C22   1.412023 A    
C27   C28   1.416139 A    
C53   H11   1.074047 S    
C16   N10   1.434150 S    
Zn2   O6    1.966855 S    
C31   H3    1.085911 S    
N9    O27   1.300802 A    
C6    O10   1.350314 S    
C38   C51   1.469866 S    
C25   N14   1.440188 S    
C5    N1    1.372071 A    
N14   O39   1.301345 A    
C26   N5    1.430083 S    
