data_mof_unit_50215.cif
_audit_creation_date              2012-12-10T17:54:15-0500
_audit_creation_method            fapswitch 2.2
_symmetry_space_group_name_H-M    P1
_symmetry_Int_Tables_number       1
_space_group_crystal_system       triclinic
_cell_length_a                    27.675925
_cell_length_b                    10.609068
_cell_length_c                    9.919503
_cell_angle_alpha                 90.070184
_cell_angle_beta                  89.945875
_cell_angle_gamma                 91.810209
_cell_volume                      2911.06563333

loop_
_atom_site_label
_atom_site_type_symbol
_atom_type_description
_atom_site_fract_x
_atom_site_fract_y
_atom_site_fract_z
_atom_type_partial_charge
C1    C     C_R   0.499303 0.260721 0.499981 0.875035
C2    C     C_R   0.972600 0.353563 0.480928 0.020304
C3    C     C_R   0.975674 0.583947 0.442884 0.061657
C4    C     C_R   0.406059 0.498112 0.499976 0.850149
C5    C     C_R   0.948863 0.469452 0.465204 0.032010
C6    C     C_R   0.944222 0.238791 0.475780 0.186876
C7    C     C_R   0.893946 0.242914 0.486416 -0.136791
C8    C     C_R   0.870690 0.357859 0.487647 -0.071154
C9    C     C_R   0.897920 0.471139 0.472183 -0.053869
C10   C     C_R   0.874122 0.586351 0.464254 -0.018044
C11   C     C_R   0.823774 0.586117 0.473915 0.521827
C12   C     C_R   0.277045 0.483369 0.619293 -0.098252
C13   C     C_R   0.820257 0.362046 0.496674 0.514469
C14   C     C_R   0.721599 0.498876 0.373425 -0.055478
C15   C     C_R   0.671682 0.506651 0.375985 -0.149656
C16   C     C_R   0.500638 0.739181 0.500046 0.890358
C17   C     C_R   0.671981 0.470798 0.617943 -0.170191
C18   C     C_R   0.722037 0.462771 0.614947 -0.065022
C19   C     C_R   0.746754 0.477424 0.492759 0.304587
C20   C     C_R   0.023292 0.358645 0.502296 0.049525
C21   C     C_R   0.050179 0.470437 0.469907 0.073461
C22   C     C_R   0.026514 0.581273 0.431898 0.044434
C23   C     C_R   0.252553 0.475840 0.496166 0.317283
C24   C     C_R   0.047635 0.259351 0.564367 -0.224352
C25   C     C_R   0.104806 0.685425 0.389788 -0.132577
C26   C     C_R   0.950783 0.697972 0.435848 -0.214154
C27   C     C_R   0.900879 0.698956 0.446892 -0.135739
C28   C     C_R   0.593919 0.499800 0.499833 0.839109
C29   C     C_R   0.054692 0.686609 0.387575 -0.220371
C30   C     C_R   0.590291 0.140952 0.504056 -0.245726
C31   C     C_R   0.634300 0.080780 0.506651 -0.201578
C32   C     C_R   0.635210 0.949372 0.507579 0.511356
C33   C     C_R   0.591701 0.878558 0.505065 -0.272368
C34   C     C_R   0.101154 0.472284 0.478645 -0.053880
C35   C     C_R   0.546835 0.938900 0.502500 0.016709
C36   C     C_R   0.546050 0.070561 0.502167 0.065730
C37   C     C_R   0.500791 0.128181 0.499970 -0.076441
C38   C     C_R   0.456707 0.058911 0.498506 0.160663
C39   C     C_R   0.458095 0.929422 0.498364 -0.188299
C40   C     C_R   0.175427 0.370595 0.536376 0.504662
C41   C     C_R   0.502348 0.871432 0.500238 -0.106324
C42   C     C_R   0.436328 0.335415 0.139829 -0.160761
C43   C     C_R   0.404795 0.254479 0.069766 -0.189403
C44   C     C_R   0.404748 0.254524 0.930193 -0.183936
C45   C     C_R   0.124891 0.367109 0.529849 -0.017449
C46   C     C_R   0.436240 0.335487 0.860073 -0.157834
C47   C     C_R   0.468577 0.418948 0.927722 0.168948
C48   C     C_R   0.468604 0.418954 0.072197 0.171292
C49   C     C_R   0.530128 0.577464 0.071513 -0.105568
C50   C     C_R   0.530119 0.577419 0.928421 -0.103692
C51   C     C_R   0.178746 0.579148 0.445629 0.505155
C52   C     C_R   0.278233 0.473831 0.374861 -0.101168
C53   C     C_R   0.328365 0.481197 0.376196 -0.219041
C54   C     C_R   0.327302 0.490524 0.621029 -0.224374
C55   C     C_3   0.408375 0.121335 0.497513 -0.895826
C56   C     C_R   0.097688 0.262490 0.575772 -0.142612
C57   C     C_3   0.964218 0.112426 0.438256 -0.949052
C58   C     C_R   0.128358 0.579905 0.437743 -0.022193
C59   C     C_R   0.353263 0.490592 0.499277 -0.038198
C60   C     C_R   0.646539 0.493385 0.498385 -0.044603
H1    H     H_    0.345712 0.496776 0.717224 0.167733
H2    H     H_    0.667578 0.137215 0.507875 0.211122
H3    H     H_    0.257085 0.485314 0.713181 0.143760
H4    H     H_    0.593255 0.776764 0.505218 0.155773
H5    H     H_    0.424698 0.872911 0.497015 0.146008
H6    H     H_    0.554757 0.640775 0.125219 0.156587
H7    H     H_    0.434438 0.329920 0.246587 0.199357
H8    H     H_    0.380306 0.191295 0.124273 0.160135
H9    H     H_    0.380224 0.191371 0.875730 0.161713
H10   H     H_    0.434261 0.330005 0.753275 0.199708
H11   H     H_    0.554736 0.640715 0.874694 0.160393
H12   H     H_    0.259200 0.467774 0.279611 0.141417
H13   H     H_    0.114918 0.182900 0.621577 0.192060
H14   H     H_    0.652907 0.523989 0.282400 0.163709
H15   H     H_    0.740900 0.510526 0.279015 0.140123
H16   H     H_    0.872826 0.155041 0.487378 0.201260
H17   H     H_    0.028289 0.180083 0.609186 0.173108
H18   H     H_    0.347505 0.479863 0.280940 0.167435
H19   H     H_    0.377757 0.051065 0.497164 0.253968
H20   H     H_    0.404772 0.181229 0.588411 0.225884
H21   H     H_    0.405219 0.180625 0.406244 0.224952
H22   H     H_    0.765661 0.926833 0.545942 0.413434
H23   H     H_    0.125003 0.768385 0.355235 0.192224
H24   H     H_    0.940467 0.064710 0.362272 0.248183
H25   H     H_    0.000324 0.121941 0.390123 0.257212
H26   H     H_    0.965529 0.050732 0.528419 0.239430
H27   H     H_    0.969119 0.788807 0.426977 0.144532
H28   H     H_    0.653296 0.459263 0.713315 0.164987
H29   H     H_    0.883363 0.788761 0.442010 0.186847
H30   H     H_    0.741689 0.446559 0.707332 0.141847
H31   H     H_    0.038907 0.770421 0.347723 0.146820
H32   H     H_    0.591281 0.242668 0.503593 0.154003
N1    N     N_R   0.201064 0.475190 0.493423 -0.357547
N2    N     N_R   0.798138 0.475082 0.489766 -0.361524
N3    N     N_R   0.499540 0.498800 0.142780 -0.123588
N4    N     N_R   0.499520 0.498720 0.857170 -0.124503
O1    O     O_R   0.500000 0.316780 0.614690 -0.632049
O2    O     O_R   0.571250 0.499990 0.614680 -0.615159
O3    O     O_R   0.571240 0.499970 0.385350 -0.620764
O4    O     O_2   0.198837 0.270104 0.583654 -0.557473
O5    O     O_2   0.689310 0.774982 0.620224 -0.302910
O6    O     O_2   0.698303 0.809918 0.377177 -0.278898
O7    O     O_3   0.736367 0.977798 0.540147 -0.513289
O8    O     O_2   0.793443 0.254344 0.510637 -0.529354
O9    O     O_2   0.205355 0.681626 0.406732 -0.554697
O10   O     O_2   0.800458 0.695772 0.467385 -0.516746
O11   O     O_R   0.500000 0.316750 0.385360 -0.630431
O12   O     O_R   0.428760 0.500030 0.614650 -0.640039
O13   O     O_R   0.428750 0.500010 0.385320 -0.639902
O14   O     O_R   0.500000 0.683250 0.614640 -0.607212
O15   O     O_R   0.500000 0.683220 0.385310 -0.607456
S1    S     S_3+6 0.690696 0.872958 0.510903 0.042642
Zn1   Zn    Zn3+2 0.500000 0.500020 0.653130 0.948244
Zn2   Zn    Zn3+2 0.500000 0.499980 0.346870 0.947308

loop_
_geom_bond_atom_site_label_1
_geom_bond_atom_site_label_2
_ccdc_geom_bond_type
C10   C27   A    
C4    O13   A    
C8    C13   A    
C48   N3    A    
C17   H28   S    
C15   C60   A    
O6    S1    D    
C35   C36   A    
C6    C57   S    
C40   N1    A    
C50   H11   S    
O3    Zn2   S    
C53   C59   A    
C16   O14   A    
C7    C8    A    
C39   C41   A    
C31   C32   A    
O5    S1    D    
C4    O12   A    
C12   C23   A    
C26   C27   A    
C36   C37   A    
C22   C29   A    
C30   C31   A    
N3    Zn2   S    
C57   H26   S    
C18   C19   A    
C26   H27   S    
C38   C55   S    
C20   C24   A    
C45   C56   A    
C8    C9    A    
C47   N4    A    
C55   H21   S    
C9    C10   A    
C1    C37   S    
C21   C22   A    
C39   H5    S    
C31   H2    S    
C2    C6    A    
C44   C46   A    
C54   C59   A    
C28   C60   S    
C25   C29   A    
C40   C45   A    
C49   H6    S    
C2    C20   A    
C18   H30   S    
C30   H32   S    
C1    O1    A    
C51   C58   A    
C12   H3    S    
C43   H8    S    
O2    Zn1   S    
C21   C34   A    
C23   N1    S    
O7    S1    S    
O12   Zn1   S    
C43   C44   A    
O11   Zn2   S    
C5    C9    A    
C37   C38   A    
C52   H12   S    
C55   H19   S    
C47   C48   A    
H22   O7    S    
C11   O10   S    
C17   C18   A    
C57   H24   S    
C44   H9    S    
C34   C45   A    
C42   C48   A    
C49   N3    A    
C13   O8    S    
O14   Zn1   S    
C6    C7    A    
C19   N2    S    
O13   Zn2   S    
C1    O11   A    
C28   O3    A    
C51   N1    A    
C42   H7    S    
N4    Zn1   S    
C2    C5    A    
C42   C43   A    
O1    Zn1   S    
C29   H31   S    
C52   C53   A    
C11   N2    A    
C34   C58   A    
C28   O2    A    
C46   C47   A    
C56   H13   S    
C32   S1    S    
C14   C19   A    
C3    C26   A    
C3    C5    A    
C40   O4    S    
C7    H16   S    
C54   H1    S    
C24   C56   A    
C30   C36   A    
C13   N2    A    
C14   H15   S    
C53   H18   S    
C32   C33   A    
C55   H20   S    
C50   N4    A    
C23   C52   A    
C38   C39   A    
C33   H4    S    
C4    C59   S    
C33   C35   A    
C57   H25   S    
C27   H29   S    
O15   Zn2   S    
C35   C41   A    
C51   O9    S    
C46   H10   S    
C10   C11   A    
C17   C60   A    
C24   H17   S    
C15   H14   S    
C20   C21   A    
C49   C50   A    
C25   C58   A    
C25   H23   S    
C14   C15   A    
C3    C22   A    
C16   C41   S    
C12   C54   A    
C16   O15   A    
