data_mof_unit_9200.cif
_audit_creation_date              2012-12-10T18:58:44-0500
_audit_creation_method            fapswitch 2.2
_symmetry_space_group_name_H-M    P1
_symmetry_Int_Tables_number       1
_space_group_crystal_system       triclinic
_cell_length_a                    13.004792
_cell_length_b                    10.823889
_cell_length_c                    9.538703
_cell_angle_alpha                 89.90401
_cell_angle_beta                  96.128924
_cell_angle_gamma                 90.307273
_cell_volume                      1334.99635824

loop_
_atom_site_label
_atom_site_type_symbol
_atom_type_description
_atom_site_fract_x
_atom_site_fract_y
_atom_site_fract_z
_atom_type_partial_charge
C1    C     C_R   0.498791 0.262288 0.499955 0.803263
C2    C     C_R   0.027206 0.518316 0.558435 0.157868
C3    C     C_R   0.971599 0.474126 0.432337 0.008486
C4    C     C_R   0.863919 0.464499 0.426471 -0.190680
C5    C     C_R   0.868109 0.546830 0.663464 -0.192431
C6    C     C_R   0.975182 0.553942 0.672915 -0.130181
C7    C     C_R   0.500004 0.063284 0.625973 0.094954
C8    C     C_R   0.490181 0.129052 0.499272 -0.128028
C9    C     C_R   0.466854 0.064491 0.371946 -0.164612
C10   C     C_R   0.466602 0.935643 0.371587 -0.200043
C11   C     C_R   0.489560 0.870688 0.498672 -0.103952
C12   C     C_R   0.300563 0.497427 0.473493 0.864378
C13   C     C_R   0.499829 0.935901 0.625380 0.149351
C14   C     C_3   0.582876 0.928023 0.745934 -0.530824
C15   C     C_3   0.583983 0.068601 0.746285 -0.205362
C16   C     C_R   0.550503 0.591036 0.080881 0.230627
C17   C     C_R   0.440852 0.418680 0.066028 0.004470
C18   C     C_R   0.440538 0.418998 0.916995 -0.015148
C19   C     C_R   0.551043 0.590490 0.933492 0.248643
C20   C     C_3   0.664038 0.617524 0.945052 -0.480671
C21   C     C_3   0.663045 0.620304 0.103743 -0.438975
C22   C     C_R   0.498513 0.737645 0.499651 0.799569
C23   C     C_R   0.699451 0.500124 0.526168 0.795718
C24   C     C_R   0.812162 0.502601 0.540213 -0.060227
C25   C     C_R   0.187852 0.490347 0.457137 -0.185145
C26   C     C_R   0.025613 0.438504 0.317567 -0.134650
C27   C     C_R   0.133726 0.446107 0.331712 0.552246
C28   C     C_R   0.134327 0.526067 0.569484 -0.329184
Cu1   Cu    Cu3+1 0.499990 0.499980 0.640670 0.966574
Cu2   Cu    Cu3+1 0.500010 0.500020 0.359330 0.985086
H1    H     H_    0.819443 0.426113 0.334458 0.173563
H2    H     H_    0.655407 0.887360 0.714703 0.184036
H3    H     H_    0.657347 0.109034 0.715894 0.147146
H4    H     H_    0.394782 0.351125 0.115396 0.164554
H5    H     H_    0.394159 0.351736 0.854442 0.154715
H6    H     H_    0.708789 0.538701 0.909363 0.225688
H7    H     H_    0.681715 0.708670 0.899487 0.187820
H8    H     H_    0.708908 0.544770 0.157854 0.250239
H9    H     H_    0.678124 0.713693 0.149968 0.195974
H10   H     H_    0.829241 0.578108 0.751397 0.151318
H11   H     H_    0.017288 0.588327 0.769309 0.153483
H12   H     H_    0.176218 0.560448 0.666155 0.187211
H13   H     H_    0.452942 0.113060 0.272501 0.166849
H14   H     H_    0.452721 0.887541 0.271813 0.175972
H15   H     H_    0.554203 0.884712 0.840302 0.216319
N1    N     N_R   0.500660 0.500930 0.148010 -0.194387
N2    N     N_R   0.500660 0.500890 0.852110 -0.189495
O1    O     O_R   0.500000 0.319640 0.618810 -0.582148
O2    O     O_R   0.500010 0.319680 0.381230 -0.581859
O3    O     O_R   0.348990 0.499960 0.599490 -0.598193
O4    O     O_R   0.349000 0.500000 0.361910 -0.525357
O5    O     O_R   0.499990 0.680320 0.618770 -0.578851
O6    O     O_R   0.500000 0.680360 0.381190 -0.589285
O7    O     O_R   0.651000 0.500000 0.638090 -0.583370
O8    O     O_R   0.651010 0.500040 0.400510 -0.588853
C29   C     C_2   0.548647 0.123873 0.877511 0.899414
O9    O     O_2   0.604066 0.198629 0.945817 -0.601830
O10   O     O_R   0.453284 0.089460 0.921347 -0.765567
H16   H     H_    0.438555 0.133123 0.010863 0.311399
C30   C     C_2   0.972289 0.394932 0.181240 0.903402
O11   O     O_2   0.999613 0.299030 0.128979 -0.529533
O12   O     O_R   0.893795 0.465768 0.109901 -0.796178
H17   H     H_    0.864831 0.427062 0.017196 0.331684
F1    F     F_    0.185917 0.410444 0.222474 -0.647000

loop_
_geom_bond_atom_site_label_1
_geom_bond_atom_site_label_2
_ccdc_geom_bond_type
C12   O3    A    
C23   C24   S    
C1    O1    A    
C23   O8    A    
Cu1   Cu2   S    
C22   O6    A    
C1    C8    S    
Cu2   O8    S    
C11   C22   S    
C19   C20   S    
C21   H9    S    
C12   C25   S    
Cu2   O4    S    
C10   C11   A    
C15   C29   S    
C7    C15   S    
C17   C18   A    
C17   N1    A    
C7    C8    A    
Cu1   O5    S    
C2    C6    A    
C13   C14   S    
C18   N2    A    
C25   C28   A    
C20   H7    S    
C11   C13   A    
C26   C27   A    
O12   H17   S    
C5    C24   A    
C26   C30   S    
Cu1   N2    S    
C16   C19   A    
C18   H5    S    
C30   O12   S    
Cu2   O2    S    
C29   O10   S    
C2    C3    A    
C14   H15   S    
Cu1   O3    S    
C5    C6    A    
C4    C24   A    
Cu2   O6    S    
C19   N2    A    
C9    H13   S    
C4    H1    S    
C25   C27   A    
C17   H4    S    
Cu1   O1    S    
C10   H14   S    
C3    C4    A    
C20   H6    S    
C9    C10   A    
C7    C13   A    
C12   O4    A    
C20   C21   S    
C23   O7    A    
C22   O5    A    
Cu1   O7    S    
C5    H10   S    
C16   N1    A    
C29   O9    D    
C16   C21   S    
C14   C15   S    
C30   O11   D    
C2    C28   A    
C28   H12   S    
O10   H16   S    
C1    O2    A    
C27   F1    S    
Cu2   N1    S    
C3    C26   A    
C21   H8    S    
C14   H2    S    
C8    C9    A    
C15   H3    S    
C6    H11   S    
