data_mof_unit_58810.cif
_audit_creation_date              2012-12-10T18:36:08-0500
_audit_creation_method            fapswitch 2.2
_symmetry_space_group_name_H-M    P1
_symmetry_Int_Tables_number       1
_space_group_crystal_system       triclinic
_cell_length_a                    15.136712
_cell_length_b                    13.79257
_cell_length_c                    15.108339
_cell_angle_alpha                 90.031831
_cell_angle_beta                  90.624742
_cell_angle_gamma                 89.947769
_cell_volume                      3154.04149502

loop_
_atom_site_label
_atom_site_type_symbol
_atom_type_description
_atom_site_fract_x
_atom_site_fract_y
_atom_site_fract_z
_atom_type_partial_charge
C1    C     C_R   0.329918 0.500074 0.500673 0.770302
C2    C     C_R   0.670255 0.499986 0.498466 0.769464
C3    C     C_R   0.445607 0.330449 0.043483 0.071857
C4    C     C_R   0.540811 0.671066 0.956277 0.071318
C5    C     C_R   0.096000 0.578209 0.460006 -0.184280
C6    C     C_R   0.904808 0.413348 0.481299 -0.178127
C7    C     C_R   0.905079 0.587074 0.506299 -0.182181
C8    C     C_R   0.095586 0.421834 0.533602 -0.172683
C9    C     C_R   0.187744 0.578977 0.463162 -0.195489
C10   C     C_R   0.813007 0.413195 0.482864 -0.196209
C11   C     C_R   0.813328 0.587244 0.505653 -0.197681
C12   C     C_R   0.187404 0.421619 0.534842 -0.210655
C13   C     C_R   0.233762 0.500401 0.500027 -0.006230
C14   C     C_R   0.766730 0.500087 0.495668 -0.019450
C15   C     C_R   0.049007 0.499907 0.495700 0.108801
C16   C     C_R   0.951730 0.500112 0.494171 0.110591
C17   C     C_R   0.434380 0.106711 0.545667 0.380846
C18   C     C_R   0.433387 0.893375 0.454149 0.384720
C19   C     C_R   0.565384 0.106598 0.453974 0.385997
C20   C     C_R   0.566949 0.893439 0.545280 0.389090
C21   C     C_R   0.437931 0.209609 0.546691 -0.047291
C22   C     C_R   0.436727 0.790438 0.453516 -0.045547
C23   C     C_R   0.561901 0.209460 0.453062 -0.092004
C24   C     C_R   0.563716 0.790447 0.545764 -0.088826
C25   C     C_R   0.499913 0.054660 0.499814 0.041883
C26   C     C_R   0.500031 0.945309 0.499829 0.044074
C27   C     C_R   0.497799 0.499907 0.328555 0.843958
C28   C     C_R   0.501085 0.500019 0.671509 0.847482
C29   C     C_R   0.544622 0.574355 0.816925 -0.024616
C30   C     C_R   0.447987 0.426018 0.184637 -0.031385
C31   C     C_R   0.501259 0.500024 0.768500 -0.194980
C32   C     C_R   0.494051 0.499775 0.231620 -0.200213
C33   C     C_R   0.458914 0.423941 0.813501 0.415892
C34   C     C_R   0.534886 0.575953 0.185573 0.406405
C35   C     C_R   0.464037 0.420115 0.905957 -0.021514
C36   C     C_R   0.526038 0.580777 0.093589 -0.017778
C37   C     C_R   0.493988 0.501605 0.953458 -0.024162
C38   C     C_R   0.493319 0.500022 0.046504 -0.021707
C39   C     C_R   0.525792 0.584128 0.907955 0.052082
C40   C     C_R   0.461804 0.417324 0.092296 0.045334
C41   C     C_R   0.442474 0.334953 0.950998 -0.194920
C42   C     C_R   0.548191 0.665783 0.048371 -0.196195
Cu1   Cu    Cu3+1 0.500000 0.596430 0.500000 0.951927
Cu2   Cu    Cu3+1 0.500000 0.403570 0.500000 0.946338
H1    H     H_    0.428815 0.269541 0.913625 0.189398
H2    H     H_    0.567003 0.730222 0.085028 0.187833
H3    H     H_    0.062041 0.638353 0.428606 0.121993
H4    H     H_    0.938914 0.345603 0.469554 0.120329
H5    H     H_    0.939307 0.654863 0.517835 0.123068
H6    H     H_    0.061218 0.361440 0.563275 0.120879
H7    H     H_    0.222724 0.639848 0.434863 0.132228
H8    H     H_    0.778376 0.345184 0.473530 0.139570
H9    H     H_    0.779009 0.655390 0.514901 0.141244
H10   H     H_    0.222136 0.360557 0.563961 0.127587
H11   H     H_    0.391283 0.250836 0.585082 0.166510
H12   H     H_    0.389162 0.749149 0.415333 0.142164
H13   H     H_    0.608487 0.250513 0.414514 0.148110
H14   H     H_    0.612076 0.749051 0.582649 0.137712
N1    N     N_R   0.500000 0.258690 0.500000 -0.214761
N2    N     N_R   0.500000 0.741310 0.500000 -0.206037
O1    O     O_R   0.371460 0.581430 0.500010 -0.595329
O2    O     O_R   0.628540 0.418570 0.499990 -0.592354
O3    O     O_R   0.628540 0.581430 0.499990 -0.583629
O4    O     O_R   0.371460 0.418570 0.500010 -0.588231
O5    O     O_R   0.499980 0.581440 0.370260 -0.527422
O6    O     O_R   0.500020 0.418560 0.629740 -0.526956
O7    O     O_R   0.500020 0.581440 0.629740 -0.590159
O8    O     O_R   0.499980 0.418560 0.370260 -0.595549
C43   C     C_3   0.624466 0.626450 0.777978 -0.401920
C44   C     C_3   0.696870 0.554860 0.749778 -0.328546
C45   C     C_3   0.782822 0.607589 0.729107 -0.859997
H15   H     H_    0.770948 0.664522 0.678463 0.244381
H16   H     H_    0.810334 0.641906 0.789939 0.248057
H17   H     H_    0.832015 0.555055 0.703587 0.257629
H18   H     H_    0.709905 0.502002 0.803934 0.222413
H19   H     H_    0.675630 0.513989 0.690062 0.211618
H20   H     H_    0.604169 0.673135 0.721767 0.206371
H21   H     H_    0.656030 0.674404 0.827900 0.204710
C46   C     C_3   0.371861 0.372049 0.228481 -0.382481
C47   C     C_3   0.298738 0.441510 0.258936 -0.345598
C48   C     C_3   0.219949 0.385544 0.295067 -0.840805
H22   H     H_    0.191798 0.336907 0.243392 0.243625
H23   H     H_    0.240563 0.341557 0.353308 0.262723
H24   H     H_    0.167753 0.437166 0.315615 0.255606
H25   H     H_    0.323565 0.491112 0.311251 0.208568
H26   H     H_    0.275945 0.486326 0.201931 0.218038
H27   H     H_    0.339035 0.323030 0.181058 0.213076
H28   H     H_    0.395872 0.326245 0.284041 0.222806
O9    O     O_3   0.418802 0.349151 0.766950 -0.565413
C49   C     C_3   0.328520 0.371978 0.755954 -0.335675
H29   H     H_    0.295834 0.311848 0.719573 0.171889
H30   H     H_    0.319395 0.439108 0.715985 0.151564
H31   H     H_    0.295102 0.379397 0.820893 0.159740
O10   O     O_3   0.577210 0.650112 0.231051 -0.562912
C50   C     C_3   0.667212 0.625366 0.240768 -0.295540
H32   H     H_    0.675879 0.557264 0.279458 0.142941
H33   H     H_    0.701153 0.684134 0.277952 0.191987
H34   H     H_    0.699679 0.618669 0.175284 0.148399
C51   C     C_3   0.450393 0.229877 0.084777 -0.408895
C52   C     C_3   0.366985 0.168863 0.066570 -0.382263
C53   C     C_3   0.367221 0.076718 0.122484 -0.807289
H35   H     H_    0.426838 0.032516 0.108370 0.260612
H36   H     H_    0.366350 0.095290 0.194042 0.266677
H37   H     H_    0.307631 0.032945 0.106438 0.236358
H38   H     H_    0.306170 0.210869 0.080629 0.216045
H39   H     H_    0.364222 0.147513 0.995708 0.216446
H40   H     H_    0.507809 0.191232 0.055876 0.200041
H41   H     H_    0.465078 0.233417 0.156764 0.208317
C54   C     C_3   0.539897 0.771110 0.913678 -0.429152
C55   C     C_3   0.464360 0.834362 0.949080 -0.347036
C56   C     C_3   0.461015 0.932550 0.902526 -0.811509
H42   H     H_    0.523709 0.972671 0.913982 0.255564
H43   H     H_    0.450120 0.922775 0.830232 0.270153
H44   H     H_    0.405706 0.976224 0.929230 0.240139
H45   H     H_    0.400269 0.796610 0.938201 0.225558
H46   H     H_    0.473117 0.847309 0.021212 0.220211
H47   H     H_    0.604335 0.807308 0.926725 0.193993
H48   H     H_    0.529602 0.766117 0.841075 0.215033
O11   O     O_3   0.373016 0.054896 0.594461 -0.561603
C57   C     C_3   0.287020 0.092980 0.583035 -0.323315
H49   H     H_    0.272781 0.114490 0.513206 0.159277
H50   H     H_    0.276226 0.154876 0.628661 0.148917
H51   H     H_    0.238756 0.035860 0.600615 0.181845
O12   O     O_3   0.371255 0.945466 0.405027 -0.566566
C58   C     C_3   0.285573 0.906622 0.414215 -0.332459
H52   H     H_    0.271597 0.884203 0.483532 0.163944
H53   H     H_    0.275209 0.845227 0.367680 0.153140
H54   H     H_    0.236880 0.963632 0.396203 0.181123
O13   O     O_3   0.626734 0.054818 0.405034 -0.561303
C59   C     C_3   0.712966 0.091278 0.418627 -0.314657
H55   H     H_    0.726408 0.110578 0.489156 0.165947
H56   H     H_    0.725106 0.154344 0.374765 0.147045
H57   H     H_    0.760864 0.033935 0.400353 0.181565
O14   O     O_3   0.629309 0.945924 0.593849 -0.563108
C60   C     C_3   0.714278 0.904015 0.589277 -0.332559
H58   H     H_    0.729897 0.877390 0.521555 0.159835
H59   H     H_    0.721567 0.845073 0.638883 0.150909
H60   H     H_    0.763780 0.960441 0.606343 0.183330

loop_
_geom_bond_atom_site_label_1
_geom_bond_atom_site_label_2
_ccdc_geom_bond_type
C19   O13   S    
C60   H60   S    
C38   C40   A    
C4    C54   S    
C53   H35   S    
C55   H46   S    
C43   H20   S    
C36   C42   A    
C50   H32   S    
C9    H7    S    
C10   H8    S    
C4    C42   A    
C46   H27   S    
C48   H22   S    
C50   H34   S    
C54   H47   S    
C60   H58   S    
Cu2   O4    S    
C23   N1    A    
C51   H41   S    
C5    H3    S    
C52   H38   S    
C47   H25   S    
C6    H4    S    
C35   C37   A    
C21   N1    A    
C22   N2    A    
C11   C14   A    
Cu2   N1    S    
C15   C16   S    
C60   H59   S    
C42   H2    S    
C9    C13   A    
C28   O6    A    
C47   H26   S    
C27   O8    A    
C55   C56   S    
Cu2   O6    S    
C20   C24   A    
C18   C26   A    
C58   H54   S    
C31   C33   A    
C44   C45   S    
C11   H9    S    
C57   H51   S    
Cu1   O5    S    
C53   H36   S    
C43   H21   S    
C43   C44   S    
C2    C14   S    
C46   H28   S    
C48   H23   S    
C57   H50   S    
C54   H48   S    
C7    C11   A    
C29   C43   S    
C37   C39   A    
Cu1   O3    S    
C28   O7    A    
C7    H5    S    
C10   C14   A    
C21   H11   S    
C19   C23   A    
C22   H12   S    
Cu2   O2    S    
C25   C26   S    
C17   C21   A    
C32   C34   A    
C59   H56   S    
Cu1   Cu2   S    
C5    C9    A    
C37   C38   A    
C27   O5    A    
C33   O9    S    
C49   H30   S    
C51   C52   S    
C4    C39   A    
C8    C12   A    
C29   C39   A    
C30   C40   A    
C56   H43   S    
C35   C41   A    
Cu1   N2    S    
C30   C46   S    
Cu1   O7    S    
C7    C16   A    
C3    C40   A    
C53   H37   S    
C44   H19   S    
C58   H52   S    
Cu2   O8    S    
C59   H57   S    
C1    C13   S    
C1    O4    A    
C8    H6    S    
C48   H24   S    
C57   H49   S    
Cu1   O1    S    
C49   H31   S    
C45   H16   S    
O13   C59   S    
C23   H13   S    
C2    O3    A    
C3    C41   A    
C56   H42   S    
C27   C32   S    
C18   C22   A    
C28   C31   S    
C34   O10   S    
C47   C48   S    
C1    O1    A    
C6    C10   A    
C45   H17   S    
O11   C57   S    
C50   H33   S    
O14   C60   S    
C8    C15   A    
C51   H40   S    
C52   H39   S    
C17   C25   A    
C36   C38   A    
C59   H55   S    
C45   H15   S    
C29   C31   A    
C54   C55   S    
C30   C32   A    
C49   H29   S    
C20   C26   A    
C52   C53   S    
C33   C35   A    
C56   H44   S    
C34   C36   A    
O10   C50   S    
C19   C25   A    
C5    C15   A    
C17   O11   S    
C6    C16   A    
C46   C47   S    
C3    C51   S    
C12   C13   A    
C24   H14   S    
C44   H18   S    
C58   H53   S    
C41   H1    S    
C24   N2    A    
C20   O14   S    
O9    C49   S    
C55   H45   S    
C12   H10   S    
C2    O2    A    
C18   O12   S    
O12   C58   S    
