data_mof_unit_50016.cif
_audit_creation_date              2013-03-05T15:40:53-0500
_audit_creation_method            fapswitch 2.2
_symmetry_space_group_name_H-M    P1
_symmetry_Int_Tables_number       1
_space_group_crystal_system       triclinic
_cell_length_a                    17.463223
_cell_length_b                    24.372074
_cell_length_c                    14.995156
_cell_angle_alpha                 90.019821
_cell_angle_beta                  125.245781
_cell_angle_gamma                 90.087508
_cell_volume                      5212.19858177

loop_
_atom_site_label
_atom_site_type_symbol
_atom_site_description
_atom_site_fract_x
_atom_site_fract_y
_atom_site_fract_z
_atom_type_partial_charge
C1    C     C_R   0.808576 0.624025 0.906927 -0.104240
C2    C     C_R   0.145016 0.653826 0.091096 -0.025191
C3    C     C_R   0.318353 0.135725 0.906699 -0.102693
C4    C     C_R   0.691611 0.123676 0.091596 -0.101363
H1    H     H_    0.748711 0.627655 0.823146 0.156214
H2    H     H_    0.177216 0.670355 0.171993 0.125758
H3    H     H_    0.262917 0.145304 0.823484 0.172281
H4    H     H_    0.751956 0.128149 0.174689 0.164861
N1    N     N_R   0.892320 0.603520 0.941090 -0.038350
N2    N     N_R   0.107680 0.603520 0.058910 -0.043606
N3    N     N_R   0.392320 0.103520 0.941090 -0.041159
N4    N     N_R   0.607680 0.103520 0.058910 -0.040642
C5    C     C_R   0.936702 0.352673 0.092199 -0.099751
C6    C     C_R   0.046718 0.347853 0.908795 -0.007289
C7    C     C_R   0.420127 0.861739 0.092890 -0.156219
C8    C     C_R   0.561778 0.852915 0.906079 -0.055655
H5    H     H_    0.980784 0.335807 0.173117 0.169819
H6    H     H_    0.995908 0.332022 0.827679 0.112345
H7    H     H_    0.455555 0.846173 0.174243 0.166515
H8    H     H_    0.517497 0.837329 0.823829 0.153594
N5    N     N_R   0.953790 0.399020 0.058440 -0.056502
N6    N     N_R   0.046210 0.399020 0.941560 -0.063880
N7    N     N_R   0.453790 0.899020 0.058440 -0.060926
N8    N     N_R   0.546210 0.899020 0.941560 -0.056537
C9    C     C_R   0.026065 0.547955 0.289185 -0.245727
C10   C     C_R   0.017418 0.548814 0.752277 -0.210135
C11   C     C_R   0.503592 0.047881 0.270728 -0.212808
C12   C     C_R   0.445873 0.048031 0.697001 -0.198910
H9    H     H_    0.041369 0.589608 0.319550 0.130198
H10   H     H_    0.026762 0.591639 0.742376 0.128019
H11   H     H_    0.507832 0.089683 0.296515 0.118957
H12   H     H_    0.427711 0.090240 0.670952 0.116973
N9    N     N_R   0.026760 0.529450 0.205590 -0.062806
N10   N     N_R   0.973240 0.529450 0.794410 -0.070114
N11   N     N_R   0.526760 0.029450 0.205590 -0.063067
N12   N     N_R   0.473240 0.029450 0.794410 -0.056860
C13   C     C_R   0.749818 0.455750 0.694544 0.520176
C14   C     C_R   0.270253 0.456554 0.266899 0.454566
C15   C     C_R   0.244839 0.956412 0.696413 0.478800
C16   C     C_R   0.756008 0.955748 0.301920 0.498908
N13   N     N_R   0.819350 0.473090 0.793940 -0.123284
N14   N     N_R   0.180650 0.473090 0.206060 -0.136472
N15   N     N_R   0.319350 0.973090 0.793940 -0.126723
N16   N     N_R   0.680650 0.973090 0.206060 -0.118453
C17   C     C_R   0.023147 0.457182 0.289070 0.339155
C18   C     C_R   0.019523 0.457961 0.750901 0.336282
C19   C     C_R   0.501907 0.956399 0.271166 0.316538
C20   C     C_R   0.448681 0.957129 0.694508 0.265868
N17   N     N_R   0.027860 0.473090 0.206590 -0.101669
N18   N     N_R   0.972140 0.473090 0.793410 -0.128671
N19   N     N_R   0.527860 0.973090 0.206590 -0.115590
N20   N     N_R   0.472140 0.973090 0.793410 -0.095403
C21   C     C_R   0.750522 0.546032 0.692545 0.448541
C22   C     C_R   0.269691 0.547545 0.268227 0.508380
C23   C     C_R   0.245289 0.046785 0.696725 0.453674
C24   C     C_R   0.754569 0.046510 0.303636 0.457101
N21   N     N_R   0.818250 0.529450 0.792940 -0.107947
N22   N     N_R   0.181750 0.529450 0.207060 -0.128840
N23   N     N_R   0.318250 0.029450 0.792940 -0.107589
N24   N     N_R   0.681750 0.029450 0.207060 -0.108114
C25   C     C_R   0.843598 0.353671 0.910781 -0.088262
C26   C     C_R   0.142338 0.349157 0.088130 -0.045215
C27   C     C_R   0.325104 0.864751 0.911412 -0.112122
C28   C     C_R   0.653515 0.852690 0.087404 -0.055693
H13   H     H_    0.799453 0.339785 0.827692 0.133292
H14   H     H_    0.178813 0.334353 0.170128 0.123496
H15   H     H_    0.272001 0.852966 0.829270 0.155948
H16   H     H_    0.694544 0.837418 0.169024 0.116265
N25   N     N_R   0.896320 0.399020 0.944720 -0.053278
N26   N     N_R   0.103680 0.399020 0.055280 -0.052960
N27   N     N_R   0.396320 0.899020 0.944720 -0.050394
N28   N     N_R   0.603680 0.899020 0.055280 -0.049195
C29   C     C_R   0.901649 0.626189 0.089655 -0.094800
C30   C     C_R   0.055818 0.652755 0.910319 -0.100552
C31   C     C_R   0.411287 0.136980 0.089423 -0.094056
C32   C     C_R   0.598400 0.124100 0.908776 -0.082990
H17   H     H_    0.928272 0.633594 0.173530 0.094309
H18   H     H_    0.008262 0.666823 0.827297 0.083386
H19   H     H_    0.443018 0.150268 0.172225 0.090115
H20   H     H_    0.571631 0.128412 0.823872 0.096897
N29   N     N_R   0.949790 0.603520 0.054810 -0.051236
N30   N     N_R   0.050210 0.603520 0.945190 -0.043461
N31   N     N_R   0.449790 0.103520 0.054810 -0.043550
N32   N     N_R   0.550210 0.103520 0.945190 -0.046925
C33   C     C_R   0.812001 0.637557 0.998548 0.099771
C34   C     C_R   0.113638 0.685113 0.000318 0.071397
C35   C     C_R   0.327091 0.155308 0.998227 0.090073
C36   C     C_R   0.688028 0.136090 0.999220 0.089586
C37   C     C_R   0.867953 0.323942 0.001623 0.093709
C38   C     C_R   0.106830 0.316318 0.997998 0.074149
C39   C     C_R   0.336323 0.843017 0.002664 0.124744
C40   C     C_R   0.628818 0.823387 0.995843 0.080581
C41   C     C_R   0.021988 0.503260 0.341752 0.037463
C42   C     C_R   0.050042 0.504890 0.726381 0.048646
C43   C     C_R   0.481845 0.002930 0.306562 0.030906
C44   C     C_R   0.427670 0.004022 0.631763 0.027209
C45   C     C_R   0.704383 0.500341 0.628617 -0.242237
C46   C     C_R   0.326854 0.502439 0.302037 -0.167054
C47   C     C_R   0.193882 0.001697 0.635982 -0.217550
C48   C     C_R   0.806498 0.001317 0.362951 -0.226034
Ni1   Ni    Ni4+2 0.934100 0.565890 0.869590 0.229228
Ni2   Ni    Ni4+2 0.065900 0.565890 0.130410 0.202569
Ni3   Ni    Ni4+2 0.434100 0.065890 0.869590 0.233747
Ni4   Ni    Ni4+2 0.565900 0.065890 0.130410 0.238353
Ni5   Ni    Ni4+2 0.068420 0.436630 0.132700 0.224893
Ni6   Ni    Ni4+2 0.931580 0.436630 0.867300 0.209333
Ni7   Ni    Ni4+2 0.568420 0.936630 0.132700 0.216271
Ni8   Ni    Ni4+2 0.431580 0.936630 0.867300 0.214813
C49   C     C_3   0.540707 0.451460 0.502733 -0.218588
C50   C     C_3   0.495214 0.461980 0.379538 -0.242566
C51   C     C_3   0.030131 0.953388 0.548866 -0.228724
C52   C     C_3   0.969107 0.962135 0.423581 -0.240405
C53   C     C_3   0.472971 0.492184 0.499686 0.386896
C54   C     C_3   0.563181 0.510348 0.410490 0.365952
C55   C     C_3   0.969380 0.994320 0.559612 0.365523
C56   C     C_3   0.031019 0.010605 0.437769 0.363276
H21   H     H_    0.555111 0.410110 0.539481 0.201594
H22   H     H_    0.476046 0.430405 0.316457 0.186170
H23   H     H_    0.047710 0.912361 0.587466 0.202697
H24   H     H_    0.947472 0.929610 0.361515 0.202792
C57   C     C_3   0.427420 0.502480 0.378921 0.064235
C58   C     C_3   0.608284 0.499994 0.531562 0.056101
C59   C     C_3   0.908106 0.002517 0.436791 0.067930
C60   C     C_3   0.092164 0.001996 0.560563 0.077493
C61   C     C_3   0.494017 0.551146 0.406277 -0.267749
C62   C     C_3   0.539278 0.540497 0.529273 -0.302967
C63   C     C_3   0.969461 0.051436 0.447838 -0.290804
C64   C     C_3   0.031496 0.042793 0.573627 -0.285797
H25   H     H_    0.475480 0.591752 0.365496 0.199011
H26   H     H_    0.556395 0.572284 0.591340 0.175910
H27   H     H_    0.944907 0.091615 0.405627 0.191876
H28   H     H_    0.057354 0.075575 0.636238 0.178888
C65   C     C_2   0.114437 0.768257 0.913247 -0.082403
C66   C     C_2   0.748504 0.685483 0.084824 -0.075199
C67   C     C_2   0.748916 0.185325 0.911269 -0.086113
C68   C     C_2   0.248658 0.189935 0.077808 -0.096838
C69   C     C_2   0.132879 0.743135 0.002664 -0.177624
C70   C     C_2   0.735266 0.663035 0.995494 -0.163463
C71   C     C_2   0.764102 0.161886 0.000864 -0.143432
C72   C     C_2   0.259885 0.190542 0.996612 -0.170068
H29   H     H_    0.063860 0.751831 0.832232 0.120295
H30   H     H_    0.808941 0.674877 0.165723 0.120265
H31   H     H_    0.687611 0.174941 0.830708 0.121269
H32   H     H_    0.290906 0.163072 0.147666 0.128519
H33   H     H_    0.179852 0.761908 0.082572 0.144210
H34   H     H_    0.671348 0.670657 0.915285 0.135787
H35   H     H_    0.828585 0.169702 0.080586 0.144426
H36   H     H_    0.220402 0.217985 0.927337 0.153130
C73   C     C_2   0.800889 0.234434 0.918529 -0.114953
C74   C     C_2   0.192673 0.232223 0.084218 -0.096175
C75   C     C_2   0.178593 0.809953 0.922601 -0.101551
C76   C     C_2   0.695316 0.733815 0.077450 -0.113689
C77   C     C_2   0.837393 0.268879 0.003874 -0.166656
C78   C     C_2   0.123907 0.258190 0.994633 -0.174232
C79   C     C_2   0.270726 0.807130 0.002918 -0.184406
C80   C     C_2   0.658280 0.768326 0.992306 -0.172503
H37   H     H_    0.796449 0.246236 0.845905 0.119689
H38   H     H_    0.220388 0.248100 0.164658 0.124145
H39   H     H_    0.151865 0.838682 0.855511 0.157958
H40   H     H_    0.699708 0.745211 0.150221 0.120352
H41   H     H_    0.840499 0.258440 0.076172 0.149176
H42   H     H_    0.091898 0.239922 0.914425 0.145557
H43   H     H_    0.299241 0.777852 0.069335 0.152005
H44   H     H_    0.655037 0.758325 0.919762 0.152371
C81   C     C_2   0.110450 0.475111 0.530911 -0.062935
C82   C     C_2   0.118691 0.469827 0.632949 -0.033021
C83   C     C_2   0.386992 0.972599 0.366208 -0.044448
C84   C     C_2   0.372452 0.967857 0.452257 -0.012415
C85   C     C_2   0.041013 0.505141 0.448974 -0.137070
C86   C     C_2   0.094630 0.511623 0.669381 -0.188714
C87   C     C_2   0.456358 0.004552 0.381786 -0.122573
C88   C     C_2   0.394239 0.010216 0.518887 -0.203230
H45   H     H_    0.153214 0.448668 0.518000 0.176648
H46   H     H_    0.131110 0.429123 0.666017 0.215048
H47   H     H_    0.348723 0.945199 0.296357 0.158217
H48   H     H_    0.357330 0.927684 0.468898 0.181630
H49   H     H_    0.996341 0.531210 0.459385 0.140438
H50   H     H_    0.092398 0.552782 0.639911 0.133643
H51   H     H_    0.497289 0.031576 0.451757 0.139535
H52   H     H_    0.398223 0.051330 0.493576 0.132627
O1    O     O_3   0.721370 0.401757 0.668624 -0.670910
C89   C     C_3   0.777299 0.373419 0.643621 0.085479
H53   H     H_    0.770850 0.328992 0.654811 0.138717
H54   H     H_    0.853044 0.383530 0.700959 0.101298
C90   C     C_3   0.743053 0.383349 0.524908 -0.223188
H55   H     H_    0.667244 0.393507 0.474192 0.223941
H56   H     H_    0.782412 0.418614 0.522955 0.229780
C91   C     C_3   0.756596 0.333082 0.474490 -0.853290
H57   H     H_    0.829819 0.318019 0.526998 0.294358
H58   H     H_    0.739927 0.343910 0.393148 0.284633
H59   H     H_    0.708660 0.299613 0.463651 0.232677
O2    O     O_3   0.301835 0.403421 0.297425 -0.653623
C92   C     C_3   0.280736 0.384464 0.369986 0.206868
H60   H     H_    0.210313 0.365793 0.322684 0.143250
H61   H     H_    0.281280 0.417604 0.421675 0.118728
C93   C     C_3   0.352231 0.341176 0.446656 -0.207435
H62   H     H_    0.423703 0.358973 0.492836 0.215315
H63   H     H_    0.337122 0.328554 0.506279 0.184523
C94   C     C_3   0.349694 0.290518 0.385381 -0.933127
H64   H     H_    0.279252 0.271369 0.340994 0.242043
H65   H     H_    0.402115 0.260240 0.444367 0.250345
H66   H     H_    0.366533 0.301597 0.326651 0.290981
O3    O     O_3   0.210195 0.903657 0.674700 -0.688631
C95   C     C_3   0.254314 0.870976 0.639287 0.096367
H67   H     H_    0.245416 0.827589 0.654456 0.146949
H68   H     H_    0.331162 0.878183 0.687992 0.111306
C96   C     C_3   0.207435 0.878750 0.516557 -0.207097
H69   H     H_    0.131940 0.888375 0.475088 0.228702
H70   H     H_    0.241252 0.913839 0.504839 0.206550
C97   C     C_3   0.214251 0.827484 0.462861 -0.936990
H71   H     H_    0.288018 0.814112 0.504902 0.300582
H72   H     H_    0.185169 0.836397 0.376191 0.275447
H73   H     H_    0.173096 0.793458 0.465301 0.248916
O4    O     O_3   0.793220 0.903748 0.317484 -0.674891
C98   C     C_3   0.761240 0.868967 0.364971 0.091842
H74   H     H_    0.772359 0.826042 0.349910 0.129448
H75   H     H_    0.684618 0.873218 0.325110 0.132782
C99   C     C_3   0.818460 0.876713 0.488874 -0.207620
H76   H     H_    0.893984 0.878132 0.522383 0.201523
H77   H     H_    0.798450 0.915982 0.507500 0.248278
C100  C     C_3   0.803339 0.829640 0.544425 -0.845440
H78   H     H_    0.727685 0.823599 0.507824 0.298898
H79   H     H_    0.840266 0.838894 0.632695 0.284115
H80   H     H_    0.832352 0.791029 0.536192 0.224178
N33   N     N_R   0.023908 0.402011 0.321486 0.207265
O5    O     O_R   0.098106 0.371983 0.361044 -0.496580
O6    O     O_R   0.961126 0.386851 0.337229 -0.366969
N34   N     N_R   0.037054 0.402922 0.735691 0.198739
O7    O     O_R   0.975313 0.377411 0.645772 -0.439617
O8    O     O_R   0.121857 0.383491 0.797842 -0.424917
N35   N     N_R   0.535270 0.907638 0.335734 0.207113
O9    O     O_R   0.620704 0.908290 0.422939 -0.422321
O10   O     O_R   0.475401 0.875806 0.335722 -0.425418
N36   N     N_R   0.488717 0.909485 0.681195 0.224731
O11   O     O_R   0.437259 0.867161 0.626982 -0.476810
O12   O     O_R   0.577469 0.909139 0.720942 -0.346172
O13   O     O_3   0.742902 0.600135 0.659744 -0.682866
C101  C     C_3   0.741675 0.604242 0.564897 0.238112
H81   H     H_    0.668014 0.609368 0.493474 0.151745
H82   H     H_    0.773338 0.568038 0.551829 0.114200
C102  C     C_3   0.796919 0.655048 0.573587 -0.312284
H83   H     H_    0.765523 0.692231 0.583251 0.219588
H84   H     H_    0.870365 0.651269 0.646567 0.189889
C103  C     C_3   0.797105 0.661421 0.472410 -0.956439
H85   H     H_    0.828102 0.624565 0.461198 0.276132
H86   H     H_    0.839742 0.697712 0.482073 0.248638
H87   H     H_    0.724472 0.667248 0.398633 0.290320
O14   O     O_3   0.295589 0.602090 0.282651 -0.675731
C104  C     C_3   0.317735 0.621748 0.383859 0.158123
H88   H     H_    0.343647 0.664480 0.393300 0.145227
H89   H     H_    0.376295 0.598497 0.453237 0.151427
C105  C     C_3   0.232835 0.622585 0.390086 -0.332994
H90   H     H_    0.172181 0.642656 0.316524 0.186900
H91   H     H_    0.212896 0.579866 0.393974 0.224519
C106  C     C_3   0.255419 0.653137 0.491470 -0.924309
H92   H     H_    0.315366 0.633402 0.566405 0.291516
H93   H     H_    0.193443 0.652096 0.494625 0.255194
H94   H     H_    0.273131 0.696642 0.488928 0.259802
O15   O     O_3   0.231771 0.101559 0.666881 -0.691480
C107  C     C_3   0.206987 0.108967 0.560047 0.201385
H95   H     H_    0.129767 0.107246 0.502159 0.154112
H96   H     H_    0.239960 0.078017 0.537195 0.120535
C108  C     C_3   0.238598 0.166053 0.552027 -0.303606
H97   H     H_    0.205896 0.197358 0.574066 0.227055
H98   H     H_    0.316006 0.169530 0.610555 0.193758
C109  C     C_3   0.210636 0.177587 0.436923 -0.918883
H99   H     H_    0.246484 0.148606 0.415155 0.263595
H100  H     H_    0.231442 0.220082 0.433440 0.266442
H101  H     H_    0.133516 0.173662 0.376751 0.289447
O16   O     O_3   0.765641 0.100692 0.337239 -0.690767
C110  C     C_3   0.779915 0.104527 0.439732 0.226609
H102  H     H_    0.855484 0.098909 0.505271 0.157596
H103  H     H_    0.737282 0.073784 0.448743 0.131794
C111  C     C_3   0.751156 0.161731 0.451748 -0.311017
H104  H     H_    0.792653 0.193185 0.443118 0.222071
H105  H     H_    0.675643 0.168305 0.386076 0.199870
C112  C     C_3   0.767321 0.168733 0.562622 -0.960762
H106  H     H_    0.725192 0.138276 0.572253 0.276173
H107  H     H_    0.745759 0.210550 0.568991 0.254391
H108  H     H_    0.842734 0.163263 0.629490 0.281559
N37   N     N_R   0.425659 0.481967 0.552587 0.219078
O17   O     O_R   0.453724 0.442168 0.622606 -0.412852
O18   O     O_R   0.362782 0.515939 0.539903 -0.461922
N38   N     N_R   0.612224 0.520078 0.359653 0.223700
O19   O     O_R   0.668067 0.483041 0.364846 -0.423960
O20   O     O_R   0.593871 0.563654 0.300482 -0.407427
N39   N     N_R   0.938144 0.985475 0.630100 0.224633
O21   O     O_R   0.973239 0.945490 0.700319 -0.403454
O22   O     O_R   0.883146 0.020666 0.631705 -0.425868
N40   N     N_R   0.064123 0.019387 0.369163 0.224796
O23   O     O_R   0.117317 0.983205 0.366515 -0.438669
O24   O     O_R   0.035431 0.061656 0.304627 -0.416159

loop_
_geom_bond_atom_site_label_1
_geom_bond_atom_site_label_2
_geom_bond_distance
_ccdc_geom_bond_type
C10   C42   1.370523 A    
C108  C109  1.524661 S    
O3    C95   1.408471 S    
C106  H93   1.110537 S    
C65   C69   1.333858 D    
C81   C82   1.457544 S    
C23   N23   1.328099 A    
N15   N23   1.373740 A    
C46   C57   1.441019 S    
C111  C112  1.526744 S    
C6    H6    1.081033 S    
C11   C43   1.366700 A    
C51   C52   1.549439 S    
C65   C75   1.456921 S    
C3    N3    1.336069 A    
C35   C72   1.444196 S    
C14   C46   1.378546 A    
C24   O16   1.386154 S    
C72   H36   1.084921 S    
N14   N22   1.373671 A    
N34   O8    1.302101 A    
C99   H76   1.108214 S    
C49   H21   1.106207 S    
C108  H97   1.111936 S    
C25   N25   1.335647 A    
O1    C89   1.412802 S    
C7    H7    1.069954 S    
C92   H60   1.101770 S    
C101  C102  1.527144 S    
C41   C85   1.442547 S    
C104  H88   1.110851 S    
C100  H78   1.109429 S    
C31   H19   1.076407 S    
C16   C48   1.383268 A    
C86   H50   1.087947 S    
C91   H59   1.110558 S    
C1    H1    1.078687 S    
C28   H16   1.067167 S    
C69   H33   1.087210 S    
N38   O19   1.298826 A    
N16   N24   1.373671 A    
C102  H83   1.111736 S    
C100  H80   1.109528 S    
C3    H3    1.074904 S    
C107  C108  1.526218 S    
C50   C57   1.538484 S    
N12   Ni3   1.848603 S    
C68   H32   1.086397 S    
C49   C58   1.544452 S    
C90   H56   1.110617 S    
C19   N35   1.428655 S    
C62   H26   1.110585 S    
N28   Ni7   1.842051 S    
C81   H45   1.085723 S    
C110  H102  1.109004 S    
C94   H66   1.110752 S    
C19   C43   1.380552 A    
C66   C76   1.465395 S    
C103  H85   1.111111 S    
C26   N26   1.339544 A    
C91   H58   1.110313 S    
C111  H104  1.111833 S    
C85   H49   1.085655 S    
C47   C60   1.454585 S    
C73   C77   1.343467 D    
C89   H53   1.111215 S    
C6    C38   1.365446 A    
N5    Ni5   1.873063 S    
C34   C69   1.448698 S    
N1    N29   1.392787 A    
C20   N20   1.347760 A    
C37   C77   1.451049 S    
C68   C72   1.340372 D    
C10   N10   1.333691 A    
C56   C60   1.518664 S    
C76   C80   1.343577 D    
C55   N39   1.458230 S    
C92   H61   1.115445 S    
C56   C63   1.535979 S    
C96   C97   1.527751 S    
N39   O22   1.299165 A    
N19   Ni7   1.850946 S    
N22   Ni2   1.877552 S    
C75   C79   1.344555 D    
C38   C78   1.455027 S    
C74   H38   1.078997 S    
C50   C54   1.540579 S    
C111  H105  1.111901 S    
N12   N20   1.373671 A    
C4    H4    1.076552 S    
C13   C45   1.373328 A    
C60   C64   1.546644 S    
C88   H52   1.087885 S    
C7    N7    1.336859 A    
C106  H94   1.110861 S    
N7    Ni7   1.873063 S    
C94   H64   1.107756 S    
C8    N8    1.336815 A    
N27   Ni8   1.841514 S    
C9    H9    1.080624 S    
C10   H10   1.079635 S    
C87   H51   1.085399 S    
C15   O3    1.376656 S    
C2    H2    1.077808 S    
N36   O12   1.300526 A    
C30   N30   1.334963 A    
C93   C94   1.524020 S    
C64   H28   1.110296 S    
C29   N29   1.339110 A    
N34   O7    1.298683 A    
N40   O23   1.298937 A    
C94   H65   1.110346 S    
C25   C37   1.376368 A    
C27   H15   1.067811 S    
N29   Ni2   1.894997 S    
C81   C85   1.341429 D    
C101  H82   1.117642 S    
C32   N32   1.336867 A    
C82   H46   1.074221 S    
N10   Ni1   1.848603 S    
C55   C59   1.517628 S    
N31   Ni4   1.894997 S    
C26   H14   1.069972 S    
C3    C35   1.375625 A    
C96   H69   1.111162 S    
C31   N31   1.338172 A    
N7    N27   1.392787 A    
C12   H12   1.081541 S    
C76   H40   1.084842 S    
C1    N1    1.337402 A    
C68   C74   1.462469 S    
C52   C59   1.545732 S    
C93   H63   1.111666 S    
N11   Ni4   1.847974 S    
N13   Ni6   1.832634 S    
C98   C99   1.530530 S    
C21   O13   1.386992 S    
C83   C84   1.456329 S    
C52   H24   1.109078 S    
C54   C61   1.538543 S    
C21   N21   1.332435 A    
O4    C98   1.412609 S    
C107  H95   1.105677 S    
C90   C91   1.528081 S    
C19   N19   1.347132 A    
C53   C62   1.525339 S    
N4    N32   1.392788 A    
C79   H43   1.085454 S    
N37   O17   1.300646 A    
C67   C73   1.466527 S    
C11   H11   1.076763 S    
N2    N30   1.392788 A    
C55   C64   1.532766 S    
N9    Ni2   1.847974 S    
N5    N25   1.392787 A    
C91   H57   1.108786 S    
C102  H84   1.109762 S    
C89   C90   1.535270 S    
C75   H39   1.086149 S    
C58   C62   1.543951 S    
C67   C71   1.338438 D    
C98   H74   1.110958 S    
C36   C71   1.456170 S    
C57   C61   1.540290 S    
C45   C58   1.454478 S    
C61   H25   1.109547 S    
C66   H30   1.084286 S    
C51   C55   1.532029 S    
N36   O11   1.298413 A    
C7    C39   1.375765 A    
C5    H5    1.075693 S    
C99   H77   1.108850 S    
N39   O21   1.300677 A    
C18   C42   1.397144 A    
C95   C96   1.534543 S    
N2    Ni2   1.850527 S    
C9    C41   1.370429 A    
C8    H8    1.077698 S    
C92   C93   1.530299 S    
C13   O1    1.379966 S    
N16   Ni7   1.829359 S    
C107  H96   1.116625 S    
N33   O5    1.297096 A    
C5    N5    1.339766 A    
C40   C80   1.449799 S    
C17   N33   1.427417 S    
C30   C34   1.373620 A    
C50   H22   1.110086 S    
C6    N6    1.342097 A    
C80   H44   1.083808 S    
C27   N27   1.331670 A    
C109  H100  1.108222 S    
C105  C106  1.525622 S    
N8    Ni8   1.876429 S    
C71   H35   1.085769 S    
C51   H23   1.106958 S    
C31   C35   1.383196 A    
C95   H68   1.110503 S    
C17   C41   1.379694 A    
C82   C86   1.333605 D    
C104  H89   1.106120 S    
C22   O14   1.379731 S    
C112  H107  1.110052 S    
C44   C88   1.445136 S    
C61   C62   1.553108 S    
C112  H106  1.110914 S    
C112  H108  1.110898 S    
C1    C33   1.380087 A    
C4    N4    1.341029 A    
C39   C79   1.441958 S    
C24   C48   1.378194 A    
C23   C47   1.376824 A    
C106  H92   1.110915 S    
C2    N2    1.339868 A    
C110  H103  1.117317 S    
C59   C63   1.545316 S    
C52   C56   1.529758 S    
O14   C104  1.415557 S    
N8    N28   1.392787 A    
C99   C100  1.527552 S    
C105  H91   1.109495 S    
C22   N22   1.328962 A    
C84   C88   1.329724 D    
C54   N38   1.457368 S    
C84   H48   1.079846 S    
C103  H86   1.109547 S    
C32   C36   1.386685 A    
C101  H81   1.108092 S    
C104  C105  1.538572 S    
C18   N34   1.423669 S    
C9    N9    1.338683 A    
C20   C44   1.389123 A    
C89   H54   1.111691 S    
C5    C37   1.375203 A    
C51   C60   1.544151 S    
O16   C110  1.410893 S    
C65   H29   1.084614 S    
C78   H42   1.086352 S    
N17   Ni5   1.850946 S    
C32   H20   1.078790 S    
C96   H70   1.108741 S    
C93   H62   1.107286 S    
C109  H101  1.110894 S    
C66   C70   1.337465 D    
N10   N18   1.373671 A    
C15   N15   1.341169 A    
N25   Ni6   1.841514 S    
N4    Ni4   1.850527 S    
C63   C64   1.555096 S    
C4    C36   1.383662 A    
C49   C53   1.525681 S    
N37   O18   1.299697 A    
C97   H73   1.110926 S    
N21   Ni1   1.874248 S    
C18   N18   1.355158 A    
C14   O2    1.379083 S    
N26   Ni5   1.842051 S    
C103  H87   1.110856 S    
C83   C87   1.341192 D    
C12   C44   1.359327 A    
C48   C59   1.451757 S    
C11   N11   1.332627 A    
O2    C92   1.412673 S    
C102  C103  1.527010 S    
N38   O20   1.300528 A    
N23   Ni3   1.874248 S    
C29   C33   1.388221 A    
C100  H79   1.110362 S    
C108  H98   1.111350 S    
C49   C50   1.554541 S    
C42   C86   1.460002 S    
N11   N19   1.373740 A    
N3    N31   1.392787 A    
C90   H55   1.109677 S    
C43   C87   1.432312 S    
C70   H34   1.085509 S    
C77   H41   1.084127 S    
O13   C101  1.413562 S    
C26   C38   1.371935 A    
C67   H31   1.084346 S    
N33   O6    1.300709 A    
N30   Ni1   1.891617 S    
C21   C45   1.383216 A    
C17   N17   1.343319 A    
C2    C34   1.369589 A    
C83   H47   1.086235 S    
N40   O24   1.300549 A    
N15   Ni8   1.832634 S    
C28   N28   1.335646 A    
C25   H13   1.073086 S    
C13   N13   1.335537 A    
N14   Ni5   1.829359 S    
C63   H27   1.109920 S    
C98   H75   1.111662 S    
N6    Ni6   1.876429 S    
C109  H99   1.111036 S    
N35   O10   1.300880 A    
N13   N21   1.373740 A    
C8    C40   1.372868 A    
C54   C58   1.526622 S    
C14   N14   1.340802 A    
C24   N24   1.326524 A    
C15   C47   1.379900 A    
C16   N16   1.339971 A    
C53   C57   1.520979 S    
C95   H67   1.111086 S    
C12   N12   1.327571 A    
C29   H17   1.074840 S    
N1    Ni1   1.851264 S    
C97   H71   1.107812 S    
C74   C78   1.337234 D    
C110  C111  1.528030 S    
C16   O4    1.382246 S    
N35   O9    1.297807 A    
N18   Ni6   1.850278 S    
N32   Ni3   1.891617 S    
C28   C40   1.376972 A    
C27   C39   1.372128 A    
C22   C46   1.371733 A    
N20   Ni8   1.850278 S    
N3    Ni3   1.851264 S    
C97   H72   1.110350 S    
C73   H37   1.085133 S    
N24   Ni4   1.877552 S    
N9    N17   1.373740 A    
C33   C70   1.454331 S    
N6    N26   1.392787 A    
C20   N36   1.428425 S    
O15   C107  1.409434 S    
C53   N37   1.459408 S    
C105  H90   1.109685 S    
C56   N40   1.457580 S    
C23   O15   1.384758 S    
C30   H18   1.079335 S    
