data_mof_unit_35308.cif
_audit_creation_date              2012-10-26T19:09:30-0400
_audit_creation_method            fapswitch 2.2
_symmetry_space_group_name_H-M    P1
_symmetry_Int_Tables_number       1
_space_group_crystal_system       triclinic
_cell_length_a                    10.832883
_cell_length_b                    9.510493
_cell_length_c                    19.335802
_cell_angle_alpha                 90.001755
_cell_angle_beta                  90.158211
_cell_angle_gamma                 90.001301
_cell_volume                      1992.0838611

loop_
_atom_site_label
_atom_site_type_symbol
_atom_type_description
_atom_site_fract_x
_atom_site_fract_y
_atom_site_fract_z
_atom_type_partial_charge
C1    C     C_R   0.262031 0.499999 0.499944 0.551416
C2    C     C_R   0.063853 0.627784 0.499920 -0.140851
C3    C     C_R   0.871796 0.500001 0.500024 0.019584
C4    C     C_R   0.128204 0.499999 0.499915 0.019589
C5    C     C_R   0.423805 0.074444 0.456654 0.008375
C6    C     C_R   0.576202 0.925560 0.543340 0.007193
C7    C     C_R   0.576197 0.074452 0.543343 0.007810
C8    C     C_R   0.423799 0.925552 0.456659 0.007574
C9    C     C_R   0.523714 0.624013 0.254880 -0.131862
C10   C     C_R   0.513189 0.373493 0.745246 -0.129669
C11   C     C_R   0.488044 0.626364 0.745295 -0.131129
C12   C     C_R   0.737968 0.500001 0.500035 0.551352
C13   C     C_R   0.475399 0.375823 0.254883 -0.129772
C14   C     C_R   0.523991 0.625877 0.182524 -0.012540
C15   C     C_R   0.514049 0.371708 0.817619 -0.011371
C16   C     C_R   0.487373 0.627969 0.817671 -0.012113
C17   C     C_R   0.475163 0.373740 0.182525 -0.011548
C18   C     C_R   0.499673 0.499735 0.145664 0.050153
C19   C     C_R   0.500682 0.499778 0.854181 0.058604
C20   C     C_R   0.499643 0.499950 0.291285 -0.015685
C21   C     C_R   0.500466 0.499960 0.708816 -0.014977
C22   C     C_3   0.548915 0.764962 0.146924 -0.251110
C23   C     C_R   0.500475 0.499629 0.929922 0.323252
C24   C     C_3   0.687922 0.795443 0.145175 -0.281979
C25   C     C_3   0.716588 0.921943 0.099530 -0.451157
C26   C     C_3   0.531524 0.232197 0.854197 -0.259530
C27   C     C_3   0.664927 0.214654 0.879439 -0.289959
C28   C     C_3   0.682582 0.073779 0.915726 -0.458183
C29   C     C_3   0.470129 0.767418 0.854298 -0.259420
C30   C     C_3   0.336796 0.785133 0.879222 -0.288447
C31   C     C_3   0.319335 0.926049 0.915452 -0.457983
C32   C     C_3   0.450083 0.234585 0.146944 -0.251002
C33   C     C_3   0.311022 0.204465 0.144681 -0.283260
C34   C     C_R   0.499973 0.499591 0.069608 0.321935
C35   C     C_3   0.282239 0.077561 0.099237 -0.451524
C36   C     C_R   0.499840 0.499993 0.367343 0.546326
C37   C     C_R   0.500180 0.499998 0.632691 0.547337
C38   C     C_R   0.063848 0.372215 0.499929 -0.140994
C39   C     C_R   0.936152 0.627785 0.499991 -0.141115
C40   C     C_R   0.936147 0.372216 0.500004 -0.140782
Cu1   Cu    Cu3+1 0.500000 0.640660 0.500000 0.929526
Cu2   Cu    Cu3+1 0.500000 0.359340 0.500000 0.931037
H1    H     H_    0.111882 0.272313 0.499896 0.126644
H2    H     H_    0.637228 0.869387 0.578040 0.105267
H3    H     H_    0.637212 0.130634 0.578051 0.103429
H4    H     H_    0.362770 0.869373 0.421960 0.105440
H5    H     H_    0.689425 0.899091 0.045304 0.161640
H6    H     H_    0.666331 0.016383 0.118007 0.144846
H7    H     H_    0.817206 0.944022 0.100972 0.144036
H8    H     H_    0.721735 0.816589 0.198511 0.153678
H9    H     H_    0.738609 0.702783 0.124724 0.192775
H10   H     H_    0.509768 0.766667 0.093805 0.163354
H11   H     H_    0.501362 0.850869 0.175364 0.120930
H12   H     H_    0.888117 0.727687 0.500019 0.126500
H13   H     H_    0.615376 0.062846 0.958669 0.149399
H14   H     H_    0.669578 0.986323 0.878433 0.147850
H15   H     H_    0.777518 0.067286 0.937284 0.147789
H16   H     H_    0.729008 0.220688 0.834714 0.161901
H17   H     H_    0.689298 0.299781 0.916238 0.194701
H18   H     H_    0.466441 0.223579 0.898248 0.163317
H19   H     H_    0.509093 0.143942 0.818544 0.126805
H20   H     H_    0.386630 0.936965 0.958563 0.148933
H21   H     H_    0.332317 0.013460 0.878176 0.149441
H22   H     H_    0.224445 0.932648 0.936771 0.147574
H23   H     H_    0.888108 0.272314 0.500044 0.126739
H24   H     H_    0.272608 0.779146 0.834345 0.164487
H25   H     H_    0.312424 0.700065 0.915973 0.194354
H26   H     H_    0.535316 0.775838 0.898513 0.162812
H27   H     H_    0.492602 0.855716 0.818752 0.126334
H28   H     H_    0.309804 0.099654 0.045084 0.162036
H29   H     H_    0.332075 0.983135 0.118231 0.143836
H30   H     H_    0.181545 0.055905 0.100237 0.143840
H31   H     H_    0.276963 0.183974 0.197925 0.149438
H32   H     H_    0.260626 0.297057 0.123778 0.192923
H33   H     H_    0.489351 0.232590 0.093979 0.163386
H34   H     H_    0.111891 0.727686 0.499881 0.126683
H35   H     H_    0.497403 0.148660 0.175640 0.122206
H36   H     H_    0.542746 0.720461 0.282829 0.127686
H37   H     H_    0.524102 0.275587 0.717239 0.123282
H38   H     H_    0.477156 0.724346 0.717321 0.126097
H39   H     H_    0.456266 0.279475 0.282838 0.123039
H40   H     H_    0.362793 0.130620 0.421944 0.101986
N1    N     N_R   0.500000 0.852070 0.500000 -0.223397
N2    N     N_R   0.500000 0.147930 0.500000 -0.222294
N3    N     N_R   0.399096 0.456153 0.033804 -0.249331
N4    N     N_R   0.601213 0.543596 0.965574 -0.255620
N5    N     N_R   0.399493 0.455610 0.965033 -0.255059
N6    N     N_R   0.601111 0.543018 0.034345 -0.248805
O1    O     O_R   0.319640 0.618740 0.500000 -0.507136
O2    O     O_R   0.680360 0.381260 0.500000 -0.507055
O3    O     O_R   0.680360 0.618740 0.500000 -0.507681
O4    O     O_R   0.319640 0.381260 0.500000 -0.507393
O5    O     O_R   0.499980 0.618820 0.400140 -0.504854
O6    O     O_R   0.500020 0.381180 0.599860 -0.503841
O7    O     O_R   0.500020 0.618820 0.599860 -0.504398
O8    O     O_R   0.499980 0.381180 0.400140 -0.503654

loop_
_geom_bond_atom_site_label_1
_geom_bond_atom_site_label_2
_ccdc_geom_bond_type
Cu1   O1    S    
C8    N1    A    
Cu1   Cu2   S    
C14   C18   A    
C12   O3    A    
C19   C23   S    
C32   H33   S    
C28   H14   S    
C28   H15   S    
C15   C19   A    
C26   C27   S    
Cu2   O8    S    
C7    H3    S    
C12   O2    A    
C26   H19   S    
C10   C15   A    
C30   C31   S    
N4    N6    A    
C39   H12   S    
Cu1   N1    S    
C13   H39   S    
C37   O7    A    
C3    C12   S    
C32   H35   S    
C2    C39   A    
Cu1   O5    S    
C35   H28   S    
C23   N4    A    
C25   H5    S    
C30   H25   S    
C25   H7    S    
C24   H9    S    
C7    N2    A    
C3    C39   A    
C23   N5    A    
C31   H20   S    
C36   O5    A    
C28   H13   S    
C22   H11   S    
C29   H27   S    
N3    N5    A    
C10   C21   A    
C24   H8    S    
C31   H21   S    
Cu2   N2    S    
C24   C25   S    
C5    N2    A    
C15   C26   S    
C16   C29   S    
C11   C21   A    
Cu2   O2    S    
C34   N3    A    
C2    C4    A    
C9    C14   A    
C29   C30   S    
C29   H26   S    
C11   C16   A    
C36   O8    A    
C9    C20   A    
C17   C18   A    
C34   N6    A    
C18   C34   S    
C25   H6    S    
C30   H24   S    
C33   H31   S    
Cu1   O3    S    
C4    C38   A    
C3    C40   A    
C1    O4    A    
C40   H23   S    
C22   C24   S    
C2    H34   S    
C22   H10   S    
C1    O1    A    
C6    N1    A    
C13   C20   A    
Cu2   O6    S    
C31   H22   S    
C27   H16   S    
C35   H30   S    
C5    C8    A    
C10   H37   S    
C6    C7    A    
C13   C17   A    
C1    C4    S    
C32   C33   S    
C14   C22   S    
C38   H1    S    
C27   H17   S    
C38   C40   A    
C5    H40   S    
Cu1   O7    S    
C16   C19   A    
C33   C35   S    
C37   O6    A    
Cu2   O4    S    
C9    H36   S    
C8    H4    S    
C11   H38   S    
C35   H29   S    
C20   C36   S    
C33   H32   S    
C21   C37   S    
C27   C28   S    
C17   C32   S    
C6    H2    S    
C26   H18   S    
