data_mof_unit_7443.cif
_audit_creation_date              2012-12-10T20:36:42-0500
_audit_creation_method            fapswitch 2.2
_symmetry_space_group_name_H-M    P1
_symmetry_Int_Tables_number       1
_space_group_crystal_system       triclinic
_cell_length_a                    10.583569
_cell_length_b                    10.661211
_cell_length_c                    9.973324
_cell_angle_alpha                 87.334481
_cell_angle_beta                  87.78049
_cell_angle_gamma                 91.711001
_cell_volume                      1122.70065732

loop_
_atom_site_label
_atom_site_type_symbol
_atom_type_description
_atom_site_fract_x
_atom_site_fract_y
_atom_site_fract_z
_atom_type_partial_charge
C1    C     C_R   0.486469 0.260893 0.503548 0.916694
C2    C     C_3   0.964338 0.594673 0.421377 -0.303356
C3    C     C_3   0.048137 0.487135 0.373027 -0.344763
C4    C     C_3   0.121507 0.492533 0.504828 -0.190960
C5    C     C_R   0.459896 0.055847 0.627097 0.137553
C6    C     C_R   0.452066 0.129978 0.510353 -0.140398
C7    C     C_R   0.427145 0.072077 0.391503 -0.406920
C8    C     C_R   0.473204 0.951090 0.374528 0.488135
C9    C     C_R   0.489079 0.875727 0.493901 -0.213453
C10   C     C_R   0.472301 0.929147 0.618732 0.097397
C11   C     C_3   0.556017 0.922963 0.735802 -0.457916
C12   C     C_R   0.257269 0.496140 0.502225 0.902009
C13   C     C_3   0.543582 0.063827 0.743322 -0.486248
C14   C     C_R   0.396161 0.461352 0.077352 0.072041
C15   C     C_R   0.605869 0.533819 0.065432 0.505784
C16   C     C_R   0.605337 0.534223 0.922095 -0.249420
C17   C     C_R   0.391962 0.470005 0.935344 0.149178
C18   C     C_3   0.316990 0.348818 0.935206 0.336666
C19   C     C_3   0.342362 0.330601 0.085589 -0.657777
C20   C     C_R   0.503431 0.741370 0.496712 0.853108
C21   C     C_R   0.741976 0.497932 0.497747 0.929728
C22   C     C_3   0.029284 0.394228 0.575695 0.395486
C23   C     C_3   0.957529 0.388394 0.445945 0.434250
C24   C     C_3   0.876367 0.494976 0.493778 -0.149509
C25   C     C_3   0.948136 0.502060 0.624440 -0.314739
C26   C     C_3   0.039112 0.598879 0.550225 0.520323
H1    H     H_    0.491410 0.090899 0.835795 0.196143
H2    H     H_    0.633721 0.117637 0.718159 0.204540
H3    H     H_    0.932632 0.676011 0.359816 0.151933
H4    H     H_    0.091980 0.482108 0.271571 0.164433
H5    H     H_    0.508527 0.867922 0.821792 0.212605
N1    N     N_R   0.499140 0.499140 0.142800 -0.134906
N2    N     N_R   0.499140 0.499180 0.857150 -0.155977
O1    O     O_R   0.500020 0.316790 0.614690 -0.631370
O2    O     O_R   0.500000 0.316760 0.385350 -0.615037
O3    O     O_R   0.313960 0.499990 0.614650 -0.558627
O4    O     O_R   0.313940 0.499950 0.385310 -0.645378
O5    O     O_R   0.500000 0.683240 0.614650 -0.608222
O6    O     O_R   0.499980 0.683210 0.385310 -0.592389
O7    O     O_R   0.686060 0.500050 0.614690 -0.656332
O8    O     O_R   0.686040 0.500010 0.385350 -0.553511
Zn1   Zn    Zn3+2 0.500010 0.500020 0.653130 0.963226
Zn2   Zn    Zn3+2 0.499990 0.499980 0.346870 0.987492
O9    O     O_3   0.904313 0.280891 0.389594 -0.610514
C27   C     C_3   0.001970 0.203461 0.345067 0.110009
H6    H     H_    0.054127 0.163092 0.430287 0.151747
H7    H     H_    0.071838 0.256026 0.277280 0.114941
C28   C     C_3   0.945079 0.096365 0.269370 -0.862925
H8    H     H_    0.896846 0.134716 0.180121 0.263419
H9    H     H_    0.020922 0.033963 0.235394 0.207365
H10   H     H_    0.875534 0.040513 0.335784 0.258421
H11   H     H_    0.653673 0.894641 0.708521 0.200527
O10   O     O_3   0.718670 0.554962 0.126623 -0.604028
C29   C     C_3   0.740683 0.685023 0.139472 0.163069
H12   H     H_    0.744490 0.704241 0.247508 0.182289
H13   H     H_    0.664800 0.743331 0.099586 0.155478
C30   C     C_3   0.867354 0.725804 0.070390 -0.948806
H14   H     H_    0.863559 0.713919 0.960624 0.264450
H15   H     H_    0.891142 0.825398 0.087496 0.227788
H16   H     H_    0.944287 0.669629 0.112359 0.268664
H17   H     H_    0.691487 0.559482 0.864126 0.177237
O11   O     O_3   0.190438 0.370551 0.895592 -0.523973
C31   C     C_3   0.108526 0.405289 0.002225 0.138160
H18   H     H_    0.151635 0.481652 0.058779 0.137807
H19   H     H_    0.081605 0.320958 0.066820 0.136886
C32   C     C_3   0.987407 0.456100 0.952049 -0.832395
H20   H     H_    0.940427 0.387681 0.889968 0.259148
H21   H     H_    0.922463 0.469443 0.039322 0.265792
H22   H     H_    0.007907 0.547435 0.896537 0.269565
H23   H     H_    0.363405 0.278517 0.872667 0.113581
H24   H     H_    0.263301 0.316899 0.160871 0.186366
H25   H     H_    0.417860 0.262337 0.103302 0.170792
O12   O     O_3   0.066750 0.291377 0.658073 -0.570703
C33   C     C_3   0.960012 0.212833 0.698041 0.131578
H26   H     H_    0.932832 0.153029 0.615450 0.151512
H27   H     H_    0.875412 0.266509 0.727113 0.119816
C34   C     C_3   0.991882 0.125562 0.816605 -0.816564
H28   H     H_    0.995659 0.177349 0.909998 0.257437
H29   H     H_    0.918026 0.049439 0.831919 0.203958
H30   H     H_    0.084990 0.083200 0.797936 0.271616
H31   H     H_    0.894843 0.516509 0.719182 0.168190
O13   O     O_3   0.079424 0.706960 0.614947 -0.602757
C35   C     C_3   0.142761 0.793201 0.522078 0.117011
H32   H     H_    0.093697 0.805256 0.425986 0.126610
H33   H     H_    0.240282 0.762560 0.500441 0.142796
C36   C     C_3   0.148168 0.920897 0.582852 -0.823215
H34   H     H_    0.199823 0.915635 0.677632 0.263526
H35   H     H_    0.196617 0.990759 0.511235 0.215163
H36   H     H_    0.050467 0.951561 0.604136 0.252735
H37   H     H_    0.398715 0.128831 0.305856 0.163406
O14   O     O_3   0.517669 0.912481 0.248845 -0.605892
C37   C     C_3   0.551657 0.016982 0.157699 0.091406
H38   H     H_    0.588661 0.100491 0.208931 0.174968
H39   H     H_    0.468433 0.042590 0.098808 0.144285
C38   C     C_3   0.660002 0.989201 0.061426 -0.917086
H40   H     H_    0.631762 0.916049 0.993250 0.259667
H41   H     H_    0.688106 0.075325 0.999051 0.226471
H42   H     H_    0.741956 0.961172 0.119830 0.261691

loop_
_geom_bond_atom_site_label_1
_geom_bond_atom_site_label_2
_ccdc_geom_bond_type
C18   H23   S    
C32   H21   S    
C31   H19   S    
C11   C13   S    
O12   C33   S    
O3    Zn1   S    
C38   H40   S    
O1    Zn1   S    
C38   H42   S    
C7    C8    A    
C34   H28   S    
C33   H27   S    
C2    H3    S    
N2    Zn1   S    
C15   O10   S    
O5    Zn1   S    
C5    C6    A    
C36   H35   S    
C30   H15   S    
C32   H22   S    
C19   H24   S    
C15   C16   A    
C4    C22   S    
C18   C19   S    
C12   O4    A    
C11   H11   S    
C3    C23   S    
C28   H10   S    
C8    C9    A    
C33   C34   S    
C23   C24   S    
C13   H2    S    
C12   O3    A    
O2    Zn2   S    
C9    C10   A    
C5    C13   S    
C28   H9    S    
C32   H20   S    
C31   C32   S    
C11   H5    S    
C26   O13   S    
C25   H31   S    
O8    Zn2   S    
C14   C17   A    
C19   H25   S    
C17   N2    A    
C1    O1    A    
C27   H7    S    
C29   H13   S    
C33   H26   S    
C1    C6    S    
C15   N1    A    
C24   C25   S    
O14   C37   S    
C20   O6    A    
C36   H34   S    
C18   O11   S    
C30   H16   S    
O6    Zn2   S    
C25   C26   S    
C27   H6    S    
C7    H37   S    
C22   C25   S    
C37   C38   S    
C23   O9    S    
O4    Zn2   S    
C3    H4    S    
O11   C31   S    
C16   N2    A    
C20   O5    A    
C9    C20   S    
C35   H32   S    
C37   H39   S    
C17   C18   S    
C34   H29   S    
C2    C26   S    
C8    O14   S    
C21   O8    A    
C28   H8    S    
C35   H33   S    
C2    C24   S    
C4    C12   S    
C16   H17   S    
C3    C4    S    
O9    C27   S    
C1    O2    A    
C27   C28   S    
C29   H12   S    
C14   C19   S    
C14   N1    A    
C36   H36   S    
C4    C26   S    
C38   H41   S    
O10   C29   S    
C6    C7    A    
C2    C3    S    
C5    C10   A    
C34   H30   S    
C30   H14   S    
C21   O7    A    
O7    Zn1   S    
C37   H38   S    
N1    Zn2   S    
C10   C11   S    
C31   H18   S    
C35   C36   S    
O13   C35   S    
C21   C24   S    
C22   C23   S    
C13   H1    S    
C22   O12   S    
C29   C30   S    
