data_mof_unit_10916.cif
_audit_creation_date              2013-03-05T16:01:05-0500
_audit_creation_method            fapswitch 2.2
_symmetry_space_group_name_H-M    P1
_symmetry_Int_Tables_number       1
_space_group_crystal_system       triclinic
_cell_length_a                    8.264063
_cell_length_b                    12.841815
_cell_length_c                    18.748649
_cell_angle_alpha                 99.474388
_cell_angle_beta                  89.706421
_cell_angle_gamma                 99.12564
_cell_volume                      1937.27974692

loop_
_atom_site_label
_atom_site_type_symbol
_atom_site_description
_atom_site_fract_x
_atom_site_fract_y
_atom_site_fract_z
_atom_type_partial_charge
P1    P     P_3+3 0.041040 0.394770 0.336330 0.473724
O1    O     O_2   0.873090 0.425890 0.325140 -0.358573
O2    O     O_3   0.122420 0.434370 0.414380 -0.409680
O3    O     O_3   0.659500 0.627100 0.368810 -0.358482
O4    O     O_2   0.785695 0.543028 0.250266 -0.446908
O5    O     O_3   0.990422 0.255459 0.316809 -0.559329
O6    O     O_3   0.708808 0.730803 0.247670 -0.611748
H1    H     H_    0.747144 0.812708 0.353070 0.076032
C1    C     C_3   0.776370 0.918784 0.275346 -1.007501
H2    H     H_    0.771780 0.988747 0.318337 0.250829
H3    H     H_    0.904050 0.909714 0.262232 0.255345
P2    P     P_3+3 0.672880 0.754030 0.556100 0.492165
P3    P     P_3+3 0.131022 0.823552 0.408194 0.481641
O7    O     O_2   0.848200 0.768190 0.534530 -0.355727
O8    O     O_3   0.081160 0.685950 0.404810 -0.390389
O9    O     O_2   0.986906 0.876103 0.442408 -0.439694
O10   O     O_3   0.715390 0.800014 0.648946 -0.619296
O11   O     O_3   0.137033 0.848893 0.318806 -0.498113
C2    C     C_3   0.105750 0.752173 0.269194 0.550644
H4    H     H_    0.976000 0.719841 0.269169 0.123617
H5    H     H_    0.170349 0.688399 0.281925 0.121025
C3    C     C_3   0.153951 0.771771 0.193428 -0.984301
H6    H     H_    0.101928 0.701118 0.153103 0.216212
H7    H     H_    0.107651 0.843391 0.180939 0.262942
C4    C     C_3   0.193256 0.794569 0.624424 0.405876
H8    H     H_    0.322479 0.811729 0.609940 -0.015618
H9    H     H_    0.121333 0.747700 0.576990 0.147080
C5    C     C_3   0.133804 0.901019 0.643104 -0.877596
H10   H     H_    0.209650 0.952087 0.687591 0.246540
H11   H     H_    0.142379 0.941462 0.595074 0.232902
H12   H     H_    0.006056 0.889068 0.661637 0.281168
Ba1   Ba    Ba6+2 0.852780 0.548340 0.465070 1.596573
C6    C     C_3   0.987036 0.206172 0.378175 0.360440
H13   H     H_    0.857273 0.177750 0.389024 0.079951
H14   H     H_    0.044505 0.256683 0.427989 0.142001
C7    C     C_3   0.073170 0.109761 0.359667 -0.883507
H15   H     H_    0.037421 0.067991 0.304550 0.267049
H16   H     H_    0.044437 0.055768 0.399906 0.256227
H17   H     H_    0.206135 0.134486 0.357403 0.273585
C8    C     C_3   0.597230 0.754967 0.692817 0.843642
H18   H     H_    0.479667 0.730365 0.663991 0.022621
C9    C     C_3   0.571174 0.836518 0.759440 -0.988250
H19   H     H_    0.686297 0.892668 0.775838 0.306241
H20   H     H_    0.528369 0.796576 0.805685 0.235092
H21   H     H_    0.473391 0.880997 0.747616 0.236740
P4    P     P_3+3 0.148670 0.605320 0.663680 0.501563
O12   O     O_2   0.316610 0.574140 0.674900 -0.387432
O13   O     O_3   0.067290 0.565720 0.585630 -0.402139
O14   O     O_3   0.530210 0.372990 0.631200 -0.338218
O15   O     O_3   0.183183 0.745301 0.686077 -0.563501
P5    P     P_3+3 0.062452 0.176430 0.596523 0.445285
O16   O     O_3   0.611340 0.366290 0.463630 -0.377943
O17   O     O_3   0.108550 0.314140 0.595200 -0.352657
O18   O     O_2   0.186738 0.124536 0.546781 -0.403358
O19   O     O_3   0.123755 0.156379 0.681664 -0.504557
Ba2   Ba    Ba6+2 0.337060 0.451750 0.534940 1.606848
P6    P     P_3+3 0.646607 0.606695 0.274894 0.437808
C10   C     C_3   0.689590 0.818276 0.300825 0.829653
H22   H     H_    0.716623 0.932218 0.225461 0.273907
O20   O     O_3   0.578370 0.633800 0.536380 -0.348907
C11   C     C_3   0.474779 0.273963 0.315698 0.431364
H23   H     H_    0.360415 0.300353 0.338052 0.075935
H24   H     H_    0.575670 0.343129 0.323544 0.124567
C12   C     C_3   0.447663 0.234437 0.235002 -0.987144
H25   H     H_    0.342157 0.168093 0.225565 0.280556
H26   H     H_    0.421516 0.300297 0.207500 0.206093
H27   H     H_    0.559097 0.205202 0.211564 0.267339
P7    P     P_3+3 0.524511 0.230363 0.442281 0.431698
O21   O     O_2   0.341510 0.231850 0.465510 -0.387560
O22   O     O_3   0.515820 0.190421 0.348331 -0.547682
H28   H     H_    0.289293 0.784144 0.188829 0.290684
C13   C     C_3   0.988518 0.148544 0.726909 0.150995
H29   H     H_    0.928186 0.220830 0.731061 0.074466
H30   H     H_    0.900215 0.075265 0.706082 0.073710
C14   C     C_3   0.050133 0.139783 0.802113 -0.054263
H31   H     H_    0.122121 0.217596 0.827477 0.135595
H32   H     H_    0.132631 0.078557 0.796924 0.139931
P8    P     P_3+3 0.548218 0.380001 0.724923 0.522099
C15   C     C_3   0.533922 0.178620 0.689899 0.526848
H33   H     H_    0.662281 0.204946 0.674514 -0.021286
O23   O     O_2   0.422329 0.449325 0.759317 -0.364039
O24   O     O_3   0.477582 0.252736 0.744038 -0.519382
H34   H     H_    0.451982 0.164482 0.641311 0.144078
H35   H     H_    0.635036 0.080905 0.755552 0.289785
C16   C     C_3   0.530288 0.074648 0.717790 -1.032727
H36   H     H_    0.537722 0.009178 0.671763 0.219845
H37   H     H_    0.416565 0.057024 0.748046 0.278500
C17   C     C_R   0.999963 0.440588 0.045460 0.016119
C18   C     C_R   0.900615 0.389598 0.094681 0.093151
C19   C     C_R   0.738623 0.342222 0.074135 -0.192096
C20   C     C_R   0.675206 0.345219 0.005431 -0.124891
C21   C     C_R   0.772454 0.395258 0.955305 0.141026
C22   C     C_R   0.934979 0.443288 0.975455 0.004579
C23   C     C_R   0.710854 0.395943 0.885130 -0.153874
C24   C     C_R   0.811060 0.441823 0.833312 -0.035119
C25   C     C_R   0.971044 0.494711 0.854873 0.010803
C26   C     C_R   0.032035 0.494484 0.925800 -0.014202
C27   C     C_R   0.760634 0.433702 0.759885 0.195098
C28   C     C_R   0.874328 0.470454 0.709713 -0.333680
C29   C     C_R   0.022283 0.536719 0.732069 0.320426
C30   C     C_R   0.071502 0.548048 0.805612 -0.034654
C31   C     C_R   0.164263 0.486989 0.065449 -0.011612
C32   C     C_R   0.228331 0.486976 0.136378 -0.024432
C33   C     C_R   0.120705 0.440916 0.187915 -0.030577
C34   C     C_R   0.962393 0.387850 0.164061 -0.133931
H38   H     H_    0.659993 0.303395 0.111556 0.136896
H39   H     H_    0.549829 0.308141 0.991489 0.139433
H40   H     H_    0.841395 0.454596 0.652772 0.178726
H41   H     H_    0.586640 0.357282 0.870823 0.173234
H42   H     H_    0.883406 0.345642 0.199557 0.173580
C35   C     C_R   0.224111 0.605182 0.830266 -0.127215
C36   C     C_R   0.290051 0.593016 0.895793 0.114496
C37   C     C_R   0.194096 0.540797 0.945502 0.031903
C38   C     C_R   0.262459 0.533723 0.013867 -0.019548
C39   C     C_R   0.456026 0.624111 0.908772 -0.155355
C40   C     C_R   0.526135 0.606484 0.970980 -0.193231
C41   C     C_R   0.430356 0.570695 0.028368 0.097117
C42   C     C_R   0.396736 0.533607 0.155450 -0.112611
C43   C     C_R   0.500256 0.572002 0.098087 0.111002
C44   C     C_R   0.446105 0.539072 0.230624 0.274510
C45   C     C_R   0.333122 0.499533 0.280408 -0.465805
C46   C     C_R   0.172733 0.449833 0.261719 0.212925
H43   H     H_    0.299932 0.652734 0.796827 0.154903
H44   H     H_    0.534583 0.655842 0.868555 0.173832
H45   H     H_    0.657581 0.622776 0.971005 0.152258
H46   H     H_    0.372376 0.506623 0.336230 0.176831
C47   C     C_R   0.764104 0.182244 0.529163 -0.503077
C48   C     C_R   0.420830 0.812775 0.482427 -0.431413
C49   C     C_R   0.395397 0.987063 0.456869 -0.128536
C50   C     C_R   0.328373 0.880350 0.455898 0.314944
C51   C     C_R   0.576294 0.851119 0.514085 0.194374
C52   C     C_R   0.640707 0.962462 0.520380 -0.039738
C53   C     C_R   0.550007 0.030392 0.489355 -0.081651
C54   C     C_R   0.616029 0.140087 0.492164 0.247232
C55   C     C_R   0.854047 0.117329 0.559899 0.190410
C56   C     C_R   0.792499 0.008181 0.555703 -0.214521
H47   H     H_    0.325482 0.034707 0.431169 0.186233
H48   H     H_    0.864690 0.960222 0.579667 0.178457
H49   H     H_    0.814250 0.265775 0.530736 0.163687
H50   H     H_    0.369671 0.729047 0.478983 0.169586
N1    N     N_R   0.653016 0.663071 0.713643 0.218434
O25   O     O_R   0.753119 0.675360 0.768860 -0.465758
O26   O     O_R   0.651637 0.581196 0.663052 -0.371837
N2    N     N_R   0.516898 0.824763 0.310407 0.198923
O27   O     O_R   0.455568 0.907931 0.298610 -0.401297
O28   O     O_R   0.424296 0.747326 0.334069 -0.495600
N3    N     N_R   0.914142 0.109712 0.848289 0.235547
O29   O     O_R   0.902381 0.020948 0.874221 -0.374107
O30   O     O_R   0.811482 0.175194 0.868495 -0.417524
C57   C     C_3   0.683590 0.617347 0.104562 -0.281202
C58   C     C_3   0.718813 0.739314 0.105089 -0.741999
H51   H     H_    0.730757 0.761250 0.050524 0.229019
H52   H     H_    0.619519 0.778725 0.132356 0.269449
H53   H     H_    0.837230 0.773691 0.133321 0.255726
H54   H     H_    0.750052 0.594841 0.146502 0.241021
H55   H     H_    0.750508 0.576716 0.060210 0.135656

loop_
_geom_bond_atom_site_label_1
_geom_bond_atom_site_label_2
_geom_bond_distance
_ccdc_geom_bond_type
C11   O22   1.404989 S    
C34   H42   1.079272 S    
P2    C51   1.859459 S    
C24   C25   1.415254 A    
C47   C54   1.395229 A    
C57   H54   1.064478 S    
C24   C27   1.422874 A    
C55   C56   1.402673 A    
C16   H36   1.110088 S    
C40   C41   1.426202 A    
C4    C5    1.512091 S    
C28   H40   1.081242 S    
C47   H49   1.082578 S    
P3    O11   1.757994 S    
C5    H10   1.101588 S    
C2    H5    1.103186 S    
C47   C55   1.392333 A    
O11   C2    1.412453 S    
N1    O26   1.293553 A    
C33   C46   1.432141 A    
C39   C40   1.372100 A    
C6    C7    1.515104 S    
O14   P8    1.750514 S    
O1    Ba1   2.846870 S    
P1    O1    1.528613 D    
P4    O12   1.528969 D    
C58   H53   1.106378 S    
C11   H24   1.108630 S    
C42   C43   1.470713 A    
C33   C34   1.413830 A    
N3    O29   1.300786 A    
H1    C10   1.108800 S    
C4    O15   1.402310 S    
P5    C55   1.854633 S    
Ba1   O16   2.819141 S    
C2    H4    1.086671 S    
C26   C37   1.401400 A    
P7    O21   1.573802 D    
P2    O10   1.761924 S    
P8    C27   1.861648 S    
P3    C50   1.847887 S    
C1    H2    1.109242 S    
O6    C10   1.402379 S    
O19   C13   1.400521 S    
O16   P7    1.760014 S    
C52   C56   1.415541 A    
C11   H23   1.111092 S    
C43   C57   1.532342 S    
C8    C9    1.530191 S    
C57   H55   1.101588 S    
C8    N1    1.443529 S    
P2    Ba1   3.440316 S    
Ba1   Ba2   4.629779 S    
Ba1   O13   2.837423 S    
C23   C24   1.414981 A    
C9    H20   1.107095 S    
C13   C14   1.528956 S    
C36   C37   1.405915 A    
C16   H37   1.107066 S    
P4    O13   1.583936 S    
C35   H43   1.076665 S    
P1    O5    1.748748 S    
C12   H27   1.110549 S    
C20   H39   1.083468 S    
O8    Ba1   2.745699 S    
C2    C3    1.523149 S    
H35   C16   1.105677 S    
C19   H38   1.082026 S    
C13   H30   1.111158 S    
C20   C21   1.403323 A    
C52   C53   1.428312 A    
C14   N3    1.457415 S    
C4    H8    1.097641 S    
C7    H17   1.096966 S    
P1    Ba1   3.391658 S    
Ba2   O20   2.818520 S    
P1    O2    1.583937 S    
C9    H21   1.103789 S    
C12   H26   1.109307 S    
O3    P6    1.738277 S    
C11   C12   1.520327 S    
C14   H31   1.111976 S    
C31   C38   1.408020 A    
C1    H3    1.101937 S    
O2    Ba2   2.838086 S    
P8    O24   1.740173 S    
C28   C29   1.397366 A    
C58   H51   1.104854 S    
C25   C26   1.425131 A    
C21   C23   1.415030 A    
C6    H13   1.105724 S    
O2    Ba1   2.926700 S    
C14   H32   1.112047 S    
C45   C46   1.396346 A    
O3    Ba1   2.823878 S    
P6    C44   1.873211 S    
C49   C53   1.408542 A    
N2    O28   1.292953 A    
C8    H18   1.089779 S    
P2    O7    1.493461 D    
Ba2   O21   2.914207 S    
C40   H45   1.073150 S    
P3    O8    1.740323 S    
C53   C54   1.420193 A    
C3    H7    1.109313 S    
C32   C42   1.446911 A    
C4    H9    1.105504 S    
C9    H19   1.109952 S    
Ba1   O20   2.899977 S    
P4    Ba2   3.392246 S    
C51   C52   1.430168 A    
C48   C51   1.398679 A    
C22   C26   1.403153 A    
C3    H28   1.109418 S    
C15   C16   1.508003 S    
C44   C45   1.413340 A    
C56   H48   1.071213 S    
C37   C38   1.425598 A    
O17   Ba2   2.746327 S    
O13   Ba2   2.927601 S    
P4    C29   1.891381 S    
C17   C22   1.428410 A    
C1    C10   1.521278 S    
C39   H44   1.080872 S    
C35   C36   1.388429 A    
N3    O30   1.299431 A    
C57   C58   1.545430 S    
C5    H12   1.105095 S    
O7    Ba1   2.913968 S    
C13   H29   1.113095 S    
C48   C50   1.393049 A    
C15   O24   1.403788 S    
C17   C31   1.419210 A    
C30   C35   1.394033 A    
O14   Ba2   2.823207 S    
P4    O15   1.754753 S    
C23   H41   1.081439 S    
O5    C6    1.399600 S    
O4    P6    1.539883 D    
N2    O27   1.302721 A    
P5    O18   1.539970 D    
C12   H25   1.110731 S    
C41   C43   1.428294 A    
C49   C50   1.391476 A    
C45   H46   1.082394 S    
N1    O25   1.301764 A    
C7    H16   1.106559 S    
C15   H34   1.110960 S    
P8    O23   1.545505 D    
C19   C20   1.401783 A    
O16   Ba2   2.899075 S    
C5    H11   1.107848 S    
C21   C22   1.411680 A    
C6    H14   1.107229 S    
O6    P6    1.752159 S    
P7    C54   1.852826 S    
P5    O19   1.748158 S    
C58   H52   1.110445 S    
C48   H50   1.082697 S    
C31   C32   1.433918 A    
C42   C44   1.456729 A    
C38   C41   1.406036 A    
C15   H33   1.112629 S    
P2    O20   1.600964 S    
C10   N2    1.451242 S    
C49   H47   1.073505 S    
C17   C18   1.405376 A    
C7    H15   1.101479 S    
C27   C28   1.409542 A    
P3    O9    1.545942 D    
C18   C34   1.404726 A    
C32   C33   1.444655 A    
P7    O22   1.750162 S    
C3    H6    1.110590 S    
C29   C30   1.417297 A    
P5    O17   1.753219 S    
C18   C19   1.407291 A    
C25   C30   1.425272 A    
C1    H22   1.110472 S    
O10   C8    1.390654 S    
C36   C39   1.377582 A    
P1    C46   1.925396 S    
O12   Ba2   2.847186 S    
