data_mof_unit_9196.cif
_audit_creation_date              2012-12-10T21:00:36-0500
_audit_creation_method            fapswitch 2.2
_symmetry_space_group_name_H-M    P1
_symmetry_Int_Tables_number       1
_space_group_crystal_system       triclinic
_cell_length_a                    18.115754
_cell_length_b                    18.192115
_cell_length_c                    18.398829
_cell_angle_alpha                 119.934963
_cell_angle_beta                  90.123594
_cell_angle_gamma                 119.755241
_cell_volume                      4303.01136112

loop_
_atom_site_label
_atom_site_type_symbol
_atom_type_description
_atom_site_fract_x
_atom_site_fract_y
_atom_site_fract_z
_atom_type_partial_charge
C1    C     C_R   0.110391 0.220139 0.609927 0.824634
C2    C     C_3   0.449551 0.896144 0.946431 -0.467812
C3    C     C_3   0.810846 0.142441 0.151520 -0.173020
C4    C     C_3   0.935656 0.722472 0.788322 -0.118433
C5    C     C_3   0.073029 0.262433 0.172716 -0.158541
C6    C     C_3   0.415480 0.888784 0.772559 -0.224487
C7    C     C_3   0.588069 0.991619 0.163399 -0.236248
C8    C     C_3   0.395253 0.240255 0.398064 -0.246058
C9    C     C_3   0.463745 0.704834 0.598908 -0.286533
C10   C     C_3   0.280358 0.415166 0.396220 -0.025867
C11   C     C_3   0.720739 0.735694 0.609939 -0.149885
C12   C     C_3   0.539827 0.647704 0.407239 -0.177531
C13   C     C_3   0.446195 0.032343 0.016712 0.487965
C14   C     C_3   0.601599 0.438930 0.595375 -0.062438
C15   C     C_3   0.554229 0.967812 0.982775 0.418436
C16   C     C_3   0.413382 0.440187 0.448177 0.377451
C17   C     C_3   0.586428 0.575852 0.551902 0.384731
C18   C     C_3   0.480728 0.411832 0.447464 0.334267
C19   C     C_3   0.516949 0.602015 0.552928 0.282786
C20   C     C_3   0.551710 0.506500 0.448684 -0.398469
C21   C     C_3   0.448120 0.506165 0.551333 -0.394315
C22   C     C_3   0.484404 0.535345 0.449693 0.296536
C23   C     C_R   0.889449 0.779897 0.390136 0.808901
C24   C     C_3   0.517469 0.480053 0.549794 0.331077
C25   C     C_R   0.124808 0.170861 0.834243 -0.339156
C26   C     C_R   0.867689 0.833209 0.169456 -0.336041
C27   C     C_R   0.392624 0.780736 0.888258 0.951804
C28   C     C_R   0.607304 0.219173 0.112132 0.999873
C29   C     C_R   0.108352 0.121650 0.742709 0.634955
C30   C     C_R   0.887402 0.882034 0.261167 0.627317
C31   C     C_R   0.034351 0.098433 0.688918 0.008325
C32   C     C_R   0.961760 0.902070 0.311283 0.015407
C33   C     C_R   0.975442 0.121671 0.727003 -0.323918
C34   C     C_3   0.981272 0.426149 0.412668 -0.445008
C35   C     C_R   0.017971 0.876356 0.269419 -0.308395
C36   C     C_R   0.991685 0.170364 0.818410 -0.199328
C37   C     C_R   0.998287 0.827772 0.177679 -0.196635
C38   C     C_R   0.067762 0.198510 0.873407 0.537132
C39   C     C_R   0.921436 0.802422 0.126486 0.532651
C40   C     C_R   0.965693 0.943661 0.536748 -0.221662
C41   C     C_R   0.033977 0.056451 0.463593 -0.210994
C42   C     C_R   0.946142 0.892347 0.444766 -0.053016
C43   C     C_R   0.053570 0.107754 0.555509 -0.058405
C44   C     C_R   0.980541 0.949630 0.407658 0.081545
C45   C     C_3   0.020136 0.574224 0.586836 -0.465626
C46   C     C_R   0.018673 0.050571 0.592692 0.088914
C47   C     C_R   0.673775 0.704909 0.872745 0.455915
C48   C     C_R   0.331612 0.299438 0.133070 0.430251
C49   C     C_R   0.617154 0.628112 0.885396 0.550016
C50   C     C_R   0.381923 0.375395 0.117811 0.544370
C51   C     C_R   0.111371 0.501499 0.890196 0.847454
C52   C     C_R   0.888954 0.498879 0.110085 0.837502
C53   C     C_R   0.596584 0.655019 0.964642 -0.087539
C54   C     C_R   0.403851 0.349294 0.039402 -0.101829
C55   C     C_R   0.633328 0.759208 0.030938 -0.390661
C56   C     C_3   0.449268 0.967072 0.923773 0.288751
C57   C     C_R   0.373828 0.246689 0.975977 -0.345803
C58   C     C_R   0.689585 0.835691 0.018297 -0.198731
C59   C     C_R   0.323905 0.171110 0.991360 -0.171961
C60   C     C_R   0.709379 0.809990 0.939133 0.451245
C61   C     C_R   0.303888 0.196562 0.070486 0.420490
C62   C     C_R   0.592671 0.575753 0.040172 -0.261669
C63   C     C_R   0.406839 0.428788 0.964528 -0.250241
C64   C     C_R   0.549571 0.501477 0.058226 -0.030832
C65   C     C_R   0.450222 0.501669 0.944876 -0.032851
C66   C     C_R   0.455192 0.428265 0.021545 0.128134
C67   C     C_3   0.550642 0.032562 0.075704 0.266956
C68   C     C_R   0.544525 0.576002 0.982595 0.123468
C69   C     C_R   0.156693 0.808539 0.974824 -0.345623
C70   C     C_R   0.841977 0.187497 0.016555 -0.345508
C71   C     C_R   0.137172 0.735265 0.991715 0.658740
C72   C     C_R   0.866178 0.259110 0.996282 0.640383
C73   C     C_R   0.049500 0.645312 0.953837 -0.097698
C74   C     C_R   0.949794 0.355703 0.046221 -0.071173
C75   C     C_R   0.392048 0.501426 0.608047 0.925363
C76   C     C_R   0.607919 0.501228 0.391973 0.923692
C77   C     C_R   0.981078 0.632437 0.902599 -0.381656
C78   C     C_3   0.553290 0.038675 0.960121 0.435863
C79   C     C_R   0.010208 0.378268 0.114176 -0.356168
C80   C     C_R   0.998506 0.706543 0.886933 0.522533
C81   C     C_R   0.987810 0.305555 0.133068 0.495192
C82   C     C_R   0.088710 0.794907 0.921627 0.393419
C83   C     C_R   0.901095 0.211257 0.086678 0.404726
C84   C     C_R   0.970513 0.564467 0.027631 -0.264035
C85   C     C_R   0.031422 0.437797 0.974272 -0.252883
C86   C     C_R   0.945237 0.497239 0.053345 -0.047198
C87   C     C_R   0.056406 0.504713 0.948134 -0.044220
C88   C     C_R   0.975643 0.432258 0.025564 0.116629
C89   C     C_3   0.446706 0.961978 0.039786 0.450134
C90   C     C_R   0.026046 0.569960 0.975942 0.123308
C91   C     C_R   0.394103 0.500072 0.888469 0.855163
C92   C     C_R   0.605872 0.500680 0.112252 0.838589
C93   C     C_R   0.109404 0.500642 0.608036 0.906791
C94   C     C_R   0.891014 0.499615 0.391914 0.925633
C95   C     C_3   0.076240 0.521592 0.480367 0.472719
C96   C     C_3   0.925093 0.478846 0.519354 0.475057
C97   C     C_3   0.044191 0.592993 0.514335 0.462529
C98   C     C_3   0.957113 0.407425 0.485222 0.458694
C99   C     C_3   0.948954 0.498930 0.447819 -0.231855
C100  C     C_3   0.550211 0.103645 0.053341 -0.433176
C101  C     C_3   0.052188 0.501431 0.551711 -0.211665
C102  C     C_3   0.161286 0.765890 0.600793 -0.257686
C103  C     C_3   0.838995 0.235066 0.400384 -0.258872
C104  C     C_3   0.170823 0.331454 0.014911 -0.301148
C105  C     C_3   0.815350 0.661670 0.989864 -0.204382
C106  C     C_3   0.739039 0.872593 0.852272 -0.043869
C107  C     C_3   0.292483 0.142156 0.162070 -0.002010
C108  C     C_3   0.167609 0.567615 0.402508 -0.245628
C109  C     C_3   0.838769 0.443772 0.604286 -0.268198
C110  C     C_3   0.167625 0.877806 0.859901 -0.245024
F1    F     F_    0.165042 0.097748 0.706643 -0.665850
F2    F     F_    0.390864 0.923141 0.080622 -0.606293
F3    F     F_    0.390345 0.065407 0.034167 -0.651414
F4    F     F_    0.609909 0.934308 0.964286 -0.655562
F5    F     F_    0.833531 0.908682 0.300995 -0.673428
F6    F     F_    0.696967 0.677016 0.798089 -0.624374
F7    F     F_    0.307685 0.325521 0.207112 -0.650585
F8    F     F_    0.585234 0.527983 0.822071 -0.623964
F9    F     F_    0.408049 0.473943 0.178558 -0.634744
F10   F     F_    0.203459 0.752537 0.045904 -0.617803
F11   F     F_    0.807766 0.235022 0.928860 -0.625259
F12   F     F_    0.609428 0.079448 0.920464 -0.612059
H1    H     H_    0.181634 0.186708 0.874008 0.163922
H2    H     H_    0.389065 0.225281 0.914564 0.219078
H3    H     H_    0.718681 0.915852 0.070801 0.208499
H4    H     H_    0.301515 0.092500 0.941640 0.220810
H5    H     H_    0.664898 0.633559 0.070015 0.169848
H6    H     H_    0.334402 0.371568 0.935783 0.171758
H7    H     H_    0.224646 0.877941 0.005375 0.250136
H8    H     H_    0.776710 0.113814 0.978510 0.245871
H9    H     H_    0.912515 0.565210 0.876729 0.194048
H10   H     H_    0.075280 0.452364 0.152196 0.184665
H11   H     H_    0.947290 0.614159 0.048319 0.183410
H12   H     H_    0.810753 0.819642 0.132225 0.169766
H13   H     H_    0.054381 0.387869 0.953678 0.189830
H14   H     H_    0.966140 0.367528 0.341912 0.213787
H15   H     H_    0.038776 0.633389 0.658091 0.167180
H16   H     H_    0.206401 0.742561 0.605780 0.158428
H17   H     H_    0.139760 0.788638 0.660316 0.164725
H18   H     H_    0.200913 0.835097 0.599660 0.202837
H19   H     H_    0.859075 0.212906 0.339978 0.165383
H20   H     H_    0.793224 0.258340 0.397557 0.181615
H21   H     H_    0.800667 0.165522 0.401203 0.198706
H22   H     H_    0.199424 0.379565 0.988605 0.174826
H23   H     H_    0.917436 0.102870 0.685973 0.187044
H24   H     H_    0.212518 0.304612 0.019983 0.162444
H25   H     H_    0.173845 0.382035 0.083367 0.213720
H26   H     H_    0.765566 0.680269 0.991455 0.141120
H27   H     H_    0.800184 0.614253 0.016368 0.149198
H28   H     H_    0.807797 0.613468 0.919023 0.228741
H29   H     H_    0.664202 0.827958 0.825728 0.191174
H30   H     H_    0.764476 0.833333 0.802891 0.191881
H31   H     H_    0.767635 0.948418 0.862924 0.160097
H32   H     H_    0.269797 0.181672 0.215026 0.198618
H33   H     H_    0.367593 0.189673 0.183122 0.192618
H34   H     H_    0.076351 0.892961 0.307698 0.182795
H35   H     H_    0.270208 0.068880 0.154037 0.167240
H36   H     H_    0.190984 0.649301 0.435330 0.187111
H37   H     H_    0.104362 0.515308 0.345371 0.203119
H38   H     H_    0.219790 0.559571 0.375373 0.188215
H39   H     H_    0.896907 0.512888 0.666023 0.165796
H40   H     H_    0.834903 0.373202 0.584802 0.199839
H41   H     H_    0.776675 0.434062 0.619659 0.179529
H42   H     H_    0.146449 0.800158 0.801627 0.121735
H43   H     H_    0.237680 0.920594 0.901990 0.249268
H44   H     H_    0.166884 0.920766 0.833703 0.179342
H45   H     H_    0.945708 0.188028 0.846969 0.183261
H46   H     H_    0.746038 0.104943 0.103252 0.238862
H47   H     H_    0.834498 0.222163 0.207688 0.146577
H48   H     H_    0.798484 0.097158 0.179276 0.159960
H49   H     H_    0.980870 0.707370 0.752485 0.105469
H50   H     H_    0.959956 0.804756 0.823336 0.222052
H51   H     H_    0.869204 0.675204 0.737335 0.197631
H52   H     H_    0.070685 0.226724 0.102088 0.195814
H53   H     H_    0.029675 0.201183 0.182807 0.213134
H54   H     H_    0.143387 0.304790 0.213731 0.194545
H55   H     H_    0.418273 0.825844 0.765215 0.129269
H56   H     H_    0.041978 0.807954 0.145953 0.170098
H57   H     H_    0.480641 0.948011 0.775721 0.227990
H58   H     H_    0.363461 0.853657 0.711872 0.152199
H59   H     H_    0.589370 0.930967 0.103953 0.186958
H60   H     H_    0.522248 0.956846 0.173851 0.229069
H61   H     H_    0.640888 0.023610 0.221907 0.155323
H62   H     H_    0.329318 0.221820 0.370170 0.196860
H63   H     H_    0.407016 0.265107 0.468179 0.186565
H64   H     H_    0.391497 0.167601 0.359212 0.189613
H65   H     H_    0.414215 0.667323 0.625249 0.138702
H66   H     H_    0.431008 0.668758 0.528210 0.182715
H67   H     H_    0.939052 0.900594 0.565825 0.168734
H68   H     H_    0.486422 0.786707 0.636779 0.184429
H69   H     H_    0.301193 0.484471 0.463607 0.122234
H70   H     H_    0.206354 0.359375 0.374759 0.169069
H71   H     H_    0.294123 0.437545 0.349223 0.233901
H72   H     H_    0.706367 0.789939 0.659332 0.177392
H73   H     H_    0.701660 0.721476 0.544464 0.131230
H74   H     H_    0.794650 0.774420 0.632337 0.162171
H75   H     H_    0.589364 0.632301 0.381284 0.130274
H76   H     H_    0.572048 0.714529 0.478278 0.150726
H77   H     H_    0.518662 0.670175 0.369625 0.211654
H78   H     H_    0.060250 0.099479 0.434448 0.180179
H79   H     H_    0.667940 0.514855 0.629166 0.230218
H80   H     H_    0.593241 0.387700 0.524558 0.142103
H81   H     H_    0.601625 0.401750 0.628195 0.179084
H82   H     H_    0.619849 0.781396 0.093232 0.209307
O1    O     O_3   0.251620 0.500000 0.748430 -0.515528
O2    O     O_R   0.570330 0.268390 0.136490 -0.616512
O3    O     O_R   0.134680 0.268390 0.572240 -0.639810
O4    O     O_R   0.865320 0.731610 0.427760 -0.654583
O5    O     O_R   0.306670 0.731630 0.863510 -0.615192
O6    O     O_R   0.693330 0.268370 0.136490 -0.627699
O7    O     O_R   0.135450 0.439270 0.865360 -0.659429
O8    O     O_R   0.864550 0.560730 0.134640 -0.657930
O9    O     O_R   0.429670 0.560710 0.692610 -0.593796
O10   O     O_R   0.570330 0.439290 0.307390 -0.601266
O11   O     O_R   0.308540 0.439240 0.865360 -0.661884
O12   O     O_3   0.748380 0.500000 0.251570 -0.514211
O13   O     O_R   0.691460 0.560760 0.134640 -0.664360
O14   O     O_R   0.133580 0.439310 0.571150 -0.608261
O15   O     O_R   0.866420 0.560690 0.428850 -0.594285
O16   O     O_R   0.430770 0.560690 0.864590 -0.631181
O17   O     O_R   0.569230 0.439310 0.135410 -0.639562
O18   O     O_R   0.133580 0.560760 0.692610 -0.677415
O19   O     O_R   0.866420 0.439240 0.307390 -0.676343
O20   O     O_3   0.085635 0.687356 0.522715 -0.607213
O21   O     O_3   0.915888 0.313314 0.477242 -0.603946
O22   O     O_3   0.080205 0.246488 0.963650 -0.634305
O23   O     O_R   0.134680 0.560740 0.864590 -0.633577
O24   O     O_3   0.903768 0.753043 0.035630 -0.586664
O25   O     O_3   0.770349 0.890830 0.933725 -0.566240
O26   O     O_3   0.251101 0.117421 0.080627 -0.566853
O27   O     O_3   0.158538 0.543004 0.464889 -0.631145
O28   O     O_3   0.842312 0.455889 0.534216 -0.606973
O29   O     O_3   0.108888 0.871699 0.910335 -0.571707
O30   O     O_3   0.875488 0.142151 0.109144 -0.587567
O31   O     O_3   0.923276 0.694104 0.848233 -0.590598
O32   O     O_3   0.048977 0.333095 0.202622 -0.649901
O33   O     O_3   0.391314 0.934429 0.846904 -0.582511
O34   O     O_R   0.865320 0.439260 0.135410 -0.640562
O35   O     O_3   0.606743 0.073187 0.157719 -0.599027
O36   O     O_3   0.465693 0.314256 0.389137 -0.594477
O37   O     O_3   0.539593 0.703387 0.611678 -0.597755
O38   O     O_3   0.321846 0.365916 0.393558 -0.591997
O39   O     O_3   0.677823 0.644100 0.606393 -0.561785
O40   O     O_3   0.462933 0.558274 0.393239 -0.552051
O41   O     O_3   0.530985 0.452027 0.605079 -0.556522
O42   O     O_R   0.306670 0.439270 0.571150 -0.652042
O43   O     O_R   0.693330 0.560730 0.428850 -0.645179
O44   O     O_R   0.135450 0.268370 0.694460 -0.638722
O45   O     O_R   0.864550 0.731630 0.305540 -0.641262
O46   O     O_R   0.429670 0.731610 0.863510 -0.623144
Zn1   Zn    Zn3+2 0.207400 0.586780 0.791530 0.985214
Zn2   Zn    Zn3+2 0.792600 0.413220 0.208470 0.997165
Zn3   Zn    Zn3+2 0.208510 0.413230 0.792630 0.983534
Zn4   Zn    Zn3+2 0.791490 0.586770 0.207370 0.966247
Zn5   Zn    Zn3+2 0.383150 0.586740 0.791530 1.028129
Zn6   Zn    Zn3+2 0.616850 0.413260 0.208470 1.029864
Zn7   Zn    Zn3+2 0.207400 0.413250 0.618010 0.996130
Zn8   Zn    Zn3+2 0.792600 0.586750 0.381990 0.998075

loop_
_geom_bond_atom_site_label_1
_geom_bond_atom_site_label_2
_ccdc_geom_bond_type
O19   Zn2   S    
C30   C32   A    
C63   C65   A    
C97   O20   S    
C16   C21   S    
C4    H49   S    
C23   O4    A    
C28   O2    A    
C5    H52   S    
O17   Zn6   S    
C10   O38   S    
C11   H72   S    
O12   Zn8   S    
C34   C98   S    
C9    H66   S    
O2    Zn6   S    
C17   C20   S    
C22   O40   S    
C102  O20   S    
C47   C49   A    
C108  H37   S    
O1    Zn7   S    
C59   H4    S    
C40   C46   A    
C105  H28   S    
C89   F2    S    
C50   C54   A    
C23   C42   S    
C84   C90   A    
C71   F10   S    
C18   C24   S    
C94   C99   S    
O1    Zn1   S    
C92   O17   A    
C35   C37   A    
C27   O46   A    
C95   O27   S    
C73   C90   S    
C109  H40   S    
C3    O30   S    
C102  H16   S    
C62   H5    S    
C6    H57   S    
C110  H43   S    
C86   C88   A    
C26   C39   A    
C85   C88   A    
C15   C78   S    
C108  H36   S    
C55   H82   S    
C28   O6    A    
O3    Zn7   S    
C96   C99   S    
O11   Zn3   S    
C33   C36   A    
C56   C78   S    
C20   C76   S    
C77   H9    S    
C105  O24   S    
C67   O35   S    
C91   O16   A    
C69   C71   A    
C53   C68   S    
C73   C77   A    
C94   O15   A    
C91   O11   A    
C69   C82   A    
C97   C99   S    
C47   C60   A    
C107  O26   S    
C1    C43   S    
C40   H67   S    
C12   O40   S    
C5    O32   S    
C96   C98   S    
C62   C64   A    
C12   H75   S    
C104  H22   S    
C93   O18   A    
C72   F11   S    
C63   H6    S    
O1    Zn5   S    
C110  O29   S    
C52   O34   A    
C38   O22   S    
C14   O41   S    
C13   C89   S    
O18   Zn1   S    
C28   C100  S    
C8    O36   S    
C63   C66   A    
C9    O37   S    
O45   Zn4   S    
O12   Zn6   S    
C2    C27   S    
C41   C43   A    
C104  H25   S    
C24   O41   S    
C42   C44   A    
C52   C86   S    
O7    Zn3   S    
C41   H78   S    
C1    O3    A    
C103  H19   S    
O6    Zn2   S    
C107  H35   S    
C18   O36   S    
C3    H46   S    
C34   C99   S    
C30   F5    S    
C53   C55   A    
C25   C29   A    
C47   F6    S    
C57   C59   A    
C6    O33   S    
C84   H11   S    
C59   C61   A    
C17   C24   S    
O4    Zn8   S    
C31   C33   A    
C7    H59   S    
C85   C87   A    
O10   Zn6   S    
C60   O25   S    
C32   C35   A    
C104  H24   S    
C56   O33   S    
C19   C22   S    
C106  H30   S    
C34   C95   S    
C72   C74   A    
C109  H41   S    
C10   H71   S    
C51   C87   S    
C71   C73   A    
C110  H42   S    
O44   Zn3   S    
C3    H47   S    
C8    H64   S    
C105  H26   S    
C31   C46   S    
C36   H45   S    
C10   H70   S    
C50   F9    S    
C16   C22   S    
C93   O14   A    
C64   C66   A    
C2    C89   S    
C26   H12   S    
C76   O10   A    
C25   C38   A    
C49   F8    S    
C45   C97   S    
C83   O30   S    
C34   H14   S    
O12   Zn2   S    
C106  H31   S    
C15   C67   S    
C14   H81   S    
C80   O31   S    
C61   O26   S    
C32   C44   S    
C81   O32   S    
C109  O28   S    
O15   Zn8   S    
C102  H18   S    
C35   H34   S    
C2    C15   S    
C25   H1    S    
C37   H56   S    
C39   O24   S    
C5    H53   S    
C75   O42   A    
C33   H23   S    
C67   C100  S    
O5    Zn1   S    
C108  H38   S    
C80   C82   A    
C20   C22   S    
C26   C30   A    
C4    H51   S    
C45   C101  S    
C6    H55   S    
C51   O23   A    
C94   O19   A    
C41   C44   A    
C21   C24   S    
C55   C58   A    
C76   O43   A    
C65   C68   A    
C93   C101  S    
C9    H68   S    
C103  H20   S    
O43   Zn8   S    
O1    Zn3   S    
C16   C18   S    
O23   Zn1   S    
C45   H15   S    
C77   C80   A    
O46   Zn5   S    
C65   C91   S    
C14   H79   S    
O12   Zn4   S    
C106  H29   S    
C4    H50   S    
C7    H60   S    
C6    H58   S    
O14   Zn7   S    
C11   H74   S    
C29   F1    S    
C27   O5    A    
C11   H73   S    
C7    O35   S    
C40   C42   A    
C9    H65   S    
C1    O44   A    
C103  H21   S    
C81   C83   A    
C70   C72   A    
C95   C97   S    
C3    H48   S    
C104  O22   S    
C48   F7    S    
C54   C66   S    
C7    H61   S    
C8    H63   S    
C103  O21   S    
C98   C101  S    
C105  H27   S    
C21   C75   S    
C79   C81   A    
C10   H69   S    
C106  O25   S    
C62   C68   A    
C11   O39   S    
C74   C79   A    
C70   H8    S    
C12   H76   S    
C13   C56   S    
C13   C100  S    
C36   C38   A    
C29   C31   A    
O42   Zn7   S    
C109  H39   S    
C54   C57   A    
C57   H2    S    
C78   C100  S    
C110  H44   S    
C8    H62   S    
C48   C61   A    
C70   C83   A    
C82   O29   S    
C69   H7    S    
C49   C53   A    
C79   H10   S    
C14   H80   S    
C48   C50   A    
C5    H54   S    
C17   C19   S    
C12   H77   S    
C75   O9    A    
C18   C20   S    
O13   Zn4   S    
C96   O28   S    
O8    Zn4   S    
C92   O13   A    
C78   F12   S    
C43   C46   A    
C107  H33   S    
C102  H17   S    
C23   O45   A    
C107  H32   S    
O9    Zn5   S    
C19   O37   S    
O34   Zn2   S    
C51   O7    A    
O16   Zn5   S    
C17   O39   S    
C58   H3    S    
C37   C39   A    
C87   C90   A    
C52   O8    A    
C67   C89   S    
C64   C92   S    
C84   C86   A    
C2    C56   S    
C4    O31   S    
C74   C88   S    
C45   C96   S    
C58   C60   A    
C85   H13   S    
C98   O21   S    
C13   F3    S    
C95   C101  S    
C15   F4    S    
C19   C21   S    
C108  O27   S    
C16   O38   S    
