data_mof_unit_26596.cif
_audit_creation_date              2012-12-10T17:49:40-0500
_audit_creation_method            fapswitch 2.2
_symmetry_space_group_name_H-M    P1
_symmetry_Int_Tables_number       1
_space_group_crystal_system       triclinic
_cell_length_a                    10.508575
_cell_length_b                    10.678396
_cell_length_c                    9.896433
_cell_angle_alpha                 92.551353
_cell_angle_beta                  89.732544
_cell_angle_gamma                 91.545624
_cell_volume                      1109.01434054

loop_
_atom_site_label
_atom_site_type_symbol
_atom_type_description
_atom_site_fract_x
_atom_site_fract_y
_atom_site_fract_z
_atom_type_partial_charge
C1    C     C_R   0.514782 0.260751 0.496644 0.903410
C2    C     C_R   0.568047 0.069637 0.610093 0.032740
C3    C     C_R   0.536031 0.126959 0.489640 -0.165444
C4    C     C_R   0.257543 0.499831 0.500368 0.864868
C5    C     C_R   0.491833 0.054682 0.375669 -0.082799
C6    C     C_R   0.448358 0.933409 0.393214 0.330133
C7    C     C_R   0.477408 0.875308 0.513922 -0.230369
C8    C     C_R   0.332176 0.337809 0.134031 -0.203033
C9    C     C_R   0.247232 0.259163 0.061346 -0.340928
C10   C     C_R   0.245283 0.259176 0.920423 0.469072
C11   C     C_R   0.329472 0.338677 0.853829 -0.172162
C12   C     C_3   0.960964 0.506130 0.370857 -0.172694
C13   C     C_R   0.416267 0.420376 0.924599 0.086138
C14   C     C_R   0.416876 0.420169 0.069157 0.210226
C15   C     C_R   0.579751 0.576328 0.074825 -0.065701
C16   C     C_R   0.489929 0.740341 0.504103 0.888075
C17   C     C_R   0.579845 0.576175 0.931593 -0.125193
C18   C     C_R   0.742615 0.499975 0.499567 0.912223
C19   C     C_3   0.040260 0.494125 0.629198 -0.196303
C20   C     C_3   0.956514 0.396618 0.551285 0.477374
C21   C     C_3   0.877689 0.500402 0.498303 -0.016010
C22   C     C_3   0.960542 0.600386 0.574095 -0.239307
C23   C     C_3   0.040746 0.399456 0.424880 -0.228364
C24   C     C_3   0.046195 0.606255 0.446748 -0.154352
C25   C     C_2   0.495300 0.099444 0.235615 0.488841
C26   C     C_3   0.122836 0.499731 0.501225 -0.041244
C27   C     C_R   0.641163 0.133494 0.712861 -0.222981
C28   C     C_R   0.656398 0.082404 0.839622 0.509679
C29   C     C_R   0.596024 0.968341 0.864546 -0.162452
C30   C     C_R   0.530142 0.901527 0.761474 -0.237249
C31   C     C_R   0.524961 0.946615 0.628685 0.062958
H1    H     H_    0.600479 0.930723 0.964235 0.171779
H2    H     H_    0.088411 0.692382 0.403952 0.143451
H3    H     H_    0.925047 0.511650 0.266005 0.168098
H4    H     H_    0.077500 0.317003 0.366118 0.144576
H5    H     H_    0.686728 0.223173 0.694919 0.205374
H6    H     H_    0.978903 0.238956 0.631782 0.358594
H7    H     H_    0.321974 0.810058 0.327903 0.337886
H8    H     H_    0.109355 0.132340 0.906326 0.346554
H9    H     H_    0.422077 0.069131 0.163485 0.098671
H10   H     H_    0.761417 0.223376 0.908335 0.341838
H11   H     H_    0.478797 0.818414 0.791062 0.196717
H12   H     H_    0.644830 0.638727 0.131333 0.146428
H13   H     H_    0.330210 0.329852 0.240809 0.210783
H14   H     H_    0.183644 0.197311 0.115414 0.157292
H15   H     H_    0.323416 0.333178 0.746589 0.221764
H16   H     H_    0.644963 0.638447 0.880295 0.144009
H17   H     H_    0.075719 0.487021 0.734044 0.165619
H18   H     H_    0.923444 0.682117 0.633784 0.160284
N1    N     N_R   0.498800 0.498800 0.142780 -0.105892
N2    N     N_R   0.498760 0.498720 0.857170 -0.114109
O1    O     O_R   0.500000 0.316780 0.614690 -0.647669
O2    O     O_3   0.382457 0.871421 0.288396 -0.782119
O3    O     O_3   0.162802 0.182237 0.844464 -0.785627
O4    O     O_2   0.584858 0.163848 0.196904 -0.510737
O5    O     O_3   0.726202 0.143274 0.941596 -0.718299
O6    O     O_R   0.499990 0.316750 0.385360 -0.605771
O7    O     O_R   0.313960 0.499980 0.614650 -0.646220
O8    O     O_R   0.313940 0.499960 0.385310 -0.644503
O9    O     O_R   0.500010 0.683250 0.614640 -0.635698
O10   O     O_R   0.500000 0.683220 0.385310 -0.584417
O11   O     O_R   0.686060 0.500040 0.614690 -0.615079
O12   O     O_R   0.686040 0.500020 0.385350 -0.618891
O13   O     O_3   0.904843 0.287598 0.604905 -0.796597
Zn1   Zn    Zn3+2 0.500010 0.500020 0.653130 0.933849
Zn2   Zn    Zn3+2 0.499990 0.499980 0.346870 0.978911

loop_
_geom_bond_atom_site_label_1
_geom_bond_atom_site_label_2
_ccdc_geom_bond_type
C20   O13   S    
C4    C26   S    
H10   O5    S    
C9    H14   S    
C29   C30   A    
C1    O6    A    
C27   H5    S    
C18   C21   S    
C11   C13   A    
C9    C10   A    
C12   C24   S    
O7    Zn1   S    
C24   H2    S    
C20   C23   S    
O6    Zn2   S    
C2    C27   A    
C17   N2    A    
C19   C20   S    
C2    C3    A    
C28   O5    S    
O12   Zn2   S    
C15   H12   S    
O8    Zn2   S    
C14   N1    A    
C21   C22   S    
N1    Zn2   S    
C12   C23   S    
C8    H13   S    
C6    C7    A    
H7    O2    S    
C22   H18   S    
C5    C25   S    
C13   N2    A    
O10   Zn2   S    
C4    O8    A    
C28   C29   A    
C24   C26   S    
O9    Zn1   S    
C29   H1    S    
C23   H4    S    
C10   C11   A    
C25   H9    S    
C16   O9    A    
C5    C6    A    
C10   O3    S    
C1    O1    A    
C22   C24   S    
C18   O12   A    
C15   N1    A    
H8    O3    S    
C7    C31   A    
C16   O10   A    
C6    O2    S    
C12   H3    S    
C25   O4    D    
H6    O13   S    
C20   C21   S    
C8    C9    A    
C19   C22   S    
N2    Zn1   S    
C23   C26   S    
C4    O7    A    
C27   C28   A    
C15   C17   A    
C19   C26   S    
C18   O11   A    
C30   C31   A    
C7    C16   S    
C11   H15   S    
C8    C14   A    
C19   H17   S    
O11   Zn1   S    
C3    C5    A    
C13   C14   A    
C12   C21   S    
C30   H11   S    
O1    Zn1   S    
C17   H16   S    
C2    C31   A    
C1    C3    S    
