data_mof_unit_51273.cif
_audit_creation_date              2012-12-11T17:41:45-0500
_audit_creation_method            fapswitch 2.2
_symmetry_space_group_name_H-M    P1
_symmetry_Int_Tables_number       1
_space_group_crystal_system       triclinic
_cell_length_a                    15.511419
_cell_length_b                    14.851535
_cell_length_c                    15.083143
_cell_angle_alpha                 109.789151
_cell_angle_beta                  121.493456
_cell_angle_gamma                 59.407138
_cell_volume                      2537.90674095

loop_
_atom_site_label
_atom_site_type_symbol
_atom_type_description
_atom_site_fract_x
_atom_site_fract_y
_atom_site_fract_z
_atom_type_partial_charge
C1    C     C_R   0.803410 0.936659 0.772181 -0.149209
C2    C     C_R   0.276550 0.406491 0.184889 -0.166819
C3    C     C_R   0.668862 0.786746 0.929591 0.189275
C4    C     C_R   0.365996 0.322543 0.165416 0.172977
C5    C     C_R   0.690605 0.876767 0.985958 0.063880
C6    C     C_R   0.343604 0.249502 0.075562 0.076310
C7    C     C_R   0.799478 0.868913 0.031471 -0.217295
C8    C     C_R   0.232655 0.265243 0.006872 -0.214569
C9    C     C_R   0.884619 0.775075 0.017613 -0.120996
C10   C     C_R   0.145389 0.349691 0.027335 -0.119154
C11   C     C_R   0.862852 0.687230 0.960303 -0.134302
C12   C     C_R   0.243725 0.007027 0.209026 -0.121545
C13   C     C_R   0.167316 0.419761 0.116399 -0.129470
C14   C     C_R   0.604378 0.995435 0.100204 -0.250389
C15   C     C_R   0.434044 0.140824 0.955949 -0.270631
C16   C     C_R   0.219631 0.286844 0.469555 -0.134407
C17   C     C_R   0.798063 0.723738 0.555742 -0.118057
C18   C     C_R   0.515344 0.076729 0.119938 0.070861
C19   C     C_R   0.515744 0.050820 0.931248 0.068840
C20   C     C_R   0.433139 0.155477 0.051702 0.033167
C21   C     C_R   0.603620 0.978151 0.005309 0.035273
C22   C     C_2   0.114335 0.393210 0.579705 -0.221745
C23   C     C_R   0.180196 0.295615 0.537158 0.148094
C24   C     C_2   0.972288 0.650021 0.530324 -0.201893
C25   C     C_2   0.117607 0.482581 0.583507 -0.109814
C26   C     C_2   0.032054 0.580745 0.600350 -0.106611
C27   C     C_2   0.985519 0.949816 0.842043 -0.218509
C28   C     C_2   0.151197 0.880953 0.100667 -0.220019
C29   C     C_R   0.176158 0.881688 0.618962 -0.108390
C30   C     C_R   0.912189 0.272377 0.787407 -0.138417
C31   C     C_R   0.279446 0.797389 0.634382 -0.167316
C32   C     C_R   0.810266 0.341678 0.720704 -0.175842
C33   C     C_R   0.287997 0.707609 0.561826 0.120709
C34   C     C_R   0.859290 0.724346 0.514265 0.143532
C35   C     C_R   0.711788 0.367536 0.725272 0.108110
C36   C     C_R   0.190931 0.703725 0.473706 -0.176515
C37   C     C_R   0.717249 0.322269 0.797246 -0.150043
C38   C     C_R   0.087744 0.788161 0.458669 -0.120727
C39   C     C_R   0.819489 0.253258 0.864023 -0.091446
C40   C     C_R   0.595304 0.230832 0.555209 -0.142516
C41   C     C_R   0.406195 0.783087 0.510417 -0.149468
C42   C     C_R   0.080329 0.876972 0.531316 -0.081207
C43   C     C_R   0.916921 0.229020 0.859652 -0.110013
C44   C     C_R   0.403460 0.517844 0.576663 -0.240767
C45   C     C_R   0.504749 0.326100 0.549936 0.050710
C46   C     C_R   0.598122 0.541868 0.658144 -0.255762
C47   C     C_R   0.505397 0.429723 0.600871 0.059075
C48   C     C_R   0.495762 0.622734 0.606777 0.044316
C49   C     C_R   0.604030 0.445626 0.659203 0.039773
C50   C     C_R   0.397070 0.616141 0.581173 0.031999
C51   C     C_2   0.042269 0.882903 0.914399 -0.104862
C52   C     C_2   0.137018 0.893614 0.009452 -0.112903
C53   C     C_R   0.410708 0.041182 0.734474 -0.144842
C54   C     C_R   0.594931 0.012061 0.287922 -0.149937
C55   C     C_R   0.410866 0.306863 0.478356 -0.119939
C56   C     C_R   0.496447 0.701340 0.568388 0.058765
C57   C     C_R   0.589878 0.710647 0.588099 -0.117652
C58   C     C_R   0.595367 0.978303 0.804691 -0.122153
C59   C     C_R   0.410508 0.084292 0.208917 -0.133152
C60   C     C_R   0.222101 0.196566 0.563498 -0.142288
C61   C     C_R   0.799001 0.814764 0.464682 -0.147317
C62   C     C_R   0.804985 0.028142 0.683581 -0.132812
C63   C     C_R   0.242584 0.914625 0.299027 -0.148868
C64   C     C_R   0.868161 0.973766 0.770984 0.154232
C65   C     C_R   0.212178 0.930505 0.199022 0.146495
C66   C     C_3   0.555845 0.787372 0.885172 -0.473669
C67   C     C_R   0.506192 0.030897 0.827429 0.042328
C68   C     C_3   0.541599 0.764290 0.967245 -0.233800
C69   C     C_3   0.427113 0.765806 0.922807 -0.909038
C70   C     C_3   0.482194 0.316059 0.239686 -0.457811
C71   C     C_3   0.527089 0.345666 0.189197 -0.233956
C72   C     C_3   0.643044 0.341183 0.265138 -0.917912
C73   C     C_R   0.505247 0.062504 0.203000 0.043336
C74   C     C_R   0.756035 0.692680 0.917228 -0.176812
H1    H     H_    0.830612 0.878706 0.819742 0.096754
H2    H     H_    0.213762 0.210690 0.938061 0.116428
H3    H     H_    0.967761 0.770289 0.051838 0.107149
H4    H     H_    0.060490 0.360631 0.974302 0.124466
H5    H     H_    0.668664 0.935259 0.153194 0.127424
H6    H     H_    0.369596 0.197788 0.899565 0.137094
H7    H     H_    0.003865 0.585159 0.654718 0.124799
H8    H     H_    0.170192 0.483803 0.557151 0.127629
H9    H     H_    0.001232 0.643804 0.475644 0.133092
H10   H     H_    0.061204 0.392445 0.605685 0.129131
H11   H     H_    0.000334 0.942091 0.519702 0.091090
H12   H     H_    0.230778 0.040661 0.147639 0.089513
H13   H     H_    0.996176 0.176887 0.912458 0.098601
H14   H     H_    0.190058 0.346592 0.423007 0.087732
H15   H     H_    0.823922 0.670767 0.607909 0.082431
H16   H     H_    0.170421 0.950527 0.675210 0.098466
H17   H     H_    0.987701 0.253012 0.783741 0.103346
H18   H     H_    0.352558 0.802189 0.702593 0.122396
H19   H     H_    0.808148 0.374980 0.665497 0.110072
H20   H     H_    0.195141 0.635534 0.416559 0.102941
H21   H     H_    0.642587 0.341498 0.802507 0.117131
H22   H     H_    0.013437 0.784590 0.390811 0.101879
H23   H     H_    0.106503 0.844597 0.102352 0.124903
H24   H     H_    0.823288 0.219057 0.919637 0.114758
H25   H     H_    0.327844 0.509807 0.550063 0.118177
H26   H     H_    0.674534 0.551269 0.694248 0.117131
H27   H     H_    0.682131 0.214374 0.597191 0.121911
H28   H     H_    0.319712 0.807836 0.487431 0.119483
H29   H     H_    0.327551 0.071122 0.726061 0.092350
H30   H     H_    0.680966 0.995665 0.315470 0.091559
H31   H     H_    0.326949 0.364581 0.446658 0.084472
H32   H     H_    0.674966 0.668678 0.640889 0.086710
H33   H     H_    0.681278 0.959883 0.857322 0.117093
H34   H     H_    0.021516 0.996795 0.843067 0.128020
H35   H     H_    0.325557 0.131243 0.159932 0.109186
H36   H     H_    0.198496 0.174980 0.606300 0.088238
H37   H     H_    0.828378 0.845605 0.435467 0.090961
H38   H     H_    0.836202 0.053756 0.651505 0.096084
H39   H     H_    0.229205 0.860911 0.318996 0.103291
H40   H     H_    0.180924 0.930147 0.006818 0.128260
H41   H     H_    0.007892 0.834901 0.914138 0.125722
H42   H     H_    0.361039 0.844106 0.896482 0.256259
H43   H     H_    0.415944 0.704486 0.855844 0.266381
H44   H     H_    0.418874 0.749720 0.984126 0.253143
H45   H     H_    0.929208 0.614293 0.950322 0.115382
H46   H     H_    0.606150 0.685642 0.994001 0.198832
H47   H     H_    0.551599 0.823898 0.035921 0.207234
H48   H     H_    0.489239 0.863887 0.855116 0.196145
H49   H     H_    0.546022 0.726562 0.817509 0.194095
H50   H     H_    0.641073 0.397070 0.335779 0.262919
H51   H     H_    0.701559 0.260381 0.288832 0.259564
H52   H     H_    0.673459 0.363038 0.226707 0.250486
H53   H     H_    0.531437 0.291007 0.118554 0.206790
H54   H     H_    0.470536 0.426676 0.165255 0.200049
H55   H     H_    0.481817 0.370592 0.311568 0.194370
H56   H     H_    0.099385 0.485068 0.132100 0.113770
H57   H     H_    0.539212 0.236651 0.266444 0.198029
H58   H     H_    0.741727 0.622711 0.875520 0.119744
H59   H     H_    0.291104 0.463000 0.252806 0.110619
H60   H     H_    0.817882 0.936323 0.076621 0.128969
N1    N     N_R   0.705410 0.966550 0.689210 -0.043401
N2    N     N_R   0.556610 0.796750 0.548620 -0.040148
N3    N     N_R   0.556610 0.951620 0.703500 -0.041008
N4    N     N_R   0.443390 0.048380 0.296500 -0.039701
N5    N     N_R   0.294590 0.131500 0.522480 -0.039784
N6    N     N_R   0.705410 0.868500 0.477520 -0.041180
N7    N     N_R   0.705410 0.023370 0.632390 -0.042682
N8    N     N_R   0.294590 0.976630 0.367610 -0.043438
N9    N     N_R   0.294590 0.033450 0.310790 -0.046056
N10   N     N_R   0.294590 0.188320 0.465660 -0.042434
N11   N     N_R   0.705410 0.811680 0.534340 -0.043762
N12   N     N_R   0.556610 0.157790 0.497330 -0.042217
N13   N     N_R   0.443390 0.842210 0.502670 -0.040349
N14   N     N_R   0.443390 0.997080 0.657540 -0.036020
N15   N     N_R   0.556610 0.002920 0.342460 -0.035720
N16   N     N_R   0.443390 0.203250 0.451380 -0.037751
Ni1   Ni    Ni4+2 0.629830 0.882720 0.617850 0.210814
Ni2   Ni    Ni4+2 0.370170 0.117280 0.382150 0.215732
Ni3   Ni    Ni4+2 0.629830 0.013030 0.487540 0.204834
Ni4   Ni    Ni4+2 0.370170 0.986970 0.512460 0.215145

loop_
_geom_bond_atom_site_label_1
_geom_bond_atom_site_label_2
_ccdc_geom_bond_type
C28   H23   S    
C66   C68   S    
C63   C65   A    
C69   H42   S    
C74   H58   S    
C29   C42   A    
C14   C18   A    
N3    N14   A    
C17   N11   A    
C11   H45   S    
C4    C70   S    
C10   H4    S    
C47   C49   A    
C41   H28   S    
C15   C19   A    
C46   C49   A    
C55   H31   S    
C14   C21   A    
C54   H30   S    
C19   C21   A    
C24   H9    S    
C24   C26   D    
C38   C42   A    
C44   H25   S    
C40   N12   A    
C69   H44   S    
C8    H2    S    
C33   C36   A    
C56   C57   A    
C37   H21   S    
C48   C56   S    
C58   H33   S    
C3    C74   A    
N13   Ni4   S    
N15   Ni3   S    
C62   C64   A    
C40   H27   S    
N12   N16   A    
C68   C69   S    
C22   C25   D    
C35   C49   S    
C13   H56   S    
C31   C33   A    
C57   N2    A    
C19   C67   S    
C70   C71   S    
C59   C73   A    
C44   C47   A    
N6    Ni3   S    
C48   C50   A    
C57   H32   S    
C72   H50   S    
C23   C60   A    
C71   H53   S    
C15   C20   A    
N14   Ni4   S    
C29   H16   S    
C27   C51   D    
C54   N15   A    
C45   C47   S    
N4    N15   A    
C40   C45   A    
C46   C48   A    
C2    H59   S    
C51   C52   S    
C1    H1    S    
C32   C35   A    
C17   H15   S    
C7    H60   S    
C4    C6    A    
C5    C7    A    
C39   H24   S    
C39   C43   A    
N5    Ni4   S    
N4    Ni2   S    
C25   C26   S    
C10   C13   A    
C70   H55   S    
C51   H41   S    
C72   H52   S    
C22   H10   S    
N6    N11   A    
C2    C4    A    
C41   C56   A    
C54   C73   A    
N5    N10   A    
C15   H6    S    
C41   N13   A    
C66   H48   S    
C62   H38   S    
C42   H11   S    
C9    H3    S    
C14   H5    S    
N8    Ni4   S    
C9    C11   A    
N11   Ni1   S    
C58   N3    A    
C8    C10   A    
N9    Ni2   S    
C26   H7    S    
C25   H8    S    
N16   Ni2   S    
C30   C43   A    
C3    C66   S    
C17   C34   A    
C62   N7    A    
C61   H37   S    
C1    C64   A    
N2    Ni1   S    
C35   C37   A    
C55   N16   A    
C44   C50   A    
C7    C9    A    
C46   H26   S    
C16   N10   A    
C66   H49   S    
C22   C23   S    
C71   H54   S    
C30   H17   S    
C3    C5    A    
C11   C74   A    
C68   H47   S    
C6    C8    A    
C61   N6    A    
C52   H40   S    
C16   C23   A    
C6    C20   S    
C12   C65   A    
C59   N4    A    
C12   N9    A    
C12   H12   S    
C72   H51   S    
C43   H13   S    
C18   C73   S    
C36   C38   A    
C28   C65   S    
C33   C50   S    
C71   C72   S    
C29   C31   A    
C68   H46   S    
C30   C32   A    
C28   C52   D    
N7    Ni3   S    
N12   Ni3   S    
C27   H34   S    
C53   H29   S    
N1    Ni1   S    
C69   H43   S    
C70   H57   S    
C59   H35   S    
C63   N8    A    
C32   H19   S    
C18   C20   A    
C53   N14   A    
C53   C67   A    
C24   C34   S    
N2    N13   A    
C60   H36   S    
C27   C64   S    
C60   N5    A    
C63   H39   S    
C36   H20   S    
C58   C67   A    
N1    N7    A    
C2    C13   A    
C5    C21   S    
C45   C55   A    
C37   C39   A    
C31   H18   S    
C34   C61   A    
C38   H22   S    
C16   H14   S    
N8    N9    A    
N3    Ni1   S    
C1    N1    A    
N10   Ni2   S    
