data_mof_unit_61761.cif
_audit_creation_date              2012-10-26T21:17:06-0400
_audit_creation_method            fapswitch 2.2
_symmetry_space_group_name_H-M    P1
_symmetry_Int_Tables_number       1
_space_group_crystal_system       triclinic
_cell_length_a                    14.337015
_cell_length_b                    10.960135
_cell_length_c                    9.7703
_cell_angle_alpha                 92.528624
_cell_angle_beta                  89.346478
_cell_angle_gamma                 90.657626
_cell_volume                      1533.57495225

loop_
_atom_site_label
_atom_site_type_symbol
_atom_type_description
_atom_site_fract_x
_atom_site_fract_y
_atom_site_fract_z
_atom_type_partial_charge
C1    C     C_R   0.501583 0.266322 0.496472 0.623629
C2    C     C_R   0.493986 0.734492 0.503850 0.548141
C3    C     C_R   0.668740 0.500084 0.499335 0.541918
C4    C     C_1   0.228893 0.499535 0.501672 0.069008
C5    C     C_1   0.143443 0.499420 0.501430 0.043642
C6    C     C_1   0.042750 0.499419 0.500450 0.062589
C7    C     C_1   0.957298 0.499505 0.499457 0.057135
C8    C     C_1   0.856598 0.499681 0.498484 0.019962
C9    C     C_1   0.490465 0.919606 0.658915 0.245358
C10   C     C_1   0.771139 0.499866 0.498256 0.028626
C11   C     C_2   0.445215 0.934259 0.420514 0.255092
C12   C     C_2   0.478682 0.866139 0.520533 -0.027819
C13   C     C_2   0.435943 0.066763 0.444017 0.240391
C14   C     C_2   0.509995 0.136016 0.483186 0.195551
C15   C     C_2   0.438483 0.441803 0.921612 0.379792
C16   C     C_2   0.451308 0.424741 0.072407 0.382420
C17   C     C_R   0.331267 0.499762 0.500636 0.564881
Cl1   Cl    Cl    0.404258 0.871656 0.262487 -0.364565
Cl2   Cl    Cl    0.323840 0.129719 0.427014 -0.436028
Cl3   Cl    Cl    0.625398 0.080361 0.481830 -0.549540
Cl4   Cl    Cl    0.339274 0.371073 0.846509 -0.423204
Cl5   Cl    Cl    0.392852 0.299303 0.142071 -0.387732
Cl6   Cl    Cl    0.532268 0.641670 0.097620 -0.415456
Cu1   Cu    Cu3+1 0.500020 0.500020 0.638630 1.113069
Cu2   Cu    Cu3+1 0.499980 0.499980 0.361370 1.210733
H1    H     H_    0.564392 0.511417 0.887653 0.232990
N1    N     N_2   0.499070 0.498660 0.846910 -0.315109
N2    N     N_2   0.499040 0.498630 0.153040 -0.091991
N3    N     N_1   0.499673 0.961772 0.768728 -0.133583
O1    O     O_R   0.500010 0.321960 0.617040 -0.463228
O2    O     O_R   0.499990 0.321920 0.382900 -0.449857
O3    O     O_R   0.376070 0.500020 0.617100 -0.443811
O4    O     O_R   0.376040 0.499980 0.382950 -0.454601
O5    O     O_R   0.500010 0.678080 0.617100 -0.497972
O6    O     O_R   0.499990 0.678040 0.382960 -0.398025
O7    O     O_R   0.623960 0.500020 0.617050 -0.496917
O8    O     O_R   0.623930 0.499980 0.382900 -0.465490

loop_
_geom_bond_atom_site_label_1
_geom_bond_atom_site_label_2
_ccdc_geom_bond_type
C2    O6    A    
C16   N2    D    
C11   C12   D    
Cu1   O3    S    
C11   Cl1   S    
Cu2   O2    S    
C6    C7    T    
C15   N1    D    
Cu1   N1    S    
C9    N3    T    
C2    C12   S    
C2    O5    A    
C7    C8    S    
C3    C10   S    
C13   C14   D    
Cu2   N2    S    
C11   C13   S    
H1    N1    S    
Cu1   O7    S    
C15   Cl4   S    
C17   O4    A    
C3    O7    A    
Cu2   O6    S    
C4    C17   S    
C1    O1    A    
C5    C6    S    
C9    C12   S    
Cu1   O1    S    
C13   Cl2   S    
C15   C16   S    
C14   Cl3   S    
C1    O2    A    
Cu1   Cu2   S    
C3    O8    A    
C8    C10   T    
C17   O3    A    
C16   Cl5   S    
C1    C14   S    
Cu2   O8    S    
Cl6   N2    S    
Cu1   O5    S    
Cu2   O4    S    
C4    C5    T    
