data_mof_unit_20816.cif
_audit_creation_date              2013-03-05T15:42:42-0500
_audit_creation_method            fapswitch 2.2
_symmetry_space_group_name_H-M    P1
_symmetry_Int_Tables_number       1
_space_group_crystal_system       triclinic
_cell_length_a                    19.052219
_cell_length_b                    11.108417
_cell_length_c                    18.786991
_cell_angle_alpha                 90.510836
_cell_angle_beta                  90.891614
_cell_angle_gamma                 89.704913
_cell_volume                      3975.38928233

loop_
_atom_site_label
_atom_site_type_symbol
_atom_site_description
_atom_site_fract_x
_atom_site_fract_y
_atom_site_fract_z
_atom_type_partial_charge
O1    O     O_R   0.788190 0.043000 0.172520 -0.421514
O2    O     O_R   0.211810 0.043000 0.827480 -0.441046
O3    O     O_R   0.288190 0.543000 0.172520 -0.422073
O4    O     O_R   0.711810 0.543000 0.827480 -0.438981
O5    O     O_R   0.766240 0.292300 0.176860 -0.423420
O6    O     O_R   0.233760 0.292300 0.823140 -0.442783
O7    O     O_R   0.266240 0.792300 0.176860 -0.420019
O8    O     O_R   0.733760 0.792300 0.823140 -0.443306
C1    C     C_R   0.729871 0.374725 0.145419 0.577002
C2    C     C_R   0.270904 0.373270 0.855199 0.596159
C3    C     C_R   0.229869 0.874716 0.145415 0.582866
C4    C     C_R   0.770905 0.873266 0.855201 0.595742
O9    O     O_R   0.670310 0.409160 0.168720 -0.532422
O10   O     O_R   0.329690 0.409160 0.831280 -0.527969
O11   O     O_R   0.170310 0.909160 0.168720 -0.532721
O12   O     O_R   0.829690 0.909160 0.831280 -0.527417
O13   O     O_R   0.556160 0.251900 0.173380 -0.499572
O14   O     O_R   0.443840 0.251900 0.826620 -0.511702
O15   O     O_R   0.056160 0.751900 0.173380 -0.499475
O16   O     O_R   0.943840 0.751900 0.826620 -0.511792
C5    C     C_R   0.533243 0.154786 0.144162 0.580430
C6    C     C_R   0.465604 0.155670 0.856388 0.595336
C7    C     C_R   0.033242 0.654787 0.144163 0.580554
C8    C     C_R   0.965607 0.655671 0.856386 0.595499
O17   O     O_R   0.545410 0.050140 0.168240 -0.421380
O18   O     O_R   0.454590 0.050140 0.831760 -0.463251
O19   O     O_R   0.045410 0.550140 0.168240 -0.420687
O20   O     O_R   0.954590 0.550140 0.831760 -0.462675
O21   O     O_R   0.681530 0.958350 0.176970 -0.510986
O22   O     O_R   0.318470 0.958350 0.823030 -0.530426
O23   O     O_R   0.181530 0.458350 0.176970 -0.510116
O24   O     O_R   0.818470 0.458350 0.823030 -0.529159
C9    C     C_R   0.743120 0.966177 0.150193 0.559190
C10   C     C_R   0.257106 0.967065 0.850123 0.546892
C11   C     C_R   0.243118 0.466180 0.150191 0.560435
C12   C     C_R   0.757110 0.467073 0.850128 0.549395
O25   O     O_R   0.788610 0.044480 0.334450 -0.524048
O26   O     O_R   0.211390 0.044480 0.665550 -0.464902
O27   O     O_R   0.288610 0.544480 0.334450 -0.532058
O28   O     O_R   0.711390 0.544480 0.665550 -0.452543
O29   O     O_R   0.766630 0.293670 0.326970 -0.457704
O30   O     O_R   0.233370 0.293670 0.673030 -0.479095
O31   O     O_R   0.266630 0.793670 0.326970 -0.438238
O32   O     O_R   0.733370 0.793670 0.673030 -0.470110
C13   C     C_R   0.728067 0.377690 0.355658 0.585454
C14   C     C_R   0.268606 0.378902 0.646640 0.631794
C15   C     C_R   0.211767 0.836700 0.362011 0.552242
C16   C     C_R   0.768212 0.880189 0.647121 0.625274
O33   O     O_R   0.670730 0.410640 0.330640 -0.451331
O34   O     O_R   0.329270 0.410640 0.669360 -0.478422
O35   O     O_R   0.170730 0.910640 0.330640 -0.404798
O36   O     O_R   0.829270 0.910640 0.669360 -0.482501
O37   O     O_R   0.556550 0.253260 0.323480 -0.499467
O38   O     O_R   0.443450 0.253260 0.676520 -0.513397
O39   O     O_R   0.056550 0.753260 0.323480 -0.467029
O40   O     O_R   0.943450 0.753260 0.676520 -0.516944
C17   C     C_R   0.533728 0.154916 0.353874 0.550983
C18   C     C_R   0.465963 0.157587 0.646667 0.554833
C19   C     C_R   0.033791 0.654578 0.353884 0.555933
C20   C     C_R   0.965883 0.657099 0.646680 0.550800
O41   O     O_R   0.545830 0.051610 0.330160 -0.517656
O42   O     O_R   0.454170 0.051610 0.669840 -0.512735
O43   O     O_R   0.045830 0.551610 0.330160 -0.520046
O44   O     O_R   0.954170 0.551610 0.669840 -0.515208
O45   O     O_R   0.681920 0.959720 0.327070 -0.513919
O46   O     O_R   0.318080 0.959720 0.672930 -0.508925
O47   O     O_R   0.181920 0.459720 0.327070 -0.520915
O48   O     O_R   0.818080 0.459720 0.672930 -0.511428
C21   C     C_R   0.742183 0.979260 0.358315 0.543266
C22   C     C_R   0.256344 0.964014 0.647417 0.612234
C23   C     C_R   0.242497 0.478202 0.357905 0.534918
C24   C     C_R   0.757353 0.465916 0.645650 0.613505
Cr1   Cr    Cr6+3 0.772820 0.169820 0.252640 1.174163
Cr2   Cr    Cr6+3 0.227180 0.169820 0.747360 1.149048
Cr3   Cr    Cr6+3 0.272820 0.669820 0.252640 1.168774
Cr4   Cr    Cr6+3 0.727180 0.669820 0.747360 1.157006
Cr5   Cr    Cr6+3 0.615040 0.323610 0.249150 1.105360
Cr6   Cr    Cr6+3 0.384960 0.323610 0.750850 1.072208
Cr7   Cr    Cr6+3 0.115040 0.823610 0.249150 1.124264
Cr8   Cr    Cr6+3 0.884960 0.823610 0.750850 1.065675
Cr9   Cr    Cr6+3 0.616720 0.011130 0.250660 1.096823
Cr10  Cr    Cr6+3 0.383280 0.011130 0.749340 1.074669
Cr11  Cr    Cr6+3 0.116720 0.511130 0.250660 1.085349
Cr12  Cr    Cr6+3 0.883280 0.511130 0.749340 1.073630
O49   O     O_3   0.668190 0.168190 0.250820 -0.324142
O50   O     O_3   0.331810 0.168190 0.749180 -0.298461
O51   O     O_3   0.168190 0.668190 0.250820 -0.343792
O52   O     O_3   0.831810 0.668190 0.749180 -0.302177
C25   C     C_3   0.489358 0.277831 0.979596 -0.131952
C26   C     C_3   0.443724 0.213176 0.035452 -0.180233
C27   C     C_3   0.989354 0.777834 0.979596 -0.132037
C28   C     C_3   0.943721 0.713171 0.035451 -0.180152
C29   C     C_3   0.556763 0.224898 0.014837 -0.125990
C30   C     C_3   0.439419 0.100524 0.986246 -0.158670
C31   C     C_3   0.056760 0.724909 0.014839 -0.126219
C32   C     C_3   0.939423 0.600520 0.986243 -0.158698
H1    H     H_    0.606105 0.271563 0.028659 0.144544
H2    H     H_    0.391119 0.049055 0.973182 0.132579
H3    H     H_    0.106100 0.771575 0.028664 0.144117
H4    H     H_    0.891126 0.549048 0.973178 0.132343
H5    H     H_    0.483433 0.372168 0.961410 0.212972
H6    H     H_    0.399345 0.249922 0.066288 0.184114
H7    H     H_    0.983426 0.872170 0.961410 0.212862
H8    H     H_    0.899340 0.749913 0.066286 0.184047
C33   C     C_3   0.510621 0.160537 0.069359 -0.001026
C34   C     C_3   0.485850 0.164675 0.931614 0.003063
C35   C     C_3   0.010620 0.660539 0.069359 -0.001041
C36   C     C_3   0.985852 0.664679 0.931613 0.002927
C37   C     C_3   0.506638 0.049544 0.020665 0.418649
C38   C     C_3   0.551778 0.113088 0.966308 0.402187
C39   C     C_3   0.006643 0.549548 0.020663 0.418805
C40   C     C_3   0.051782 0.613100 0.966308 0.402072
C41   C     C_R   0.757525 0.899788 0.930986 -0.003762
C42   C     C_R   0.245308 0.906288 0.070679 -0.045249
C43   C     C_R   0.257523 0.399800 0.930982 -0.003910
C44   C     C_R   0.745313 0.406320 0.070689 -0.044048
C45   C     C_R   0.699179 0.853365 0.968033 -0.020173
C46   C     C_R   0.302116 0.855582 0.032350 -0.079646
C47   C     C_R   0.199172 0.353391 0.968024 -0.020019
C48   C     C_R   0.802130 0.355635 0.032367 -0.079344
C49   C     C_R   0.703326 0.846461 0.043466 -0.099981
C50   C     C_R   0.297119 0.848399 0.956754 -0.109844
C51   C     C_R   0.203314 0.346483 0.043457 -0.099561
C52   C     C_R   0.797136 0.348440 0.956772 -0.110277
C53   C     C_R   0.815575 0.944880 0.044034 0.324225
C54   C     C_R   0.187318 0.956355 0.958520 0.341335
C55   C     C_R   0.315572 0.444875 0.044033 0.324090
C56   C     C_R   0.687327 0.456373 0.958528 0.340890
C57   C     C_R   0.815979 0.940214 0.970906 -0.140518
C58   C     C_R   0.188756 0.955743 0.031790 -0.159690
C59   C     C_R   0.315979 0.440209 0.970906 -0.140631
C60   C     C_R   0.688760 0.455761 0.031798 -0.159247
C61   C     C_R   0.638067 0.808504 0.933670 0.513702
C62   C     C_R   0.362230 0.806136 0.065824 0.471854
C63   C     C_R   0.138062 0.308536 0.933655 0.513868
C64   C     C_R   0.862242 0.306206 0.065851 0.472066
C65   C     C_R   0.092941 0.234454 0.970256 0.536692
C66   C     C_R   0.904697 0.226532 0.028555 0.545802
C67   C     C_R   0.592943 0.734439 0.970281 0.536599
C68   C     C_R   0.404685 0.726477 0.028516 0.545682
C69   C     C_R   0.603868 0.712779 0.042425 -0.044805
C70   C     C_R   0.393063 0.705484 0.956180 -0.087022
C71   C     C_R   0.103863 0.212783 0.042399 -0.044873
C72   C     C_R   0.893079 0.205519 0.956220 -0.087126
C73   C     C_R   0.656629 0.772260 0.079576 -0.150815
C74   C     C_R   0.342029 0.770284 0.919664 -0.161822
C75   C     C_R   0.156614 0.272276 0.079560 -0.150700
C76   C     C_R   0.842053 0.270319 0.919692 -0.161709
C77   C     C_R   0.756406 0.909013 0.080740 0.020500
C78   C     C_R   0.244638 0.913921 0.920412 0.048128
C79   C     C_R   0.256399 0.409020 0.080735 0.020552
C80   C     C_R   0.744650 0.413944 0.920424 0.047725
H9    H     H_    0.864586 0.963491 0.945945 0.157020
H10   H     H_    0.141380 0.984374 0.057659 0.164357
H11   H     H_    0.364591 0.463468 0.945947 0.156980
H12   H     H_    0.641379 0.484377 0.057664 0.164907
H13   H     H_    0.072392 0.149176 0.070324 0.219910
H14   H     H_    0.922978 0.138535 0.927816 0.209004
H15   H     H_    0.572393 0.649189 0.070360 0.220298
H16   H     H_    0.422966 0.638519 0.927764 0.209010
H17   H     H_    0.663469 0.753600 0.135725 0.163312
H18   H     H_    0.334658 0.752328 0.863318 0.182716
H19   H     H_    0.163449 0.253612 0.135708 0.161832
H20   H     H_    0.834687 0.252349 0.863346 0.183798
H21   H     H_    0.455532 0.322498 0.422995 0.135102
H22   H     H_    0.426735 0.322540 0.549501 0.148682
H23   H     H_    0.947511 0.812155 0.421431 0.154577
H24   H     H_    0.919836 0.812473 0.548255 0.148753
C81   C     C_R   0.492354 0.167263 0.574689 0.003774
C82   C     C_R   0.508098 0.150337 0.427250 0.040412
C83   C     C_R   0.990580 0.664409 0.574157 0.003441
C84   C     C_R   0.007923 0.647971 0.427134 0.049688
C85   C     C_R   0.530050 0.070417 0.546178 0.005749
C86   C     C_R   0.525728 0.049882 0.472464 0.045020
C87   C     C_R   0.030099 0.568698 0.546250 0.002780
C88   C     C_R   0.027375 0.548425 0.472457 0.042756
C89   C     C_R   0.473855 0.249487 0.456441 -0.130034
C90   C     C_R   0.460625 0.252157 0.528947 -0.120207
C91   C     C_R   0.968486 0.741812 0.455345 -0.109210
C92   C     C_R   0.955419 0.744413 0.527888 -0.124809
C93   C     C_R   0.561778 0.983583 0.590778 -0.097337
C94   C     C_R   0.535299 0.928500 0.449052 -0.048409
C95   C     C_R   0.063154 0.483089 0.591071 -0.093850
C96   C     C_R   0.039357 0.427586 0.448985 -0.045794
C97   C     C_R   0.073607 0.366209 0.567066 -0.120155
C98   C     C_R   0.059403 0.337709 0.496395 -0.146862
C99   C     C_R   0.568053 0.865936 0.567442 -0.112847
C100  C     C_R   0.553939 0.837976 0.496618 -0.140880
H25   H     H_    0.574385 0.003144 0.646093 0.159695
H26   H     H_    0.522583 0.896385 0.396296 0.213915
H27   H     H_    0.074819 0.502895 0.646536 0.161878
H28   H     H_    0.027520 0.394796 0.396197 0.213939
H29   H     H_    0.092023 0.297589 0.603479 0.171048
H30   H     H_    0.065377 0.245977 0.477532 0.174422
H31   H     H_    0.582943 0.796966 0.604996 0.182622
H32   H     H_    0.558446 0.746098 0.477878 0.183861
H33   H     H_    0.689844 0.794326 0.422576 0.186247
H34   H     H_    0.353005 0.931016 0.551016 0.164186
H35   H     H_    0.195224 0.286957 0.420477 0.175381
H36   H     H_    0.861908 0.422996 0.555559 0.156772
C101  C     C_R   0.746962 0.921969 0.577370 -0.010680
C102  C     C_R   0.220740 0.872368 0.436042 0.001786
C103  C     C_R   0.248525 0.417237 0.576141 -0.011995
C104  C     C_R   0.736495 0.414488 0.429482 0.029710
C105  C     C_R   0.777997 0.026607 0.551368 -0.011813
C106  C     C_R   0.162246 0.887981 0.482965 0.007702
C107  C     C_R   0.277665 0.523686 0.550521 -0.012364
C108  C     C_R   0.675775 0.428878 0.473429 0.029953
C109  C     C_R   0.794756 0.026371 0.478967 -0.048266
C110  C     C_R   0.176245 0.881055 0.556749 -0.010591
C111  C     C_R   0.294751 0.524680 0.478358 -0.049376
C112  C     C_R   0.682786 0.400772 0.545862 -0.015941
C113  C     C_R   0.714963 0.858935 0.458289 -0.114014
C114  C     C_R   0.300738 0.904792 0.533306 -0.087214
C115  C     C_R   0.218850 0.352237 0.456774 -0.110503
C116  C     C_R   0.809841 0.408998 0.532988 -0.096554
C117  C     C_R   0.720678 0.834782 0.529086 0.172547
C118  C     C_R   0.289251 0.891571 0.461500 0.201618
C119  C     C_R   0.225090 0.327451 0.527666 0.171122
C120  C     C_R   0.803211 0.408615 0.459740 0.196958
C121  C     C_R   0.807308 0.114723 0.597607 0.395459
C122  C     C_R   0.093505 0.930339 0.462825 0.418984
C123  C     C_R   0.305067 0.613338 0.596988 0.392272
C124  C     C_R   0.610839 0.483002 0.451127 0.448639
C125  C     C_R   0.867711 0.174296 0.578002 -0.099619
C126  C     C_R   0.044461 0.959872 0.514612 -0.069390
C127  C     C_R   0.364553 0.675988 0.577862 -0.097045
C128  C     C_R   0.553974 0.488142 0.496866 -0.074437
C129  C     C_R   0.892741 0.159632 0.509529 -0.189334
C130  C     C_R   0.056544 0.931744 0.585327 -0.153028
C131  C     C_R   0.390183 0.662734 0.509568 -0.192966
C132  C     C_R   0.559936 0.444243 0.565596 -0.146228
C133  C     C_R   0.855613 0.090465 0.459371 -0.082968
C134  C     C_R   0.120729 0.883762 0.605608 -0.086937
C135  C     C_R   0.354633 0.591810 0.459181 -0.091765
C136  C     C_R   0.623131 0.395773 0.589237 -0.079439
C137  C     C_R   0.753700 0.951341 0.431911 -0.025990
C138  C     C_R   0.245043 0.900300 0.580929 0.034523
C139  C     C_R   0.254954 0.448350 0.431019 -0.023982
C140  C     C_R   0.749830 0.407785 0.576358 0.027387
H37   H     H_    0.895059 0.232164 0.615778 0.143583
H38   H     H_    0.994542 0.997833 0.498753 0.121408
H39   H     H_    0.390367 0.735889 0.615633 0.145356
H40   H     H_    0.505769 0.530558 0.479485 0.112161
H41   H     H_    0.940769 0.203228 0.494989 0.164940
H42   H     H_    0.016288 0.947939 0.624333 0.142418
H43   H     H_    0.436800 0.710158 0.495039 0.160114
H44   H     H_    0.516208 0.451651 0.601485 0.133323
H45   H     H_    0.879904 0.079976 0.408252 0.203314
H46   H     H_    0.129877 0.865586 0.661579 0.147869
H47   H     H_    0.379306 0.583149 0.408145 0.195478
H48   H     H_    0.627427 0.366888 0.644086 0.143250
F1    F     F_    0.782139 0.133011 0.664146 -0.637586
F2    F     F_    0.073337 0.961576 0.396358 -0.614025
F3    F     F_    0.278925 0.630741 0.663208 -0.640034
F4    F     F_    0.605696 0.555351 0.393393 -0.620797
N1    N     N_R   0.721752 0.711882 0.546324 0.086873
O53   O     O_R   0.780917 0.654327 0.541294 -0.370805
O54   O     O_R   0.663248 0.654487 0.551433 -0.379510
N2    N     N_R   0.344266 0.924890 0.414475 0.096565
O55   O     O_R   0.342402 0.029792 0.384270 -0.291302
O56   O     O_R   0.391315 0.846535 0.395361 -0.366020
N3    N     N_R   0.227516 0.204087 0.545320 0.089045
O57   O     O_R   0.289336 0.155749 0.553549 -0.360351
O58   O     O_R   0.174184 0.136784 0.528909 -0.380766
N4    N     N_R   0.863397 0.426637 0.416527 0.070956
O59   O     O_R   0.897818 0.333980 0.392533 -0.364360
O60   O     O_R   0.870074 0.529213 0.384579 -0.318800
F5    F     F_    0.514445 0.932018 0.042497 -0.585866
F6    F     F_    0.607772 0.066392 0.929330 -0.592168
F7    F     F_    0.014456 0.432023 0.042495 -0.585851
F8    F     F_    0.107779 0.566419 0.929330 -0.592382
F9    F     F_    0.874429 0.981202 0.079346 -0.581040
F10   F     F_    0.128086 0.994359 0.924536 -0.588467
F11   F     F_    0.374428 0.481179 0.079350 -0.581520
F12   F     F_    0.628093 0.494365 0.924543 -0.587853
F13   F     F_    0.618688 0.841208 0.866727 -0.539411
F14   F     F_    0.382497 0.838356 0.132874 -0.544862
F15   F     F_    0.118688 0.341253 0.866713 -0.539558
F16   F     F_    0.882500 0.338443 0.132901 -0.545509
F17   F     F_    0.040605 0.178962 0.934146 -0.569296
F18   F     F_    0.954781 0.164746 0.064140 -0.541086
F19   F     F_    0.540597 0.678955 0.934182 -0.568960
F20   F     F_    0.454779 0.664692 0.064087 -0.541167

loop_
_geom_bond_atom_site_label_1
_geom_bond_atom_site_label_2
_geom_bond_distance
_ccdc_geom_bond_type
O4    C12   1.274661 A    
O39   C19   1.318986 A    
C70   C74   1.383828 A    
Cr11  O51   2.005740 S    
C45   C61   1.413361 A    
C134  H46   1.083764 S    
Cr7   O51   1.997262 S    
C93   C99   1.379927 A    
C53   F9    1.355348 S    
C110  C138  1.397417 A    
C68   F20   1.345406 S    
O25   C21   1.238165 A    
C31   H3    1.102215 S    
C121  C125  1.386845 A    
C61   F13   1.357310 S    
C63   C65   1.387389 A    
C1    O9    1.278149 A    
O44   Cr12  2.082811 S    
C37   F5    1.378551 S    
C3    O11   1.278168 A    
C4    O12   1.280150 A    
C25   C34   1.541375 S    
C132  C136  1.384828 A    
C130  H42   1.082287 S    
C69   C73   1.382371 A    
C29   C38   1.536634 S    
O2    C10   1.274640 A    
C32   C36   1.546466 S    
O17   Cr9   2.090850 S    
C42   C58   1.404636 A    
C124  C128  1.393873 A    
C122  F2    1.348623 S    
O31   Cr3   1.955993 S    
O16   Cr8   1.969925 S    
C27   H7    1.109778 S    
H24   C92   1.084081 S    
O13   C5    1.281623 A    
O28   Cr4   2.084013 S    
O12   Cr8   2.075764 S    
C116  C140  1.414440 A    
O22   Cr10  1.964728 S    
O15   C7    1.281619 A    
O46   Cr10  1.966494 S    
C52   C76   1.403853 A    
C87   C88   1.402739 A    
C128  H40   1.077525 S    
C108  C112  1.403063 A    
C7    C35   1.465351 S    
C53   C77   1.392401 A    
C84   C91   1.388016 A    
C64   C66   1.388427 A    
C14   C103  1.440324 S    
C61   C67   1.387408 A    
C114  C118  1.370001 A    
C115  C139  1.369057 A    
H34   C114  1.085415 S    
C124  F4    1.357714 S    
C87   C95   1.414784 A    
C82   C86   1.443532 A    
N3    O58   1.296320 A    
C25   H5    1.109777 S    
C1    C44   1.484418 S    
O5    Cr1   1.980132 S    
C131  H43   1.075081 S    
Cr12  O52   1.996982 S    
C26   C33   1.531618 S    
C55   F11   1.355350 S    
C17   O41   1.248965 A    
C47   C51   1.420873 A    
C30   C37   1.533697 S    
C19   O43   1.245376 A    
C20   O44   1.275570 A    
Cr8   O52   2.005777 S    
C9    C77   1.470950 S    
O46   C22   1.264020 A    
C103  C107  1.401203 A    
C66   C72   1.391322 A    
C59   H11   1.078205 S    
C49   C77   1.404432 A    
C130  C134  1.380972 A    
C50   C74   1.403845 A    
C55   C59   1.374504 A    
C28   H8    1.106620 S    
C53   C57   1.374504 A    
C16   O36   1.276168 A    
C54   C58   1.376442 A    
C94   H26   1.074901 S    
O31   C15   1.328565 A    
O32   C16   1.275252 A    
C127  C131  1.386251 A    
O47   Cr11  1.970209 S    
O21   C9    1.287543 A    
H21   C89   1.083429 S    
C39   C40   1.525519 S    
C86   C94   1.426243 A    
C117  N1    1.405896 S    
C73   H17   1.082609 S    
H35   C115  1.085569 S    
O24   C12   1.285182 A    
C114  C138  1.399927 A    
C109  C137  1.435307 A    
C123  C127  1.386782 A    
C126  H38   1.077229 S    
C28   C32   1.550914 S    
N1    O53   1.297348 A    
C46   C50   1.423474 A    
O32   Cr4   1.974276 S    
C26   H6    1.106617 S    
C55   C79   1.392390 A    
C56   C80   1.392980 A    
O11   Cr7   2.092994 S    
C111  C135  1.419108 A    
O27   Cr3   2.100189 S    
O3    Cr3   2.075502 S    
C46   C62   1.409308 A    
C129  H41   1.077562 S    
C54   F10   1.355297 S    
Cr5   O49   1.997262 S    
C107  C111  1.399319 A    
C136  H48   1.083740 S    
C112  C136  1.410372 A    
C32   C39   1.533698 S    
C121  F1    1.359045 S    
O22   C10   1.285201 A    
C76   H20   1.082586 S    
C104  C108  1.439107 A    
C18   C81   1.455092 S    
C2    O10   1.280136 A    
C27   C28   1.556020 S    
C38   F6    1.378643 S    
C12   C80   1.474413 S    
C126  C130  1.383008 A    
C44   C48   1.420512 A    
C15   C102  1.450537 S    
C132  H44   1.082242 S    
O5    C1    1.287535 A    
C106  C110  1.410227 A    
C44   C60   1.404628 A    
O3    C11   1.277321 A    
O8    C4    1.286931 A    
C88   C96   1.427535 A    
C58   H10   1.077047 S    
C94   C100  1.392239 A    
Cr1   O49   1.993369 S    
N4    O60   1.300333 A    
C41   C45   1.422121 A    
Cr3   O51   1.993369 S    
C43   C47   1.422095 A    
C29   H1    1.102228 S    
C17   C82   1.470968 S    
O26   Cr2   2.084013 S    
C5    O17   1.270038 A    
O29   C13   1.302953 A    
O28   C24   1.290255 A    
O14   C6    1.275248 A    
C20   C83   1.451441 S    
C35   C39   1.530208 S    
C98   H30   1.081901 S    
C8    O20   1.273656 A    
N2    O55   1.300736 A    
C108  C124  1.431189 A    
O40   Cr8   1.955136 S    
C118  N2    1.433452 S    
C102  C118  1.399866 A    
O41   Cr9   2.074041 S    
C57   H9    1.078208 S    
C67   C69   1.390953 A    
C106  C122  1.435699 A    
C32   H4    1.108961 S    
H36   C116  1.084140 S    
O33   Cr5   2.082747 S    
C111  C139  1.434215 A    
C129  C133  1.396643 A    
C60   H12   1.077052 S    
O35   Cr7   2.082747 S    
C65   F17   1.346201 S    
O29   Cr1   1.955993 S    
C101  C105  1.401985 A    
C131  C135  1.395625 A    
C22   C138  1.443955 S    
Cr9   O49   2.005740 S    
C84   C88   1.444956 A    
C18   O42   1.280933 A    
H23   C91   1.083505 S    
O26   C22   1.282319 A    
O20   Cr12  2.088027 S    
C39   F7    1.378546 S    
C10   C78   1.474400 S    
C133  H45   1.077659 S    
N3    O57   1.299510 A    
C107  C123  1.414959 A    
C74   H18   1.082587 S    
C104  C120  1.385778 A    
C63   F15   1.357314 S    
C50   C78   1.405623 A    
C64   F16   1.357291 S    
C68   C70   1.391315 A    
C31   C40   1.536630 S    
C34   C38   1.518140 S    
C30   H2    1.108969 S    
C125  H37   1.082675 S    
O30   C14   1.272080 A    
C33   C37   1.530209 S    
C93   H25   1.083321 S    
C96   H28   1.074483 S    
C26   C30   1.550914 S    
H22   C90   1.083737 S    
C135  H47   1.077707 S    
O42   Cr10  2.082811 S    
C85   C93   1.410878 A    
O18   Cr10  2.088027 S    
C11   C79   1.470950 S    
O34   Cr6   2.090332 S    
O6    Cr2   1.963506 S    
O24   Cr12  1.964728 S    
C51   C79   1.404454 A    
O30   Cr2   1.974276 S    
C82   C89   1.390122 A    
O48   Cr12  1.966494 S    
C116  C120  1.379901 A    
C119  N3    1.413173 S    
C70   H16   1.077471 S    
O37   C17   1.316173 A    
C15   O35   1.273168 A    
Cr10  O50   1.996982 S    
C125  C129  1.386828 A    
C36   C40   1.518138 S    
O43   Cr11  2.074041 S    
C48   C64   1.409294 A    
C62   F14   1.357279 S    
C71   C75   1.382394 A    
O21   Cr9   1.953531 S    
C115  C119  1.365659 A    
O39   Cr7   1.969623 S    
O45   Cr9   1.970209 S    
C13   O33   1.237409 A    
C66   F18   1.345407 S    
O13   Cr5   1.964327 S    
O15   Cr7   1.964327 S    
C112  C140  1.394038 A    
C31   C35   1.542952 S    
O23   C11   1.287524 A    
C19   C84   1.471504 S    
C128  C132  1.387110 A    
H33   C113  1.085928 S    
C27   C36   1.541379 S    
O6    C2    1.286938 A    
C103  C119  1.413940 A    
O1    Cr1   2.075502 S    
O19   Cr11  2.090850 S    
C99   C100  1.386201 A    
C37   C38   1.525517 S    
C62   C68   1.388443 A    
C97   C98   1.385069 A    
C13   C104  1.449166 S    
O45   C21   1.299700 A    
C96   C98   1.391884 A    
O47   C23   1.299716 A    
C110  C134  1.411246 A    
C47   C63   1.413355 A    
C91   C92   1.389236 A    
O40   C20   1.276737 A    
C89   C90   1.389173 A    
C6    O18   1.273646 A    
C75   H19   1.082602 S    
C25   C26   1.556018 S    
O36   Cr8   2.090332 S    
C5    C33   1.465340 S    
C8    C36   1.461872 S    
C23   C139  1.431847 S    
O38   Cr6   1.955136 S    
C54   C78   1.392974 A    
O37   Cr5   1.969623 S    
O8    Cr4   1.963506 S    
C72   C76   1.383851 A    
C120  N4    1.431185 S    
C40   F8    1.378641 S    
O1    C9    1.277305 A    
C43   C59   1.406257 A    
C85   C86   1.402728 A    
O7    C3    1.287514 A    
C41   C57   1.406253 A    
C113  C137  1.368273 A    
C95   C97   1.385084 A    
C127  H39   1.082717 S    
C122  C126  1.395250 A    
O23   Cr11  1.953531 S    
C3    C42   1.484462 S    
C45   C49   1.420875 A    
C56   F12   1.355296 S    
C29   C33   1.542950 S    
O16   C8    1.275242 A    
C24   C140  1.453389 S    
C7    O19   1.270042 A    
Cr4   O52   1.993188 S    
O2    Cr2   2.095669 S    
O48   C24   1.259913 A    
Cr6   O50   2.005777 S    
C52   C80   1.405653 A    
O27   C23   1.237982 A    
C25   C29   1.551120 S    
C56   C60   1.376429 A    
C69   H15   1.074596 S    
C71   H13   1.074590 S    
O9    Cr5   2.092994 S    
N2    O56   1.298649 A    
C113  C117  1.361785 A    
O7    Cr3   1.980132 S    
C6    C34   1.461863 S    
C83   C87   1.402238 A    
C16   C101  1.445290 S    
N1    O54   1.292225 A    
C28   C35   1.531620 S    
C105  C109  1.401983 A    
Cr2   O50   1.993188 S    
C42   C46   1.420556 A    
O14   Cr6   1.969925 S    
C51   C75   1.402667 A    
C49   C73   1.402666 A    
C83   C92   1.408452 A    
C72   H14   1.077461 S    
C81   C90   1.409121 A    
C4    C41   1.477144 S    
O38   C18   1.272862 A    
O25   Cr1   2.100189 S    
C30   C34   1.546465 S    
C81   C85   1.397795 A    
C99   H31   1.080008 S    
C97   H29   1.082225 S    
C95   H27   1.082975 S    
C14   O34   1.276116 A    
C67   F19   1.346199 S    
C101  C117  1.409547 A    
C105  C121  1.414192 A    
O10   Cr6   2.075764 S    
C65   C71   1.390952 A    
C109  C133  1.418900 A    
O4    Cr4   2.095669 S    
N4    O59   1.298700 A    
C123  F3    1.359114 S    
C100  H32   1.080102 S    
C27   C31   1.551118 S    
C102  C106  1.440487 A    
C21   C137  1.433035 S    
C2    C43   1.477127 S    
C48   C52   1.423467 A    
