data_mof_unit_27494.cif
_audit_creation_date              2013-03-05T16:35:26-0500
_audit_creation_method            fapswitch 2.2
_symmetry_space_group_name_H-M    P1
_symmetry_Int_Tables_number       1
_space_group_crystal_system       triclinic
_cell_length_a                    9.081389
_cell_length_b                    7.833513
_cell_length_c                    10.724506
_cell_angle_alpha                 88.877026
_cell_angle_beta                  90.093468
_cell_angle_gamma                 89.975722
_cell_volume                      762.784922243

loop_
_atom_site_label
_atom_site_type_symbol
_atom_site_description
_atom_site_fract_x
_atom_site_fract_y
_atom_site_fract_z
_atom_type_partial_charge
O1    O     O_R   0.288390 0.642760 0.500000 -0.575097
O2    O     O_R   0.711610 0.357240 0.500000 -0.575097
O3    O     O_R   0.711610 0.642760 0.500000 -0.568265
O4    O     O_R   0.288390 0.357240 0.500000 -0.568265
C1    C     C_R   0.220232 0.500019 0.500103 0.832741
C2    C     C_R   0.779768 0.499981 0.499897 0.832733
O5    O     O_R   0.499960 0.642760 0.316850 -0.563314
O6    O     O_R   0.500040 0.357240 0.683150 -0.563315
O7    O     O_R   0.500040 0.642760 0.683150 -0.535261
O8    O     O_R   0.499960 0.357240 0.316850 -0.535262
C3    C     C_R   0.491640 0.502019 0.259795 0.903392
C4    C     C_R   0.508359 0.497981 0.740204 0.903405
Cu1   Cu    Cu3+1 0.500000 0.669080 0.500000 1.130756
Cu2   Cu    Cu3+1 0.500000 0.330920 0.500000 1.130756
C5    C     C_3   0.460128 0.657495 0.032225 0.274225
C6    C     C_3   0.539872 0.342505 0.967775 0.274229
C7    C     C_3   0.600594 0.613260 0.959760 0.210111
C8    C     C_3   0.399406 0.386740 0.040240 0.210110
C9    C     C_3   0.371608 0.537237 0.949015 -0.051826
C10   C     C_3   0.628392 0.462763 0.050985 -0.051819
C11   C     C_3   0.512071 0.493335 0.875443 -0.290129
C12   C     C_3   0.487929 0.506665 0.124557 -0.290135
C13   C     C_1   0.065441 0.500028 0.500037 -0.098160
C14   C     C_1   0.934559 0.499972 0.499963 -0.098161
N1    N     N_1   0.500000 0.076820 0.500000 0.010402
N2    N     N_1   0.500000 0.923180 0.500000 0.010402
N3    N     N_3   0.229940 0.580716 0.892505 -0.471567
H1    H     H_    0.152912 0.588593 0.964467 0.271821
H2    H     H_    0.198286 0.478925 0.836947 0.239222
N4    N     N_3   0.770061 0.419285 0.107494 -0.471547
H3    H     H_    0.847097 0.411453 0.035534 0.271815
H4    H     H_    0.801696 0.521057 0.163078 0.239206
N5    N     N_R   0.405138 0.828363 0.054602 0.195455
O9    O     O_R   0.364259 0.922386 0.959583 -0.233449
O10   O     O_R   0.374530 0.877124 0.166724 -0.276707
N6    N     N_R   0.594863 0.171638 0.945397 0.195461
O11   O     O_R   0.635740 0.077614 0.040416 -0.233441
O12   O     O_R   0.625481 0.122883 0.833276 -0.276709
N7    N     N_R   0.718035 0.730330 0.922099 0.181300
O13   O     O_R   0.803407 0.794700 0.006483 -0.277606
O14   O     O_R   0.752786 0.749688 0.805155 -0.308054
N8    N     N_R   0.281965 0.269670 0.077901 0.181303
O15   O     O_R   0.196595 0.205296 0.993519 -0.277604
O16   O     O_R   0.247213 0.250315 0.194846 -0.308055

loop_
_geom_bond_atom_site_label_1
_geom_bond_atom_site_label_2
_geom_bond_distance
_ccdc_geom_bond_type
N4    H4    1.044855 S    
C13   C14   1.188583 T    
C6    C11   1.547044 S    
N3    H2    1.044851 S    
C8    C12   1.542099 S    
C9    N3    1.458591 S    
C3    C12   1.450445 S    
C1    C13   1.405723 S    
C6    C10   1.536646 S    
O6    C4    1.273565 A    
O3    C2    1.278098 A    
C2    C14   1.405723 S    
N6    O12   1.299247 A    
N5    O9    1.299166 A    
N7    O14   1.299778 A    
C10   N4    1.458591 S    
Cu1   Cu2   2.648982 S    
C6    N6    1.452923 S    
O5    C3    1.273565 A    
O2    C2    1.278262 A    
N8    O16   1.299778 A    
O1    C1    1.278262 A    
N6    O11   1.299165 A    
C9    C11   1.543215 S    
C10   C12   1.543216 S    
C8    N8    1.459233 S    
Cu2   N1    1.990495 S    
O4    Cu2   1.932655 S    
N4    H3    1.045156 S    
O2    Cu2   1.932827 S    
O7    C4    1.280207 A    
O6    Cu2   1.978998 S    
Cu1   N2    1.990495 S    
O1    Cu1   1.932829 S    
O8    C3    1.280206 A    
O5    Cu1   1.979000 S    
C7    C10   1.537679 S    
C6    C8    1.537744 S    
C8    C9    1.537680 S    
N8    O15   1.300090 A    
N7    O13   1.300091 A    
C5    C7    1.537741 S    
C7    N7    1.459231 S    
O7    Cu1   1.970960 S    
N5    O10   1.299251 A    
N1    N2    1.203542 T    
C5    C9    1.536646 S    
C4    C11   1.450445 S    
C5    N5    1.452922 S    
C5    C12   1.547045 S    
C7    C11   1.542097 S    
O8    Cu2   1.970963 S    
O4    C1    1.278098 A    
N3    H1    1.045151 S    
O3    Cu1   1.932654 S    
