data_mof_unit_7273.cif
_audit_creation_date              2012-12-11T15:06:37-0500
_audit_creation_method            fapswitch 2.2
_symmetry_space_group_name_H-M    P1
_symmetry_Int_Tables_number       1
_space_group_crystal_system       triclinic
_cell_length_a                    7.238444
_cell_length_b                    14.885056
_cell_length_c                    22.439516
_cell_angle_alpha                 89.999886
_cell_angle_beta                  89.999062
_cell_angle_gamma                 89.281016
_cell_volume                      2417.54731315

loop_
_atom_site_label
_atom_site_type_symbol
_atom_type_description
_atom_site_fract_x
_atom_site_fract_y
_atom_site_fract_z
_atom_type_partial_charge
O1    O     O_R   0.390810 0.844810 0.447340 -0.534931
O2    O     O_R   0.109190 0.155190 0.947340 -0.534934
O3    O     O_R   0.890810 0.655190 0.552660 -0.535126
O4    O     O_R   0.609190 0.344810 0.052660 -0.535128
O5    O     O_R   0.720550 0.655820 0.440420 -0.536869
O6    O     O_R   0.779450 0.344180 0.940420 -0.536872
O7    O     O_R   0.220550 0.844180 0.559580 -0.538150
O8    O     O_R   0.279450 0.155820 0.059580 -0.538158
C1    C     C_R   0.553211 0.626461 0.426353 0.677127
C2    C     C_R   0.946791 0.373539 0.926353 0.677126
C3    C     C_R   0.051264 0.873448 0.573627 0.676866
C4    C     C_R   0.448734 0.126551 0.073626 0.676875
O9    O     O_R   0.720530 0.844130 0.440420 -0.536492
O10   O     O_R   0.779470 0.155870 0.940420 -0.536491
O11   O     O_R   0.220530 0.655870 0.559580 -0.536617
O12   O     O_R   0.279470 0.344130 0.059580 -0.536613
O13   O     O_R   0.890830 0.844810 0.552660 -0.534908
O14   O     O_R   0.609170 0.155190 0.052660 -0.534904
O15   O     O_R   0.390830 0.655190 0.447340 -0.535595
O16   O     O_R   0.109170 0.344810 0.947340 -0.535589
C5    C     C_R   0.551166 0.873615 0.426548 0.669562
C6    C     C_R   0.948835 0.126385 0.926548 0.669558
C7    C     C_R   0.053127 0.626666 0.573720 0.668056
C8    C     C_R   0.446871 0.373334 0.073720 0.668054
O17   O     O_3   0.557310 0.749980 0.536820 -0.372024
O18   O     O_3   0.942690 0.250020 0.036820 -0.372027
O19   O     O_3   0.057310 0.750020 0.463180 -0.371402
O20   O     O_3   0.442690 0.249980 0.963180 -0.371401
V1    V     V_3+5 0.832160 0.749980 0.493170 1.417191
V2    V     V_3+5 0.667840 0.250020 0.993170 1.417185
V3    V     V_3+5 0.332160 0.750020 0.506830 1.416527
V4    V     V_3+5 0.167840 0.249980 0.006830 1.416524
C9    C     C_R   0.875118 0.602409 0.858904 -0.185119
C10   C     C_R   0.624955 0.397598 0.358899 -0.185096
C11   C     C_R   0.514381 0.894244 0.136116 -0.187254
C12   C     C_R   0.985570 0.105751 0.636117 -0.187317
H1    H     H_    0.842607 0.545017 0.945783 0.112474
H2    H     H_    0.657468 0.454990 0.445776 0.112463
H3    H     H_    0.486948 0.950622 0.048631 0.112533
H4    H     H_    0.012992 0.049373 0.548632 0.112540
H5    H     H_    0.854875 0.723453 0.772852 0.126248
H6    H     H_    0.645232 0.276559 0.272844 0.126245
H7    H     H_    0.583331 0.772469 0.219222 0.126101
H8    H     H_    0.916589 0.227522 0.719223 0.126101
H9    H     H_    0.825508 0.667781 0.873574 0.114981
H10   H     H_    0.674597 0.332230 0.373565 0.114964
H11   H     H_    0.534448 0.826828 0.118802 0.114107
H12   H     H_    0.965472 0.173165 0.618803 0.114136
C13   C     C_R   0.949771 0.447801 0.882968 -0.031279
C14   C     C_R   0.550240 0.552198 0.382968 -0.031305
C15   C     C_R   0.461796 0.052257 0.116769 -0.026976
C16   C     C_R   0.038198 0.947741 0.616770 -0.026943
C17   C     C_R   0.099277 0.463302 0.593720 0.075185
C18   C     C_R   0.400678 0.536694 0.093724 0.075190
C19   C     C_R   0.509715 0.038141 0.409862 0.073999
C20   C     C_R   0.990338 0.961861 0.909864 0.074010
C21   C     C_R   0.124017 0.392766 0.634609 -0.129342
C22   C     C_R   0.375917 0.607226 0.134616 -0.129344
C23   C     C_R   0.475260 0.110441 0.371028 -0.129496
C24   C     C_R   0.024846 0.889566 0.871031 -0.129500
C25   C     C_R   0.095048 0.405701 0.695371 -0.203860
C26   C     C_R   0.404904 0.594291 0.195376 -0.203854
C27   C     C_R   0.466630 0.097957 0.309620 -0.204100
C28   C     C_R   0.033464 0.902050 0.809623 -0.204108
C29   C     C_R   0.032348 0.488980 0.718117 0.078651
C30   C     C_R   0.467644 0.511017 0.218119 0.078655
C31   C     C_R   0.497673 0.012879 0.283598 0.077649
C32   C     C_R   0.002362 0.987123 0.783599 0.077647
C33   C     C_R   0.011285 0.562069 0.677275 0.055747
C34   C     C_R   0.488728 0.437931 0.177274 0.055745
C35   C     C_R   0.533307 0.938578 0.322432 0.055930
C36   C     C_R   0.966696 0.061420 0.822434 0.055931
C37   C     C_R   0.989355 0.501990 0.780022 0.081076
C38   C     C_R   0.510653 0.498009 0.280023 0.081073
C39   C     C_R   0.492223 0.998976 0.220306 0.082055
C40   C     C_R   0.007789 0.001024 0.720307 0.082059
C41   C     C_R   0.924704 0.587820 0.799170 0.149680
C42   C     C_R   0.575348 0.412184 0.299166 0.149677
C43   C     C_R   0.520329 0.910675 0.197692 0.149852
C44   C     C_R   0.979643 0.089321 0.697693 0.149868
C45   C     C_R   0.906567 0.658375 0.758490 -0.213355
C46   C     C_R   0.593507 0.341633 0.258485 -0.213356
C47   C     C_R   0.556824 0.839303 0.236486 -0.212139
C48   C     C_R   0.943127 0.160691 0.736488 -0.212141
C49   C     C_R   0.950551 0.646162 0.698773 -0.191282
C50   C     C_R   0.549503 0.353844 0.198769 -0.191292
C51   C     C_R   0.562777 0.852721 0.297699 -0.187643
C52   C     C_R   0.937185 0.147273 0.797701 -0.187654
C53   C     C_R   0.002843 0.432542 0.823515 -0.216007
C54   C     C_R   0.497143 0.567454 0.323517 -0.216015
C55   C     C_R   0.463178 0.069476 0.178351 -0.213924
C56   C     C_R   0.036845 0.930524 0.678353 -0.213919
C57   C     C_R   0.885414 0.532724 0.900196 -0.188179
C58   C     C_R   0.614641 0.467281 0.400192 -0.188154
C59   C     C_R   0.486687 0.964539 0.096037 -0.192389
C60   C     C_R   0.013274 0.035458 0.596038 -0.192430
C61   C     C_R   0.050686 0.549626 0.615591 -0.116887
C62   C     C_R   0.449306 0.450373 0.115592 -0.116887
C63   C     C_R   0.536986 0.951258 0.385360 -0.115813
C64   C     C_R   0.963025 0.048740 0.885362 -0.115811
H13   H     H_    0.048294 0.365389 0.812473 0.096865
H14   H     H_    0.451660 0.634603 0.312478 0.096873
H15   H     H_    0.446089 0.138563 0.191768 0.092489
H16   H     H_    0.053958 0.861439 0.691769 0.092486
H17   H     H_    0.122637 0.348580 0.723489 0.119092
H18   H     H_    0.377294 0.651409 0.223496 0.119089
H19   H     H_    0.432842 0.156633 0.283659 0.120317
H20   H     H_    0.067289 0.843379 0.783661 0.120320
H21   H     H_    0.168030 0.326565 0.620272 0.114673
H22   H     H_    0.331870 0.673423 0.120281 0.114650
H23   H     H_    0.451656 0.177807 0.387535 0.115782
H24   H     H_    0.048496 0.822204 0.887538 0.115792
H25   H     H_    0.932612 0.703141 0.669297 0.115316
H26   H     H_    0.567460 0.296867 0.169292 0.115331
H27   H     H_    0.591893 0.794865 0.325528 0.109844
H28   H     H_    0.908047 0.205127 0.825529 0.109853
C65   C     C_3   0.123293 0.449346 0.526687 -0.343855
C66   C     C_3   0.142697 0.351397 0.505823 -0.348697
C67   C     C_3   0.141170 0.345303 0.437874 -0.760386
H29   H     H_    0.008852 0.372372 0.419888 0.235098
H30   H     H_    0.257261 0.383875 0.418808 0.245564
H31   H     H_    0.155904 0.274062 0.423872 0.209163
H32   H     H_    0.275454 0.322823 0.522342 0.199141
H33   H     H_    0.026393 0.311134 0.523431 0.199077
H34   H     H_    0.000044 0.478967 0.504067 0.171628
H35   H     H_    0.246676 0.486870 0.511632 0.180371
C68   C     C_3   0.376616 0.550652 0.026693 -0.343834
C69   C     C_3   0.357396 0.648608 0.005828 -0.348698
C70   C     C_3   0.358922 0.654704 0.937879 -0.760386
H36   H     H_    0.491172 0.627566 0.919886 0.235113
H37   H     H_    0.242741 0.616193 0.918816 0.245550
H38   H     H_    0.344336 0.725953 0.923879 0.209166
H39   H     H_    0.224694 0.677241 0.022349 0.199123
H40   H     H_    0.473775 0.688818 0.023436 0.199086
H41   H     H_    0.499782 0.520976 0.004057 0.171640
H42   H     H_    0.253146 0.513183 0.011655 0.180353
C71   C     C_3   0.516447 0.050584 0.477460 -0.347829
C72   C     C_3   0.483949 0.146675 0.500446 -0.349538
C73   C     C_3   0.494141 0.150158 0.568371 -0.757379
H43   H     H_    0.385752 0.107529 0.588358 0.243495
H44   H     H_    0.631483 0.126133 0.583914 0.241201
H45   H     H_    0.472817 0.220326 0.583897 0.209049
H46   H     H_    0.590354 0.192116 0.481934 0.199027
H47   H     H_    0.344523 0.170442 0.486528 0.200576
H48   H     H_    0.409664 0.007250 0.497897 0.182407
H49   H     H_    0.654064 0.026792 0.493446 0.173097
C74   C     C_3   0.983570 0.949416 0.977462 -0.347859
C75   C     C_3   0.016250 0.853342 0.000453 -0.349536
C76   C     C_3   0.005966 0.849859 0.068378 -0.757284
H50   H     H_    0.114070 0.892639 0.088382 0.243510
H51   H     H_    0.868467 0.873707 0.083895 0.241137
H52   H     H_    0.027656 0.779721 0.083916 0.209013
H53   H     H_    0.909977 0.807840 0.981930 0.199019
H54   H     H_    0.155746 0.829650 0.986551 0.200571
H55   H     H_    0.090248 0.992799 0.997908 0.182402
H56   H     H_    0.845895 0.973146 0.993436 0.173110

loop_
_geom_bond_atom_site_label_1
_geom_bond_atom_site_label_2
_ccdc_geom_bond_type
O17   V3    S    
C47   C51   A    
C22   C26   A    
C19   C23   A    
O19   V1    S    
C9    H9    S    
O3    C7    A    
C74   C75   S    
H6    C46   S    
C44   C48   A    
C11   H11   S    
C69   C70   S    
C36   C64   A    
C29   C37   A    
O1    C5    A    
C8    C62   S    
C28   C32   A    
C71   H48   S    
C68   H41   S    
C72   H46   S    
C76   H51   S    
C18   C22   A    
O4    C8    A    
C73   H45   S    
C17   C65   S    
C30   C38   A    
H7    C47   S    
O1    V3    S    
O13   V1    S    
O2    V4    S    
C11   C43   A    
O3    V1    S    
C12   C60   A    
C66   C67   S    
C54   H14   S    
C3    C16   S    
C15   C55   A    
C1    O15   A    
C21   H21   S    
C2    O16   A    
O2    C6    A    
C23   H23   S    
C16   C60   A    
O14   V2    S    
C25   H17   S    
C65   H35   S    
C51   H27   S    
C39   C55   A    
C70   H38   S    
C53   H13   S    
O11   C7    A    
O15   V3    S    
O12   C8    A    
C75   H54   S    
O10   V2    S    
C36   C52   A    
C14   C54   A    
C28   H20   S    
O5    V1    S    
C67   H30   S    
C27   C31   A    
C6    C64   S    
C26   C30   A    
H1    C57   S    
O8    V4    S    
C10   C58   A    
C71   H49   S    
O7    V3    S    
C75   C76   S    
C12   C44   A    
C76   H52   S    
C13   C53   A    
C17   C21   A    
O18   V4    S    
C14   C58   A    
C17   C61   A    
C46   C50   A    
C35   C63   A    
C20   C24   A    
C32   C36   A    
C48   C52   A    
C52   H28   S    
O7    C3    A    
O5    C1    A    
C24   H24   S    
C69   H40   S    
C69   H39   S    
C42   C46   A    
C41   C45   A    
O8    C4    A    
H5    C45   S    
H2    C58   S    
C4    O14   A    
C18   C68   S    
O9    C5    A    
C66   H33   S    
C68   H42   S    
C67   H29   S    
O11   V3    S    
C74   H56   S    
H3    C59   S    
C40   C56   A    
C10   H10   S    
C7    C61   S    
C35   C51   A    
C16   C56   A    
C32   C40   A    
C75   H53   S    
C20   C64   A    
C27   H19   S    
C68   C69   S    
C34   C50   A    
C4    C15   S    
C33   C49   A    
C70   H36   S    
O16   V4    S    
C67   H31   S    
O9    V1    S    
C29   C33   A    
C3    O13   A    
O6    V2    S    
C22   H22   S    
C1    C14   S    
C40   C44   A    
C55   H15   S    
H8    C48   S    
C9    C57   A    
O6    C2    A    
C73   H43   S    
C21   C25   A    
C26   H18   S    
C11   C59   A    
C74   H55   S    
O12   V4    S    
C71   C72   S    
C23   C27   A    
C19   C71   S    
C50   H26   S    
C24   C28   A    
O10   C6    A    
C20   C74   S    
C49   H25   S    
H4    C60   S    
C37   C53   A    
C72   H47   S    
C76   H50   S    
C10   C42   A    
C43   C47   A    
C73   H44   S    
C9    C41   A    
C30   C34   A    
C65   H34   S    
C5    C63   S    
C38   C54   A    
O20   V2    S    
C12   H12   S    
C31   C35   A    
C66   H32   S    
O4    V2    S    
C72   C73   S    
C56   H16   S    
C25   C29   A    
C31   C39   A    
C38   C42   A    
C19   C63   A    
C37   C41   A    
C18   C62   A    
C13   C57   A    
C65   C66   S    
C2    C13   S    
C39   C43   A    
C45   C49   A    
C34   C62   A    
C15   C59   A    
C70   H37   S    
C33   C61   A    
