data_mof_unit_31583.cif
_audit_creation_date              2013-03-05T16:05:38-0500
_audit_creation_method            fapswitch 2.2
_symmetry_space_group_name_H-M    P1
_symmetry_Int_Tables_number       1
_space_group_crystal_system       triclinic
_cell_length_a                    15.874763
_cell_length_b                    10.746927
_cell_length_c                    9.624658
_cell_angle_alpha                 88.822934
_cell_angle_beta                  88.76083
_cell_angle_gamma                 93.271367
_cell_volume                      1638.56478148

loop_
_atom_site_label
_atom_site_type_symbol
_atom_site_description
_atom_site_fract_x
_atom_site_fract_y
_atom_site_fract_z
_atom_type_partial_charge
O1    O     O_R   0.500000 0.319660 0.618740 -0.630265
O2    O     O_R   0.500000 0.680340 0.381260 -0.630252
O3    O     O_R   0.499990 0.319630 0.381170 -0.494379
O4    O     O_R   0.500010 0.680370 0.618830 -0.494395
C1    C     C_R   0.508094 0.262898 0.501464 0.861119
C2    C     C_R   0.491909 0.737103 0.498535 0.861102
O5    O     O_R   0.379080 0.500000 0.618760 -0.583129
O6    O     O_R   0.620920 0.500000 0.381240 -0.583195
O7    O     O_R   0.379080 0.499970 0.381190 -0.537954
O8    O     O_R   0.620920 0.500030 0.618810 -0.537946
C3    C     C_R   0.340199 0.499723 0.501244 0.823899
C4    C     C_R   0.659799 0.500307 0.498754 0.823968
Cu1   Cu    Cu3+1 0.500000 0.500020 0.640660 1.023037
Cu2   Cu    Cu3+1 0.500000 0.499980 0.359340 1.023014
C5    C     C_3   0.966454 0.390713 0.555200 -0.072298
C6    C     C_3   0.033546 0.609701 0.444777 -0.072326
C7    C     C_3   0.025488 0.406190 0.425305 0.273683
C8    C     C_3   0.974505 0.594202 0.574681 0.274545
C9    C     C_1   0.250878 0.500206 0.503699 -0.086443
C10   C     C_1   0.749121 0.499955 0.496293 -0.086596
C11   C     C_3   0.024856 0.486922 0.630268 0.242550
C12   C     C_3   0.975131 0.513471 0.369695 0.241682
C13   C     C_3   0.084221 0.500783 0.501177 -0.168224
C14   C     C_3   0.915778 0.499609 0.498803 -0.168100
C15   C     C_1   0.175579 0.500473 0.503641 0.121219
C16   C     C_1   0.824421 0.499810 0.496343 0.120792
C17   C     C_R   0.529188 0.066090 0.378315 0.321421
C18   C     C_R   0.470825 0.933913 0.621684 0.321399
C19   C     C_R   0.496164 0.942527 0.369618 -0.017874
C20   C     C_R   0.503851 0.057475 0.630380 -0.017872
C21   C     C_R   0.481525 0.872339 0.494960 -0.215233
C22   C     C_R   0.518485 0.127664 0.505038 -0.215241
C23   C     C_R   0.444191 0.422966 0.079590 0.424842
C24   C     C_R   0.555812 0.577029 0.920410 0.424779
C25   C     C_R   0.441806 0.425386 0.931183 0.059645
C26   C     C_R   0.558204 0.574597 0.068817 0.059555
N1    N     N_R   0.500020 0.500030 0.852070 -0.249125
N2    N     N_R   0.499980 0.499970 0.147930 -0.249124
N3    N     N_R   0.052153 0.304504 0.339683 0.156110
O9    O     O_R   0.995977 0.232196 0.279976 -0.288150
O10   O     O_R   0.131737 0.284580 0.323441 -0.306086
N4    N     N_R   0.947844 0.695806 0.660421 0.156234
O11   O     O_R   0.004009 0.767710 0.720698 -0.287743
O12   O     O_R   0.868273 0.715924 0.676404 -0.305788
C27   C     C_3   0.925533 0.267995 0.614757 -0.328720
C28   C     C_3   0.990586 0.173042 0.648235 -0.643695
H1    H     H_    0.021575 0.141987 0.551611 0.263215
H2    H     H_    0.039580 0.213077 0.717489 0.272577
H3    H     H_    0.958539 0.090082 0.701304 0.261763
H4    H     H_    0.888845 0.287515 0.710624 0.242977
H5    H     H_    0.880975 0.227781 0.537983 0.229144
C29   C     C_3   0.074559 0.732392 0.385271 -0.328633
C30   C     C_3   0.009692 0.828035 0.353294 -0.641729
H6    H     H_    0.959747 0.788374 0.285587 0.272594
H7    H     H_    0.979897 0.859763 0.450619 0.263108
H8    H     H_    0.041639 0.910521 0.299153 0.261653
H9    H     H_    0.119671 0.771984 0.461568 0.228516
H10   H     H_    0.110665 0.712959 0.288781 0.243225
N5    N     N_R   0.946907 0.521176 0.226714 0.157735
O13   O     O_R   0.987186 0.595535 0.136523 -0.272901
O14   O     O_R   0.889396 0.440632 0.184216 -0.293267
N6    N     N_R   0.052932 0.479074 0.773306 0.156930
O15   O     O_R   0.010660 0.407978 0.864359 -0.270831
O16   O     O_R   0.111401 0.558345 0.815271 -0.295403
N7    N     N_R   0.585213 0.121513 0.269528 0.154364
O17   O     O_R   0.636668 0.215903 0.297587 -0.352300
O18   O     O_R   0.602363 0.060077 0.158289 -0.372962
N8    N     N_R   0.414801 0.878492 0.730474 0.154356
O19   O     O_R   0.363337 0.784114 0.702412 -0.352248
O20   O     O_R   0.397662 0.939923 0.841720 -0.373015
C31   C     C_3   0.462713 0.895799 0.231173 -0.263492
C32   C     C_3   0.369705 0.849474 0.242348 -0.724576
H11   H     H_    0.360017 0.766964 0.313059 0.241390
H12   H     H_    0.330844 0.924779 0.281168 0.266745
H13   H     H_    0.347339 0.822522 0.138030 0.271685
H14   H     H_    0.464375 0.972384 0.152050 0.271202
H15   H     H_    0.501733 0.823037 0.188230 0.219168
C33   C     C_3   0.537309 0.104202 0.768821 -0.263562
C34   C     C_3   0.630315 0.150532 0.757635 -0.724430
H16   H     H_    0.669179 0.075218 0.718849 0.266791
H17   H     H_    0.640002 0.233021 0.686894 0.241382
H18   H     H_    0.652678 0.177519 0.861942 0.271662
H19   H     H_    0.498290 0.176963 0.811769 0.219153
H20   H     H_    0.535651 0.027617 0.847944 0.271214
N9    N     N_R   0.392702 0.331112 0.157418 0.140405
O21   O     O_R   0.414875 0.216467 0.161148 -0.376201
O22   O     O_R   0.315912 0.353685 0.194251 -0.328114
N10   N     N_R   0.607302 0.668882 0.842583 0.140405
O23   O     O_R   0.585132 0.783528 0.838859 -0.376149
O24   O     O_R   0.684096 0.646310 0.805768 -0.328002
C35   C     C_3   0.370173 0.348539 0.865626 -0.372979
C36   C     C_3   0.287284 0.415127 0.869900 -0.601965
H21   H     H_    0.297941 0.515651 0.842097 0.278860
H22   H     H_    0.242655 0.371479 0.795418 0.232587
H23   H     H_    0.256633 0.407535 0.974137 0.292017
H24   H     H_    0.384317 0.323882 0.758694 0.241971
H25   H     H_    0.359860 0.256055 0.918408 0.234367
C37   C     C_3   0.629863 0.651394 0.134369 -0.372786
C38   C     C_3   0.712730 0.584733 0.130100 -0.601784
H26   H     H_    0.757390 0.628373 0.204538 0.232700
H27   H     H_    0.702045 0.484223 0.157952 0.278568
H28   H     H_    0.743363 0.592255 0.025846 0.292151
H29   H     H_    0.640213 0.743865 0.081571 0.234402
H30   H     H_    0.615716 0.676089 0.241292 0.241907

loop_
_geom_bond_atom_site_label_1
_geom_bond_atom_site_label_2
_geom_bond_distance
_ccdc_geom_bond_type
C17   C19   1.404366 A    
C8    C11   1.533858 S    
C31   H15   1.106120 S    
N3    O10   1.300051 A    
C30   H6    1.109126 S    
O5    C3    1.300136 A    
C28   H3    1.110352 S    
C3    C9    1.417949 S    
C7    C13   1.545247 S    
O1    C1    1.301403 A    
C18   N8    1.454548 S    
C14   C16   1.451098 S    
C8    N4    1.458458 S    
C31   H14   1.108586 S    
C27   H5    1.110839 S    
C37   H29   1.108979 S    
C24   N1    1.365922 A    
C7    N3    1.458507 S    
O4    Cu1   1.945257 S    
C23   N9    1.433426 S    
N6    O16   1.300198 A    
C35   H24   1.089882 S    
C33   H19   1.106109 S    
N8    O19   1.302076 A    
N7    O18   1.301250 A    
C6    C12   1.549811 S    
C8    C14   1.545218 S    
Cu1   N1    2.034758 S    
C1    C22   1.471789 S    
N9    O22   1.299676 A    
C2    C21   1.471788 S    
N5    O13   1.300063 A    
Cu1   Cu2   2.707618 S    
O2    C2    1.301400 A    
N4    O12   1.300054 A    
C32   H13   1.110700 S    
O2    Cu2   1.954066 S    
C30   H7    1.108955 S    
C29   H10   1.110493 S    
C28   H2    1.109200 S    
N5    O14   1.300224 A    
O4    C2    1.309642 A    
C12   N5    1.458632 S    
C34   H17   1.108253 S    
C33   C34   1.531807 S    
N9    O21   1.300550 A    
C36   H23   1.104949 S    
C20   C33   1.528839 S    
O7    Cu2   1.926529 S    
N6    O15   1.300257 A    
C17   N7    1.454550 S    
C33   H20   1.108585 S    
Cu2   N2    2.034758 S    
C38   H26   1.110732 S    
C5    C11   1.549471 S    
O6    C4    1.300114 A    
C4    C10   1.417870 S    
C36   H22   1.110735 S    
C24   N10   1.433425 S    
C35   H25   1.108978 S    
O7    C3    1.298056 A    
C11   N6    1.458459 S    
O3    Cu2   1.945259 S    
O8    C4    1.298038 A    
C32   H12   1.111110 S    
C5    C14   1.552951 S    
C38   H27   1.110236 S    
N10   O24   1.299678 A    
N7    O17   1.302074 A    
C6    C13   1.553120 S    
C11   C13   1.542637 S    
C12   C14   1.542652 S    
O1    Cu1   1.954067 S    
N4    O11   1.300312 A    
C5    C27   1.531339 S    
C35   C36   1.533483 S    
C29   C30   1.527450 S    
C30   H8    1.110344 S    
C5    C7    1.546562 S    
C28   H1    1.109024 S    
O6    Cu2   1.935628 S    
C25   N1    1.391830 A    
C17   C22   1.411155 A    
C18   C21   1.411159 A    
C6    C29   1.531459 S    
C32   H11   1.108259 S    
O3    C1    1.309639 A    
O8    Cu1   1.926529 S    
C34   H18   1.110691 S    
C7    C12   1.533993 S    
C18   C20   1.404363 A    
C31   C32   1.531809 S    
C19   C21   1.417325 A    
C20   C22   1.417316 A    
C10   C16   1.195481 T    
C27   H4    1.110507 S    
C37   H30   1.089927 S    
C26   N2    1.391835 A    
C36   H21   1.110240 S    
C23   C25   1.429436 A    
C24   C26   1.429434 A    
C13   C15   1.451199 S    
C9    C15   1.195529 T    
C29   H9    1.110838 S    
C34   H16   1.111102 S    
N3    O9    1.300303 A    
C27   C28   1.527347 S    
O5    Cu1   1.935630 S    
C38   H28   1.104954 S    
N10   O23   1.300549 A    
C6    C8    1.546716 S    
C37   C38   1.533572 S    
N8    O20   1.301248 A    
C23   N2    1.365922 A    
C26   C37   1.522688 S    
C19   C31   1.528843 S    
C25   C35   1.522675 S    
