data_mof_unit_48912.cif
_audit_creation_date              2013-03-05T15:57:48-0500
_audit_creation_method            fapswitch 2.2
_symmetry_space_group_name_H-M    P1
_symmetry_Int_Tables_number       1
_space_group_crystal_system       triclinic
_cell_length_a                    15.060574
_cell_length_b                    13.695902
_cell_length_c                    14.348751
_cell_angle_alpha                 90.054123
_cell_angle_beta                  88.866526
_cell_angle_gamma                 89.878583
_cell_volume                      2959.10303998

loop_
_atom_site_label
_atom_site_type_symbol
_atom_site_description
_atom_site_fract_x
_atom_site_fract_y
_atom_site_fract_z
_atom_type_partial_charge
O1    O     O_R   0.370260 0.582280 0.500020 -0.580400
O2    O     O_R   0.629740 0.417720 0.499980 -0.538397
O3    O     O_R   0.629740 0.582280 0.499980 -0.595747
O4    O     O_R   0.370260 0.417720 0.500020 -0.565974
C1    C     C_R   0.328866 0.500195 0.504730 0.895140
C2    C     C_R   0.671176 0.499904 0.492810 0.898424
O5    O     O_R   0.500000 0.582290 0.376050 -0.557910
O6    O     O_R   0.500000 0.417710 0.623950 -0.556727
O7    O     O_R   0.500000 0.582290 0.623950 -0.559523
O8    O     O_R   0.500000 0.417710 0.376050 -0.556396
C3    C     C_R   0.498997 0.500048 0.330932 0.855024
C4    C     C_R   0.500869 0.500092 0.669066 0.875627
Cu1   Cu    Cu3+1 0.500000 0.597420 0.500000 1.006983
Cu2   Cu    Cu3+1 0.500000 0.402580 0.500000 1.014118
C5    C     C_1   0.499023 0.500147 0.228657 -0.130407
C6    C     C_1   0.500745 0.500271 0.771343 -0.074867
C7    C     C_1   0.499301 0.500216 0.143289 0.045523
C8    C     C_1   0.500423 0.500335 0.856713 0.059916
C9    C     C_1   0.499686 0.500289 0.042693 0.061243
C10   C     C_1   0.500017 0.500332 0.957311 0.059332
C11   C     C_R   0.818269 0.485313 0.406157 0.383254
C12   C     C_R   0.182556 0.510703 0.590690 0.315457
C13   C     C_R   0.768014 0.500593 0.489459 -0.154244
C14   C     C_R   0.232357 0.501404 0.506723 -0.154323
C15   C     C_R   0.809708 0.524049 0.572342 -0.278046
C16   C     C_R   0.191077 0.499477 0.420972 -0.265694
C17   C     C_R   0.902228 0.528927 0.576941 0.131054
C18   C     C_R   0.098704 0.503663 0.415331 0.132750
C19   C     C_R   0.953616 0.514116 0.494563 -0.004938
C20   C     C_R   0.047300 0.514148 0.498420 0.001056
C21   C     C_R   0.911558 0.499047 0.408236 -0.035251
C22   C     C_R   0.089431 0.524355 0.585442 -0.024654
C23   C     C_R   0.944592 0.550892 0.661417 0.138873
C24   C     C_R   0.056613 0.500363 0.328357 0.133817
C25   C     C_R   0.037277 0.550051 0.663983 -0.085162
C26   C     C_R   0.964078 0.499681 0.326011 -0.080672
H1    H     H_    0.768418 0.536799 0.633838 0.155532
H2    H     H_    0.232556 0.493512 0.358679 0.152123
H3    H     H_    0.067925 0.572916 0.727614 0.215333
H4    H     H_    0.933927 0.501623 0.258498 0.216014
C27   C     C_R   0.438969 0.793073 0.553040 0.130943
C28   C     C_R   0.562794 0.206543 0.449603 0.125342
C29   C     C_R   0.561051 0.792750 0.447008 0.128884
C30   C     C_R   0.437287 0.207082 0.550765 0.135158
N1    N     N_R   0.500000 0.743810 0.500000 -0.226078
N2    N     N_R   0.500000 0.256190 0.500000 -0.222254
C31   C     C_R   0.562059 0.896174 0.443565 -0.141612
C32   C     C_R   0.433408 0.103622 0.550444 -0.142675
C33   C     C_R   0.437997 0.896503 0.556606 -0.146015
C34   C     C_R   0.566643 0.103178 0.449958 -0.147658
C35   C     C_R   0.500026 0.948166 0.500116 -0.013907
C36   C     C_R   0.500012 0.051550 0.500171 -0.013397
C37   C     C_R   0.624324 0.948304 0.387006 0.319495
C38   C     C_R   0.366210 0.051478 0.600308 0.327647
C39   C     C_R   0.375767 0.948949 0.613226 0.315473
C40   C     C_R   0.633886 0.050785 0.400057 0.310570
H5    H     H_    0.390098 0.750359 0.590714 0.204570
H6    H     H_    0.608565 0.248564 0.407723 0.219185
H7    H     H_    0.609939 0.749807 0.409293 0.198013
H8    H     H_    0.391800 0.249690 0.593040 0.186822
S1    S     S_3+6 0.766932 0.447071 0.300721 0.016730
O9    O     O_2   0.752148 0.535185 0.240603 -0.279748
O10   O     O_2   0.826170 0.375870 0.249140 -0.252915
O11   O     O_3   0.669825 0.391050 0.319795 -0.542168
H9    H     H_    0.653491 0.363711 0.258539 0.382615
S2    S     S_3+6 0.236953 0.497389 0.699779 0.019544
O12   O     O_2   0.276063 0.593940 0.726790 -0.227149
O13   O     O_2   0.175084 0.463147 0.776433 -0.269649
O14   O     O_3   0.318742 0.414538 0.690222 -0.538351
H10   H     H_    0.287915 0.352267 0.677893 0.386817
C41   C     C_3   0.892821 0.575419 0.749665 -0.794293
H11   H     H_    0.850703 0.512462 0.770767 0.239012
H12   H     H_    0.937042 0.592233 0.808588 0.248483
H13   H     H_    0.850361 0.640467 0.737949 0.239962
C42   C     C_3   0.108538 0.497306 0.237160 -0.789561
H14   H     H_    0.151893 0.562583 0.231252 0.236909
H15   H     H_    0.149744 0.430028 0.233678 0.243324
H16   H     H_    0.064483 0.496981 0.175960 0.249333
S3    S     S_3+6 0.681433 0.886972 0.293426 0.064821
O15   O     O_2   0.760714 0.834480 0.331280 -0.250539
O16   O     O_2   0.620782 0.813737 0.249584 -0.286993
O17   O     O_3   0.714669 0.965193 0.209544 -0.434822
H17   H     H_    0.755740 0.926976 0.168802 0.387390
S4    S     S_3+6 0.265800 0.112403 0.634959 0.048803
O18   O     O_2   0.279308 0.162000 0.727073 -0.254364
O19   O     O_2   0.241841 0.187793 0.563530 -0.318249
O20   O     O_3   0.180460 0.033818 0.644461 -0.432986
H18   H     H_    0.131013 0.072382 0.672492 0.388572
S5    S     S_3+6 0.318512 0.887771 0.706573 0.072538
O21   O     O_2   0.239580 0.835177 0.668428 -0.242214
O22   O     O_2   0.379374 0.814642 0.750550 -0.279842
O23   O     O_3   0.284597 0.966007 0.790414 -0.432482
H19   H     H_    0.247541 0.926383 0.833768 0.386599
S6    S     S_3+6 0.734086 0.111619 0.365116 0.076150
O24   O     O_2   0.719868 0.162133 0.273646 -0.228209
O25   O     O_2   0.758419 0.186385 0.437024 -0.279806
O26   O     O_3   0.819544 0.032943 0.354195 -0.438893
H20   H     H_    0.869087 0.071989 0.327399 0.389863

loop_
_geom_bond_atom_site_label_1
_geom_bond_atom_site_label_2
_geom_bond_distance
_ccdc_geom_bond_type
S2    O13   1.503401 D    
O20   H18   0.990647 S    
C17   C19   1.414219 A    
C40   S6    1.788573 S    
C9    C10   1.225039 T    
S4    O20   1.681705 S    
O3    C2    1.291183 A    
C28   H6    1.073983 S    
C38   S4    1.787297 S    
O26   H20   0.990590 S    
Cu2   N2    2.004943 S    
C17   C23   1.413347 A    
C32   C38   1.421811 A    
C11   C21   1.418810 A    
C12   C22   1.418017 A    
O1    C1    1.287850 A    
C37   S3    1.788159 S    
C14   C16   1.389750 A    
O14   H10   0.989363 S    
C23   C25   1.397129 A    
S2    O14   1.676535 S    
C28   N2    1.359757 A    
S1    O10   1.504495 D    
O7    Cu1   1.790753 S    
C12   S2    1.790313 S    
C15   H1    1.083201 S    
C3    C5    1.467511 S    
C4    C6    1.467513 S    
C33   C35   1.415734 A    
C34   C36   1.414726 A    
S5    O22   1.503898 D    
C11   S1    1.790920 S    
S1    O9    1.502830 D    
O3    Cu1   1.964488 S    
C29   H7    1.078273 S    
C24   C42   1.511606 S    
C31   C37   1.421817 A    
S2    O12   1.502379 D    
C18   C24   1.411595 A    
Cu1   Cu2   2.668508 S    
C19   C21   1.417475 A    
O2    C2    1.291360 A    
C27   C33   1.417485 A    
C42   H16   1.111053 S    
C30   N2    1.360670 A    
O5    C3    1.298900 A    
C35   C36   1.415942 A    
C20   C22   1.418687 A    
C22   C25   1.404971 A    
C26   H4    1.078304 S    
S4    O18   1.503092 D    
O8    Cu2   1.790754 S    
S3    O16   1.503848 D    
C16   H2    1.083228 S    
C31   C35   1.415777 A    
S6    O26   1.681660 S    
C33   C39   1.421361 A    
C34   C40   1.421426 A    
S1    O11   1.670850 S    
C25   H3    1.077717 S    
C42   H14   1.110515 S    
C19   C20   1.413113 A    
S3    O17   1.681600 S    
C42   H15   1.110366 S    
O5    Cu1   1.790366 S    
O6    C4    1.300502 A    
S5    O23   1.681422 S    
S6    O25   1.503990 D    
C29   N1    1.359693 A    
C28   C34   1.416767 A    
C11   C13   1.417184 A    
C12   C14   1.412060 A    
O1    Cu1   1.965362 S    
C41   H12   1.110834 S    
C37   C40   1.423808 A    
C5    C7    1.224853 T    
C38   C39   1.423942 A    
O6    Cu2   1.790364 S    
S4    O19   1.503949 D    
O4    C1    1.290102 A    
C41   H13   1.110398 S    
C15   C17   1.398001 A    
C16   C18   1.396211 A    
O11   H9    0.990749 S    
C18   C20   1.415652 A    
C27   H5    1.078368 S    
C41   H11   1.110295 S    
C39   S5    1.788620 S    
Cu1   N1    2.004943 S    
C1    C14   1.453246 S    
C30   H8    1.076571 S    
C2    C13   1.458327 S    
O23   H19   0.990523 S    
C7    C9    1.443328 S    
C24   C26   1.394752 A    
C8    C10   1.443351 S    
C13   C15   1.393393 A    
O4    Cu2   1.964488 S    
S6    O24   1.503096 D    
O2    Cu2   1.965362 S    
O7    C4    1.299331 A    
O8    C3    1.301046 A    
C23   C41   1.511018 S    
S3    O15   1.503430 D    
C32   C36   1.415106 A    
C6    C8    1.224866 T    
O17   H17   0.990992 S    
C27   N1    1.359412 A    
C21   C26   1.407425 A    
S5    O21   1.503393 D    
C29   C31   1.417492 A    
C30   C32   1.418315 A    
