data_mof_unit_49951.cif
_audit_creation_date              2012-12-11T14:29:47-0500
_audit_creation_method            fapswitch 2.2
_symmetry_space_group_name_H-M    P1
_symmetry_Int_Tables_number       1
_space_group_crystal_system       triclinic
_cell_length_a                    6.940016
_cell_length_b                    14.735291
_cell_length_c                    16.276656
_cell_angle_alpha                 90.539858
_cell_angle_beta                  90.164902
_cell_angle_gamma                 89.405374
_cell_volume                      1664.33224571

loop_
_atom_site_label
_atom_site_type_symbol
_atom_type_description
_atom_site_fract_x
_atom_site_fract_y
_atom_site_fract_z
_atom_type_partial_charge
O1    O     O_R   0.494400 0.416610 0.413880 -0.544204
O2    O     O_R   0.823920 0.406790 0.585520 -0.544104
O3    O     O_R   0.994250 0.583390 0.586120 -0.533485
C1    C     C_R   0.656447 0.387225 0.614554 0.743753
O4    O     O_R   0.824110 0.405730 0.414490 -0.544282
O5    O     O_R   0.994440 0.582310 0.413870 -0.528151
C2    C     C_R   0.655166 0.383641 0.386342 0.741805
O6    O     O_R   0.494210 0.417690 0.586130 -0.536268
O7    O     O_3   0.660810 0.557940 0.500000 -0.360416
V1    V     V_3+5 0.935650 0.489250 0.500000 1.472304
O8    O     O_R   0.324160 0.593210 0.414480 -0.547642
C3    C     C_R   0.155151 0.614044 0.385644 0.752733
O9    O     O_R   0.323970 0.594270 0.585510 -0.539294
C4    C     C_R   0.153185 0.618913 0.611745 0.699727
V2    V     V_3+5 0.435660 0.510750 0.500000 1.468085
O10   O     O_3   0.160630 0.442060 0.500000 -0.373251
C5    C     C_R   0.123330 0.562303 0.780587 -0.156363
C6    C     C_R   0.106942 0.532079 0.861134 -0.156250
C7    C     C_R   0.092611 0.594277 0.925891 0.012932
C8    C     C_R   0.096112 0.687254 0.910207 -0.176098
C9    C     C_R   0.113344 0.719766 0.829088 0.059690
C10   C     C_R   0.125536 0.656105 0.762761 0.068098
C11   C     C_R   0.124550 0.814024 0.813734 -0.156516
C12   C     C_R   0.148309 0.844346 0.731992 0.056904
C13   C     C_R   0.130594 0.782094 0.664996 0.024928
C14   C     C_R   0.135811 0.686808 0.680400 -0.170455
C15   C     C_R   0.185401 0.936562 0.715451 -0.200149
C16   C     C_R   0.197668 0.967626 0.634879 -0.043248
C17   C     C_R   0.150172 0.909532 0.569412 -0.067262
C18   C     C_R   0.102904 0.818631 0.585155 -0.102783
H1    H     H_    0.104986 0.459808 0.872841 0.132787
H2    H     H_    0.086932 0.733668 0.962096 0.097207
C19   C     C_2   0.985922 0.707529 0.280296 -0.080577
C20   C     C_2   0.149835 0.681434 0.318564 -0.279470
C21   C     C_2   0.974418 0.775242 0.212571 -0.110716
C22   C     C_2   0.127607 0.814241 0.176863 -0.288246
H3    H     H_    0.830621 0.793000 0.191215 0.135212
H4    H     H_    0.272698 0.797064 0.196254 0.131758
C23   C     C_2   0.764745 0.199968 0.773362 -0.163302
C24   C     C_2   0.602978 0.176464 0.813932 -0.206456
H5    H     H_    0.899899 0.167524 0.790481 0.166849
C25   C     C_2   0.772981 0.261188 0.700960 -0.100418
C26   C     C_2   0.648476 0.330121 0.687545 -0.272548
H6    H     H_    0.889913 0.249337 0.657807 0.163849
C27   C     C_2   0.778878 0.208757 0.213711 -0.110746
C28   C     C_2   0.613447 0.181838 0.177473 -0.299528
H7    H     H_    0.914775 0.179912 0.192543 0.140877
H8    H     H_    0.475768 0.209960 0.196473 0.130824
C29   C     C_2   0.791910 0.277182 0.281635 -0.116223
C30   C     C_2   0.638818 0.315376 0.319624 -0.290581
H9    H     H_    0.493726 0.297102 0.301953 0.132953
O11   O     O_R   0.770210 0.079270 0.910680 -0.538774
O12   O     O_R   0.440150 0.091160 0.082270 -0.544089
O13   O     O_R   0.269970 0.914530 0.082860 -0.541909
C31   C     C_R   0.608513 0.113282 0.110519 0.749260
O14   O     O_R   0.440480 0.090100 0.911240 -0.544654
O15   O     O_R   0.270310 0.913460 0.910610 -0.539515
C32   C     C_R   0.607273 0.111056 0.882504 0.699056
O16   O     O_R   0.769870 0.080340 0.082930 -0.538678
O17   O     O_3   0.603660 0.938980 0.996790 -0.370734
V3    V     V_3+5 0.328750 0.007610 0.996740 1.433700
O18   O     O_R   0.940600 0.902510 0.911180 -0.538496
C33   C     C_R   0.110442 0.881093 0.882610 0.693760
O19   O     O_R   0.940270 0.903570 0.082200 -0.542395
C34   C     C_R   0.110153 0.881766 0.110231 0.737789
V4    V     V_3+5 0.828770 0.986010 0.996670 1.437508
O20   O     O_3   0.103730 0.054750 0.996710 -0.372475
C35   C     C_1   0.140779 0.944199 0.486250 0.319249
N1    N     N_1   0.133288 0.971726 0.419941 -0.342021
H10   H     H_    0.287031 0.709551 0.301010 0.128123
C36   C     C_1   0.413246 0.208618 0.789231 0.353913
N2    N     N_1   0.261313 0.234315 0.770574 -0.382664
H11   H     H_    0.538598 0.348535 0.731687 0.140462
H12   H     H_    0.935959 0.296054 0.301132 0.138385
H13   H     H_    0.132994 0.511187 0.732559 0.117106
C37   C     C_1   0.075528 0.562742 0.009029 0.287681
N3    N     N_1   0.061800 0.537535 0.075865 -0.356381
H14   H     H_    0.208841 0.984927 0.764910 0.117556
C38   C     C_1   0.246822 0.061183 0.620381 0.304495
N4    N     N_1   0.286243 0.135853 0.607716 -0.336250
C39   C     C_1   0.976264 0.774567 0.526909 0.280828
N5    N     N_1   0.868971 0.742559 0.480857 -0.327531
H15   H     H_    0.850231 0.678638 0.299624 0.143451

loop_
_geom_bond_atom_site_label_1
_geom_bond_atom_site_label_2
_ccdc_geom_bond_type
C26   H11   S    
C24   C36   S    
C31   O16   A    
C7    C8    A    
C12   C15   A    
C1    O6    A    
C15   H14   S    
C39   N5    T    
C23   H5    S    
O13   C34   A    
C27   C28   D    
C17   C18   A    
C16   C17   A    
C21   H3    S    
O16   V4    S    
O5    C3    A    
V2    O10   S    
O12   V3    S    
C5    C6    A    
C6    C7    A    
C27   H7    S    
C16   C38   S    
O8    V2    S    
C21   C22   D    
C35   N1    T    
C28   C31   S    
C11   C12   A    
O1    V2    S    
O7    V1    S    
C20   H10   S    
C11   C33   S    
V4    O20   S    
O17   V4    S    
O9    C4    A    
C25   H6    S    
O15   C33   A    
C23   C25   S    
O12   C31   A    
C9    C11   A    
C28   H8    S    
C24   C32   S    
O18   V4    S    
C12   C13   A    
C23   C24   D    
O4    C2    A    
C22   C34   S    
C30   H9    S    
C13   C14   A    
C4    C14   S    
O17   V3    S    
O19   V4    S    
O2    C1    A    
O18   C33   A    
C17   C35   S    
V3    O20   S    
C27   C29   S    
C19   C20   D    
O14   V3    S    
C37   N3    T    
C19   H15   S    
O3    C4    A    
O11   C32   A    
O13   V3    S    
O6    V2    S    
O9    V2    S    
C25   C26   D    
C3    C20   S    
O2    V1    S    
O11   V4    S    
C8    H2    S    
C13   C18   A    
C7    C37   S    
O1    C2    A    
C2    C30   S    
O5    V1    S    
O8    C3    A    
O15   V3    S    
C1    C26   S    
C5    C10   A    
O19   C34   A    
C18   C39   S    
C22   H4    S    
O7    V2    S    
C36   N2    T    
O3    V1    S    
V1    O10   S    
C19   C21   S    
O14   C32   A    
C38   N4    T    
O4    V1    S    
C8    C9    A    
C29   C30   D    
C10   C14   A    
C15   C16   A    
C5    H13   S    
C29   H12   S    
C6    H1    S    
C9    C10   A    
