data_mof_unit_46740.cif
_audit_creation_date              2013-03-05T15:48:35-0500
_audit_creation_method            fapswitch 2.2
_symmetry_space_group_name_H-M    P1
_symmetry_Int_Tables_number       1
_space_group_crystal_system       triclinic
_cell_length_a                    16.657442
_cell_length_b                    16.641743
_cell_length_c                    43.162467
_cell_angle_alpha                 89.924414
_cell_angle_beta                  90.111759
_cell_angle_gamma                 120.006904
_cell_volume                      10361.2686293

loop_
_atom_site_label
_atom_site_type_symbol
_atom_site_description
_atom_site_fract_x
_atom_site_fract_y
_atom_site_fract_z
_atom_type_partial_charge
O1    O     O_R   0.509640 0.171340 0.784000 -0.446418
O2    O     O_R   0.661700 0.490360 0.716000 -0.442118
O3    O     O_R   0.828660 0.338300 0.784000 -0.446215
O4    O     O_R   0.509640 0.171340 0.716000 -0.433240
O5    O     O_R   0.661700 0.490360 0.784000 -0.446162
O6    O     O_R   0.828660 0.338300 0.716000 -0.441772
O7    O     O_R   0.171340 0.509640 0.284000 -0.438792
O8    O     O_R   0.490360 0.661700 0.216000 -0.445935
O9    O     O_R   0.338300 0.828660 0.284000 -0.431739
O10   O     O_R   0.171340 0.509640 0.216000 -0.446016
O11   O     O_R   0.490360 0.661700 0.284000 -0.442941
O12   O     O_R   0.338300 0.828660 0.216000 -0.446670
O13   O     O_R   0.539230 0.345420 0.781810 -0.493190
O14   O     O_R   0.806190 0.460770 0.718190 -0.497218
O15   O     O_R   0.654580 0.193810 0.781810 -0.493994
O16   O     O_R   0.539230 0.345420 0.718190 -0.497142
O17   O     O_R   0.806190 0.460770 0.781810 -0.493377
O18   O     O_R   0.654580 0.193810 0.718190 -0.505173
O19   O     O_R   0.345420 0.539230 0.281810 -0.493842
O20   O     O_R   0.460770 0.806190 0.218190 -0.494451
O21   O     O_R   0.193810 0.654580 0.281810 -0.500382
O22   O     O_R   0.345420 0.539230 0.218190 -0.493611
O23   O     O_R   0.460770 0.806190 0.281810 -0.505282
O24   O     O_R   0.193810 0.654580 0.218190 -0.494360
C1    C     C_R   0.583653 0.426296 0.794325 0.584655
C2    C     C_R   0.842192 0.416134 0.705426 0.586055
C3    C     C_R   0.573765 0.157307 0.794329 0.582849
C4    C     C_R   0.583766 0.426314 0.705410 0.580657
C5    C     C_R   0.842711 0.416400 0.794332 0.585214
C6    C     C_R   0.573505 0.157047 0.705476 0.575887
C7    C     C_R   0.426486 0.583663 0.294488 0.583625
C8    C     C_R   0.416324 0.842684 0.205673 0.582611
C9    C     C_R   0.156242 0.573180 0.294242 0.577697
C10   C     C_R   0.426189 0.583606 0.205648 0.585152
C11   C     C_R   0.416719 0.843234 0.294464 0.577581
C12   C     C_R   0.157258 0.573728 0.205673 0.583408
Cr1   Cr    Cr6+3 0.530290 0.262330 0.750000 1.154981
Cr2   Cr    Cr6+3 0.732040 0.469710 0.750000 1.152444
Cr3   Cr    Cr6+3 0.737670 0.267960 0.750000 1.146748
Cr4   Cr    Cr6+3 0.262330 0.530290 0.250000 1.155450
Cr5   Cr    Cr6+3 0.469710 0.732040 0.250000 1.146788
Cr6   Cr    Cr6+3 0.267960 0.737670 0.250000 1.153075
O25   O     O_3   0.666667 0.333333 0.750000 -0.316034
O26   O     O_3   0.333333 0.666667 0.250000 -0.314533
C13   C     C_R   0.885565 0.446671 0.824989 -0.055667
C14   C     C_R   0.558568 0.108061 0.675442 -0.064764
C15   C     C_R   0.553414 0.438890 0.824951 -0.055570
C16   C     C_R   0.885311 0.446369 0.674593 -0.060740
C17   C     C_R   0.561244 0.114246 0.824955 -0.055368
C18   C     C_R   0.551529 0.441402 0.675098 -0.071039
C19   C     C_R   0.451825 0.893607 0.324248 -0.063528
C20   C     C_R   0.114256 0.561252 0.175042 -0.055553
C21   C     C_R   0.442752 0.551289 0.324545 -0.060036
C22   C     C_R   0.446538 0.885700 0.175041 -0.055291
C23   C     C_R   0.101983 0.555649 0.323093 -0.071434
C24   C     C_R   0.438422 0.553479 0.174929 -0.055584
C25   C     C_R   0.008145 0.578668 0.032698 -0.004683
C26   C     C_R   0.556978 0.072553 0.463126 0.062877
C27   C     C_R   0.420405 0.430772 0.032494 -0.005109
C28   C     C_R   0.068289 0.589068 0.469888 0.011179
C29   C     C_R   0.569731 0.991690 0.032812 -0.004708
C30   C     C_R   0.499567 0.426409 0.462033 -0.005370
C31   C     C_R   0.568181 0.100521 0.528153 0.053989
C32   C     C_R   0.991303 0.570096 0.967267 -0.004734
C33   C     C_R   0.525232 0.412714 0.526418 0.005557
C34   C     C_R   0.578317 0.008480 0.967376 -0.004827
C35   C     C_R   0.027537 0.573857 0.534022 0.003181
C36   C     C_R   0.429599 0.421810 0.967110 -0.004939
C37   C     C_R   0.012102 0.578739 0.065368 0.477055
C38   C     C_R   0.550991 0.056528 0.430796 0.551491
C39   C     C_R   0.420132 0.434846 0.065158 0.477004
C40   C     C_R   0.093372 0.593509 0.438484 0.485173
C41   C     C_R   0.565710 0.987798 0.065480 0.476829
C42   C     C_R   0.477885 0.433626 0.430795 0.492314
C43   C     C_R   0.567640 0.112247 0.560556 0.503045
C44   C     C_R   0.987397 0.566082 0.934600 0.476968
C45   C     C_R   0.541741 0.409533 0.558393 0.485722
C46   C     C_R   0.578380 0.012375 0.934702 0.476888
C47   C     C_R   0.011834 0.563705 0.566315 0.496763
C48   C     C_R   0.433928 0.421580 0.934452 0.476948
O27   O     O_2   0.000479 0.634173 0.080449 -0.416128
O28   O     O_2   0.589317 0.121341 0.412679 -0.355756
O29   O     O_2   0.364605 0.367857 0.080271 -0.415864
O30   O     O_2   0.162898 0.662017 0.428939 -0.396308
O31   O     O_2   0.632719 0.999632 0.080683 -0.416229
O32   O     O_2   0.437908 0.364480 0.414567 -0.422662
O33   O     O_2   0.594471 0.189137 0.571600 -0.404224
O34   O     O_2   0.999255 0.633170 0.919418 -0.416103
O35   O     O_2   0.550165 0.345785 0.568676 -0.390420
O36   O     O_2   0.633644 0.000531 0.919644 -0.416212
O37   O     O_2   0.049236 0.631034 0.583448 -0.415989
O38   O     O_2   0.367026 0.366225 0.919251 -0.416325
N1    N     N_R   0.029499 0.516329 0.080630 -0.351076
N2    N     N_R   0.502193 0.967614 0.419302 -0.365277
N3    N     N_R   0.482530 0.514687 0.080376 -0.351057
N4    N     N_R   0.044176 0.517790 0.419195 -0.370020
N5    N     N_R   0.485841 0.970238 0.080600 -0.351095
N6    N     N_R   0.498908 0.518440 0.418580 -0.348731
N7    N     N_R   0.535548 0.036942 0.580093 -0.356115
N8    N     N_R   0.969809 0.486130 0.919456 -0.351149
N9    N     N_R   0.555901 0.482100 0.577613 -0.360654
N10   N     N_R   0.516144 0.029927 0.919412 -0.351045
N11   N     N_R   0.954955 0.477416 0.578903 -0.342694
N12   N     N_R   0.513944 0.483793 0.919338 -0.351064
C49   C     C_R   0.028591 0.443657 0.065029 0.533810
C50   C     C_R   0.458589 0.892073 0.438732 0.510428
C51   C     C_R   0.555173 0.586393 0.064740 0.533815
C52   C     C_R   0.008563 0.431780 0.433385 0.531452
C53   C     C_R   0.414109 0.970901 0.064846 0.533786
C54   C     C_R   0.542170 0.598244 0.436143 0.536269
C55   C     C_R   0.495741 0.947987 0.568659 0.538272
C56   C     C_R   0.970390 0.414279 0.935181 0.533755
C57   C     C_R   0.601884 0.569232 0.563977 0.538803
C58   C     C_R   0.443657 0.029266 0.934996 0.533867
C59   C     C_R   0.918857 0.398297 0.561048 0.518162
C60   C     C_R   0.585665 0.556279 0.935054 0.533670
O39   O     O_2   0.045870 0.390548 0.079220 -0.349851
O40   O     O_2   0.411146 0.815035 0.427438 -0.389285
O41   O     O_2   0.608188 0.656879 0.078868 -0.349835
O42   O     O_2   0.007954 0.367669 0.419558 -0.324373
O43   O     O_2   0.343652 0.953449 0.078906 -0.349717
O44   O     O_2   0.558771 0.671761 0.424383 -0.354514
O45   O     O_2   0.472400 0.883586 0.586756 -0.369517
O46   O     O_2   0.952959 0.343777 0.921087 -0.349797
O47   O     O_2   0.659106 0.635678 0.578782 -0.323322
O48   O     O_2   0.390686 0.046659 0.920786 -0.349645
O49   O     O_2   0.865435 0.323614 0.572886 -0.390219
O50   O     O_2   0.656273 0.609135 0.921005 -0.350049
C61   C     C_R   0.010587 0.432287 0.032808 -0.007097
C62   C     C_R   0.467604 0.903572 0.471250 0.022725
C63   C     C_R   0.566715 0.579537 0.032558 -0.007332
C64   C     C_R   0.982606 0.420349 0.465011 -0.007667
C65   C     C_R   0.420871 0.988869 0.032616 -0.007162
C66   C     C_R   0.564190 0.594685 0.467624 0.010722
C67   C     C_R   0.483175 0.931681 0.536374 0.011477
C68   C     C_R   0.988255 0.420971 0.967416 -0.007058
C69   C     C_R   0.590324 0.579934 0.531990 -0.006363
C70   C     C_R   0.432295 0.011341 0.967223 -0.007104
C71   C     C_R   0.941861 0.403710 0.529306 -0.003198
C72   C     C_R   0.578691 0.567786 0.967234 -0.007190
C73   C     C_R   0.004470 0.502935 0.016407 -0.103114
C74   C     C_R   0.516054 0.995049 0.483450 -0.104730
C75   C     C_R   0.496256 0.502631 0.016193 -0.103377
C76   C     C_R   0.012418 0.500716 0.483345 -0.107728
C77   C     C_R   0.497745 0.995190 0.016367 -0.103140
C78   C     C_R   0.537226 0.506880 0.480942 -0.103870
C79   C     C_R   0.522615 0.009078 0.515993 -0.092998
C80   C     C_R   0.994669 0.497959 0.983688 -0.103119
C81   C     C_R   0.549108 0.499610 0.513177 -0.106817
C82   C     C_R   0.502749 0.005008 0.983647 -0.103153
C83   C     C_R   0.993070 0.492727 0.515525 -0.099683
C84   C     C_R   0.501549 0.497453 0.983503 -0.103261
C85   C     C_R   0.006357 0.651133 0.015914 0.308460
C86   C     C_R   0.603261 0.163811 0.475366 0.341954
C87   C     C_R   0.348085 0.356432 0.015730 0.308310
C88   C     C_R   0.099076 0.669951 0.488232 0.331761
C89   C     C_R   0.644054 0.993582 0.016178 0.308476
C90   C     C_R   0.481817 0.340780 0.475274 0.301199
C91   C     C_R   0.611011 0.177561 0.507671 0.298930
C92   C     C_R   0.993351 0.644561 0.983923 0.308506
C93   C     C_R   0.489312 0.332903 0.507225 0.324523
C94   C     C_R   0.650624 0.006536 0.984186 0.308276
C95   C     C_R   0.078300 0.662403 0.519769 0.321537
C96   C     C_R   0.354961 0.349636 0.983782 0.308350
C97   C     C_R   0.003446 0.355176 0.016387 0.186301
C98   C     C_R   0.427368 0.826630 0.491820 0.233953
C99   C     C_R   0.643905 0.649345 0.016132 0.186599
C100  C     C_R   0.932124 0.331496 0.478940 0.199386
C101  C     C_R   0.350949 0.995796 0.016036 0.186539
C102  C     C_R   0.610477 0.675726 0.486278 0.208602
C103  C     C_R   0.434194 0.840635 0.523979 0.219010
C104  C     C_R   0.994967 0.350858 0.983976 0.186439
C105  C     C_R   0.621955 0.668189 0.518249 0.200855
C106  C     C_R   0.355369 0.004448 0.983630 0.186660
C107  C     C_R   0.913958 0.323162 0.510938 0.181673
C108  C     C_R   0.648615 0.644758 0.983754 0.186730
C109  C     C_R   0.001033 0.467440 0.135477 0.282108
C110  C     C_R   0.434632 0.973105 0.369287 0.272724
C111  C     C_R   0.531998 0.534855 0.135183 0.282107
C112  C     C_R   0.004432 0.452825 0.364389 0.284471
C113  C     C_R   0.465245 0.998655 0.135424 0.281999
C114  C     C_R   0.548428 0.553894 0.364474 0.273227
C115  C     C_R   0.462359 0.030499 0.630053 0.281548
C116  C     C_R   0.998390 0.465611 0.864665 0.282258
C117  C     C_R   0.561462 0.542386 0.632340 0.289665
C118  C     C_R   0.467229 0.001303 0.864537 0.281955
C119  C     C_R   0.977566 0.438914 0.631907 0.284830
C120  C     C_R   0.534556 0.532919 0.864500 0.282103
C121  C     C_R   0.031454 0.480101 0.166769 0.173199
C122  C     C_R   0.413503 0.944152 0.338007 0.173441
C123  C     C_R   0.519540 0.552146 0.166515 0.172984
C124  C     C_R   0.039933 0.465085 0.333832 0.168826
C125  C     C_R   0.447718 0.968312 0.166725 0.173781
C126  C     C_R   0.531979 0.569219 0.333385 0.177227
C127  C     C_R   0.469863 0.057991 0.661484 0.173847
C128  C     C_R   0.968148 0.448020 0.833353 0.172857
C129  C     C_R   0.577130 0.530844 0.663968 0.168146
C130  C     C_R   0.479933 0.031607 0.833231 0.173785
C131  C     C_R   0.952530 0.425218 0.663657 0.172637
C132  C     C_R   0.552091 0.520212 0.833218 0.173156
C133  C     C_R   0.165796 0.627771 0.152551 -0.162642
C134  C     C_R   0.517023 0.880734 0.340918 -0.163291
C135  C     C_R   0.371749 0.538727 0.152491 -0.162960
C136  C     C_R   0.113985 0.631172 0.340882 -0.158839
C137  C     C_R   0.461519 0.834194 0.152570 -0.162668
C138  C     C_R   0.370870 0.515466 0.346386 -0.163671
C139  C     C_R   0.636877 0.122269 0.658733 -0.164001
C140  C     C_R   0.834000 0.461627 0.847421 -0.162745
C141  C     C_R   0.498984 0.365007 0.655872 -0.164178
C142  C     C_R   0.627778 0.165764 0.847464 -0.162787
C143  C     C_R   0.846379 0.483190 0.654156 -0.164615
C144  C     C_R   0.538474 0.372329 0.847459 -0.162559
C145  C     C_R   0.140149 0.612930 0.121433 0.220923
C146  C     C_R   0.539183 0.909863 0.371685 0.189561
C147  C     C_R   0.386351 0.528353 0.121329 0.221185
C148  C     C_R   0.079235 0.618046 0.371083 0.205069
C149  C     C_R   0.471952 0.859680 0.121445 0.220676
C150  C     C_R   0.387141 0.503794 0.377519 0.203722
C151  C     C_R   0.630257 0.094637 0.627815 0.186482
C152  C     C_R   0.859424 0.472188 0.878558 0.220625
C153  C     C_R   0.485777 0.377278 0.624550 0.202418
C154  C     C_R   0.612825 0.140322 0.878594 0.220561
C155  C     C_R   0.867313 0.492912 0.622550 0.199724
C156  C     C_R   0.527919 0.387223 0.878573 0.221070
C157  C     C_R   0.057202 0.532222 0.112788 0.233647
C158  C     C_R   0.494264 0.952483 0.386257 0.215100
C159  C     C_R   0.467001 0.526363 0.112565 0.234086
C160  C     C_R   0.043289 0.529220 0.385193 0.198678
C161  C     C_R   0.473949 0.942522 0.112761 0.233584
C162  C     C_R   0.477323 0.524898 0.386579 0.223985
C163  C     C_R   0.542782 0.052184 0.613121 0.219761
C164  C     C_R   0.942215 0.474278 0.887285 0.233616
C165  C     C_R   0.535873 0.467717 0.611255 0.205795
C166  C     C_R   0.532034 0.057504 0.887242 0.233507
C167  C     C_R   0.932526 0.469375 0.611405 0.227630
C168  C     C_R   0.525864 0.468021 0.887199 0.233812
H1    H     H_    0.769075 0.457523 0.840980 0.158979
H2    H     H_    0.704742 0.158709 0.669447 0.202026
H3    H     H_    0.542555 0.311440 0.841095 0.159031
H4    H     H_    0.793383 0.497508 0.662407 0.183109
H5    H     H_    0.688650 0.230729 0.841088 0.159167
H6    H     H_    0.468777 0.295322 0.665134 0.204834
H7    H     H_    0.548331 0.844085 0.330331 0.201185
H8    H     H_    0.230852 0.688555 0.158932 0.158951
H9    H     H_    0.303000 0.503311 0.339617 0.183745
H10   H     H_    0.457515 0.769234 0.158969 0.159166
H11   H     H_    0.150509 0.700639 0.331315 0.208898
H12   H     H_    0.310987 0.542794 0.158956 0.158791
N13   N     N_R   0.995360 0.275323 0.968092 0.147324
O51   O     O_R   0.066104 0.290895 0.951067 -0.168412
O52   O     O_R   0.930928 0.190270 0.973560 -0.182974
N14   N     N_R   0.388008 0.760984 0.543820 0.144993
O53   O     O_R   0.412180 0.697764 0.543624 -0.211434
O54   O     O_R   0.313648 0.745374 0.558670 -0.192690
N15   N     N_R   0.724405 0.720400 0.967859 0.147303
O55   O     O_R   0.709294 0.775661 0.950596 -0.168155
O56   O     O_R   0.809226 0.740734 0.973548 -0.183096
N16   N     N_R   0.871353 0.232418 0.524748 0.137467
O57   O     O_R   0.918416 0.211943 0.544116 -0.146969
O58   O     O_R   0.791516 0.166777 0.514803 -0.267932
N17   N     N_R   0.279591 0.004047 0.967592 0.147442
O59   O     O_R   0.224520 0.933265 0.950483 -0.168450
O60   O     O_R   0.258991 0.068500 0.972996 -0.183655
N18   N     N_R   0.664473 0.751186 0.536637 0.143913
O61   O     O_R   0.615561 0.766169 0.556840 -0.174961
O62   O     O_R   0.749778 0.815258 0.531382 -0.176486
N19   N     N_R   0.378827 0.732962 0.480463 0.154756
O63   O     O_R   0.291183 0.679742 0.486545 -0.236484
O64   O     O_R   0.424897 0.696853 0.468232 -0.213809
N20   N     N_R   0.002523 0.279082 0.032418 0.147287
O65   O     O_R   0.931727 0.224352 0.049533 -0.168766
O66   O     O_R   0.066508 0.257889 0.027024 -0.182249
N21   N     N_R   0.648461 0.766732 0.472952 0.156237
O67   O     O_R   0.717893 0.796622 0.453835 -0.165665
O68   O     O_R   0.622798 0.824054 0.483064 -0.226329
N22   N     N_R   0.275508 0.996253 0.031896 0.147221
O69   O     O_R   0.291133 0.067001 0.048988 -0.168833
O70   O     O_R   0.190509 0.931906 0.026339 -0.182756
N23   N     N_R   0.897380 0.248634 0.460672 0.146343
O71   O     O_R   0.833049 0.229172 0.440078 -0.191500
O72   O     O_R   0.926080 0.190061 0.465800 -0.156117
N24   N     N_R   0.719687 0.724822 0.032127 0.147103
O73   O     O_R   0.774440 0.709098 0.049424 -0.168502
O74   O     O_R   0.740698 0.809934 0.026477 -0.182635
O75   O     O_3   0.982807 0.712912 0.969695 -0.496281
H13   H     H_    0.927926 0.681455 0.955941 0.388334
O76   O     O_3   0.663481 0.267142 0.518541 -0.638448
H14   H     H_    0.708727 0.267432 0.533544 0.383820
O77   O     O_3   0.286725 0.270627 0.969613 -0.496434
H15   H     H_    0.318213 0.246931 0.956047 0.388303
O78   O     O_3   0.105593 0.743831 0.535678 -0.535049
H16   H     H_    0.050275 0.736697 0.546730 0.370929
O79   O     O_3   0.729558 0.017156 0.970114 -0.496352
H17   H     H_    0.753005 0.072031 0.956350 0.388354
O80   O     O_3   0.459266 0.245095 0.518825 -0.567807
H18   H     H_    0.424357 0.238303 0.538129 0.388892
O81   O     O_3   0.642275 0.238691 0.455198 -0.598340
H19   H     H_    0.665896 0.297874 0.466568 0.368109
O82   O     O_3   0.017184 0.730221 0.030012 -0.496360
H20   H     H_    0.072060 0.753618 0.043768 0.388245
O83   O     O_3   0.454696 0.262055 0.457785 -0.554292
H21   H     H_    0.497533 0.280179 0.439900 0.373522
O84   O     O_3   0.712253 0.982898 0.030426 -0.496236
H22   H     H_    0.680751 0.928005 0.044172 0.388196
O85   O     O_3   0.145298 0.758283 0.475866 -0.552091
H23   H     H_    0.116838 0.756822 0.455553 0.383645
O86   O     O_3   0.268846 0.288424 0.029805 -0.496386
H24   H     H_    0.245564 0.320176 0.043431 0.387913
N25   N     N_R   0.798782 0.477359 0.901148 0.114874
O87   O     O_R   0.784865 0.435583 0.927750 -0.252358
O88   O     O_R   0.749156 0.515019 0.893853 -0.277185
N26   N     N_R   0.712964 0.112377 0.611432 0.130205
O89   O     O_R   0.708474 0.061303 0.587956 -0.207107
O90   O     O_R   0.794288 0.174302 0.621660 -0.221655
N27   N     N_R   0.522707 0.321339 0.901244 0.115474
O91   O     O_R   0.564219 0.349159 0.927888 -0.252343
O92   O     O_R   0.485259 0.234031 0.893998 -0.276935
N28   N     N_R   0.819530 0.523625 0.602070 0.108095
O93   O     O_R   0.785411 0.573374 0.612760 -0.262233
O94   O     O_R   0.801655 0.494885 0.573525 -0.296347
N29   N     N_R   0.678623 0.201017 0.901257 0.114957
O95   O     O_R   0.650775 0.215018 0.927802 -0.252385
O96   O     O_R   0.765895 0.250659 0.894070 -0.276959
N30   N     N_R   0.414422 0.299818 0.607707 0.122894
O97   O     O_R   0.361560 0.312485 0.588433 -0.269759
O98   O     O_R   0.394289 0.215460 0.614369 -0.231324
N31   N     N_R   0.604855 0.893050 0.388127 0.135474
O99   O     O_R   0.623916 0.830590 0.378261 -0.220193
O100  O     O_R   0.652023 0.945148 0.411369 -0.202185
N32   N     N_R   0.200747 0.678742 0.098781 0.115165
O101  O     O_R   0.214401 0.650841 0.072186 -0.252453
O102  O     O_R   0.250602 0.766063 0.106013 -0.277117
N33   N     N_R   0.312369 0.473499 0.399542 0.126546
O103  O     O_R   0.226697 0.431382 0.390018 -0.249102
O104  O     O_R   0.328732 0.493739 0.428817 -0.236052
N34   N     N_R   0.477113 0.799045 0.098817 0.114705
O105  O     O_R   0.435265 0.785083 0.072222 -0.252672
O106  O     O_R   0.514850 0.749452 0.106071 -0.277559
N35   N     N_R   0.071341 0.691598 0.385589 0.121624
O107  O     O_R   0.999803 0.672089 0.402820 -0.287103
O108  O     O_R   0.128765 0.777880 0.378590 -0.217392
N36   N     N_R   0.320302 0.523231 0.098757 0.115339
O109  O     O_R   0.347823 0.565001 0.072153 -0.252007
O110  O     O_R   0.233105 0.485423 0.106048 -0.277500
N37   N     N_R   0.980035 0.410533 0.189728 0.088587
O111  O     O_R   0.962343 0.433958 0.216515 -0.239635
O112  O     O_R   0.955602 0.324219 0.184619 -0.218147
N38   N     N_R   0.351545 0.963657 0.320738 0.086078
O113  O     O_R   0.379553 0.012196 0.295358 -0.217447
O114  O     O_R   0.265978 0.929635 0.329609 -0.238107
N39   N     N_R   0.589208 0.569941 0.189400 0.087922
O115  O     O_R   0.566111 0.527377 0.215974 -0.231797
O116  O     O_R   0.675278 0.632460 0.184397 -0.218545
N40   N     N_R   0.011846 0.386165 0.313998 0.088956
O117  O     O_R   0.980957 0.385418 0.286224 -0.220220
O118  O     O_R   0.012667 0.312972 0.324213 -0.214755
N41   N     N_R   0.429136 0.019510 0.189623 0.088628
O119  O     O_R   0.469456 0.036741 0.216591 -0.247228
O120  O     O_R   0.367364 0.043912 0.184294 -0.218431
N42   N     N_R   0.606020 0.605297 0.311193 0.087130
O121  O     O_R   0.595089 0.563951 0.284680 -0.220574
O122  O     O_R   0.682670 0.682321 0.316748 -0.223102
N43   N     N_R   0.388229 0.037324 0.678743 0.086756
O123  O     O_R   0.368008 0.987927 0.703927 -0.215170
O124  O     O_R   0.336257 0.071204 0.670094 -0.238495
N44   N     N_R   0.019486 0.429667 0.810478 0.088123
O125  O     O_R   0.037238 0.470616 0.783624 -0.234456
O126  O     O_R   0.043719 0.367694 0.815727 -0.218400
N45   N     N_R   0.617944 0.609456 0.684438 0.089974
O127  O     O_R   0.581670 0.604931 0.711512 -0.220372
O128  O     O_R   0.690047 0.686718 0.675710 -0.212547
N46   N     N_R   0.410127 0.980374 0.810289 0.088698
O129  O     O_R   0.433167 0.963203 0.783348 -0.245786
O130  O     O_R   0.323970 0.955901 0.815544 -0.218232
N47   N     N_R   0.993147 0.387881 0.684403 0.087424
O131  O     O_R   0.028834 0.428956 0.710608 -0.219023
O132  O     O_R   0.989688 0.309830 0.677980 -0.221537
N48   N     N_R   0.570377 0.589926 0.810269 0.088335
O133  O     O_R   0.529295 0.566713 0.783431 -0.235661
O134  O     O_R   0.632376 0.676158 0.815440 -0.218510
O135  O     O_3   0.917035 0.393625 0.126127 -0.592536
H25   H     H_    0.876574 0.365938 0.144390 0.380061
O136  O     O_3   0.396605 0.019298 0.384483 -0.593010
H26   H     H_    0.370048 0.044011 0.369250 0.391608
O137  O     O_3   0.605797 0.524947 0.125727 -0.592913
H27   H     H_    0.633914 0.512321 0.143946 0.380346
O138  O     O_3   0.925190 0.372069 0.373003 -0.568731
H28   H     H_    0.894308 0.333933 0.354486 0.384704
O139  O     O_3   0.475142 0.082564 0.126048 -0.592236
H29   H     H_    0.488183 0.123179 0.144300 0.380031
O140  O     O_3   0.633120 0.566997 0.374386 -0.608136
H30   H     H_    0.669872 0.567728 0.356309 0.384184
O141  O     O_3   0.378259 0.984472 0.614707 -0.582306
H31   H     H_    0.326939 0.958978 0.629858 0.392959
O142  O     O_3   0.082228 0.475596 0.874098 -0.592317
H32   H     H_    0.122800 0.488475 0.855869 0.380268
O143  O     O_3   0.558554 0.620042 0.622557 -0.560979
H33   H     H_    0.555807 0.654997 0.640669 0.385144
O144  O     O_3   0.393320 0.917388 0.873882 -0.592274
H34   H     H_    0.365796 0.876728 0.855628 0.380106
O145  O     O_3   0.045566 0.423536 0.619879 -0.583672
H35   H     H_    0.084477 0.421800 0.636909 0.385703
O146  O     O_3   0.524629 0.606881 0.873827 -0.592685
H36   H     H_    0.511804 0.634639 0.855549 0.380216

loop_
_geom_bond_atom_site_label_1
_geom_bond_atom_site_label_2
_geom_bond_distance
_ccdc_geom_bond_type
C64   C76   1.413675 A    
C100  C107  1.406185 A    
C117  C165  1.423279 A    
N15   O56   1.300685 A    
C10   C24   1.468309 S    
N41   O119  1.301324 A    
C150  N33   1.443706 S    
N9    C57   1.387186 Am   
C52   O42   1.218786 D    
C45   N9    1.385353 Am   
O78   H16   0.991398 S    
C131  N47   1.436075 S    
O13   C1    1.286489 A    
O83   H21   0.991135 S    
C127  N43   1.434486 S    
N24   O73   1.301241 A    
C135  C147  1.393541 A    
C56   O46   1.221238 D    
C76   C83   1.417478 A    
C37   N1    1.376618 Am   
C152  N25   1.438589 S    
C39   N3    1.376769 Am   
C28   C40   1.410098 A    
C141  C153  1.400312 A    
N46   O129  1.301323 A    
O10   Cr4   2.010133 S    
C20   C133  1.398129 A    
O12   Cr6   2.011378 S    
N12   C60   1.378454 Am   
C135  H12   1.084675 S    
C86   O81   1.386484 S    
N30   O97   1.301614 A    
C70   C106  1.418765 A    
C101  C106  1.404224 A    
C114  C126  1.417147 A    
C72   C84   1.418193 A    
O1    Cr1   2.009970 S    
N4    C52   1.387670 Am   
C24   C123  1.410695 A    
O3    Cr3   2.010570 S    
C50   O40   1.221712 D    
C21   C126  1.413574 A    
O7    C9    1.282371 A    
C129  N45   1.437170 S    
Cr6   O26   1.966987 S    
C89   O84   1.378184 S    
C36   C96   1.419072 A    
C66   C78   1.417637 A    
C33   C45   1.412803 A    
C97   N20   1.435595 S    
C16   C131  1.413200 A    
C53   C65   1.415342 A    
C138  H9    1.083762 S    
C35   C47   1.412891 A    
N36   O109  1.301199 A    
C26   C38   1.414956 A    
N33   O103  1.301844 A    
C112  O138  1.383086 S    
O4    C6    1.284484 A    
C5    C13   1.467206 S    
C48   O38   1.221849 D    
C69   C105  1.418241 A    
N10   C58   1.378526 Am   
O14   Cr2   1.903632 S    
O15   C3    1.287339 A    
O84   H22   0.991079 S    
C72   C108  1.418734 A    
C22   C137  1.398147 A    
C45   O35   1.220480 D    
O14   C2    1.289542 A    
C134  C146  1.398435 A    
O15   Cr3   1.902142 S    
C40   O30   1.220977 D    
C19   C122  1.416883 A    
O5    C1    1.280662 A    
C87   O86   1.378171 S    
N10   C166  1.444666 S    
N13   O52   1.300660 A    
C11   C19   1.485574 S    
O135  H25   0.989179 S    
N20   O66   1.300664 A    
C65   C77   1.418197 A    
O136  H26   0.988530 S    
C63   C75   1.418135 A    
C88   O85   1.380604 S    
C50   C62   1.414311 A    
C154  C166  1.412578 A    
C155  N28   1.441911 S    
N34   O105  1.301207 A    
C140  H1    1.084704 S    
N7    C163  1.442493 S    
N47   O131  1.301141 A    
C61   C97   1.418679 A    
C44   N8    1.376626 Am   
O141  H31   0.988496 S    
O23   Cr5   1.902388 S    
C146  N31   1.442625 S    
Cr2   O25   1.965887 S    
C128  N44   1.436933 S    
O17   C5    1.286233 A    
C53   O43   1.221230 D    
N38   O113  1.301137 A    
C20   C121  1.410665 A    
N23   O72   1.301082 A    
C33   C81   1.414040 A    
C38   O28   1.222052 D    
N3    C159  1.444780 S    
C144  H3    1.084692 S    
O21   Cr6   1.901597 S    
C40   N4    1.385578 Am   
N1    C157  1.444280 S    
O21   C9    1.290776 A    
N29   O95   1.301205 A    
C33   C93   1.419315 A    
C117  C129  1.420135 A    
N48   O133  1.301184 A    
C89   C94   1.393325 A    
C54   O44   1.221238 D    
N14   O53   1.301106 A    
C142  C154  1.393189 A    
C120  O146  1.381870 S    
N39   O115  1.300904 A    
C31   C91   1.420867 A    
O145  H35   0.988979 S    
C42   N6    1.377375 Am   
C137  C149  1.393050 A    
N13   O51   1.301244 A    
C148  C160  1.424187 A    
N4    C160  1.480635 S    
N17   O59   1.301239 A    
C58   O48   1.221224 D    
C134  H7    1.082848 S    
O144  H34   0.989217 S    
C104  N13   1.435540 S    
N26   O89   1.301231 A    
C92   O75   1.378185 S    
O3    C5    1.280536 A    
C116  O142  1.381859 S    
N28   O94   1.301172 A    
C110  O136  1.382877 S    
C139  H2    1.082848 S    
N6    C162  1.443963 S    
C114  C162  1.406249 A    
N18   O61   1.301127 A    
C17   C142  1.398174 A    
C47   O37   1.221750 D    
C77   C82   1.419302 A    
C12   C20   1.467139 S    
C19   C134  1.404395 A    
C125  N41   1.437248 S    
C85   O82   1.378175 S    
C13   C128  1.410810 A    
C63   C99   1.418758 A    
C32   C80   1.418315 A    
C156  N27   1.438586 S    
C47   N11   1.376268 Am   
C101  N22   1.435544 S    
C56   C68   1.415071 A    
C31   C79   1.418672 A    
N42   O121  1.300824 A    
O77   H15   0.991054 S    
C39   O29   1.221860 D    
N25   O88   1.300748 A    
O22   C10   1.287075 A    
C123  N39   1.436222 S    
O8    Cr5   2.012818 S    
C18   C141  1.399276 A    
N31   O100  1.301266 A    
C42   O32   1.221493 D    
O79   H17   0.991051 S    
C154  N29   1.438572 S    
N5    C53   1.378485 Am   
O2    Cr2   2.009792 S    
C115  O141  1.382880 S    
C117  O143  1.382707 S    
N43   O123  1.301135 A    
N7    C55   1.376063 Am   
C43   N7    1.377069 Am   
C21   C138  1.402397 A    
C111  C123  1.420080 A    
C9    C23   1.480668 S    
O8    C10   1.281185 A    
C41   O31   1.221856 D    
C68   C80   1.418217 A    
C43   O33   1.221919 D    
C13   C140  1.398186 A    
C67   C79   1.420315 A    
C54   C66   1.415614 A    
C115  C163  1.406620 A    
O20   C8    1.286919 A    
N11   C167  1.441185 S    
C153  C165  1.426286 A    
O6    Cr3   2.012631 S    
C74   C79   1.419224 A    
C6    C14   1.485157 S    
C118  C130  1.420392 A    
C151  C163  1.411531 A    
N19   O63   1.300889 A    
C136  C148  1.399206 A    
N24   O74   1.300680 A    
C85   C92   1.393247 A    
N16   O57   1.301290 A    
C86   C91   1.408504 A    
O143  H33   0.989745 S    
C108  N15   1.435518 S    
O6    C2    1.282071 A    
C31   C43   1.413063 A    
C71   C83   1.418358 A    
N21   O68   1.301121 A    
C147  N36   1.438470 S    
N46   O130  1.301297 A    
C147  C159  1.412624 A    
O17   Cr2   1.899867 S    
C58   C70   1.415315 A    
C111  C159  1.410119 A    
C62   C74   1.420480 A    
C52   C64   1.416289 A    
C136  H11   1.083218 S    
C145  C157  1.412592 A    
O19   Cr4   1.900015 S    
C109  C157  1.410188 A    
C35   C95   1.420649 A    
Cr4   O26   1.965927 S    
N22   O69   1.301240 A    
N30   O98   1.301678 A    
N40   O117  1.301230 A    
C66   C102  1.421981 A    
C143  H4    1.083854 S    
C102  N21   1.437201 S    
C118  O144  1.381819 S    
C3    C17   1.467468 S    
N45   O128  1.301367 A    
O16   C4    1.291382 A    
N6    C54   1.378776 Am   
C46   N10   1.376699 Am   
O24   Cr6   1.900755 S    
O19   C7    1.291956 A    
C24   C135  1.398343 A    
C46   O36   1.221850 D    
C133  H8    1.084708 S    
N32   O102  1.300750 A    
C48   N12   1.376727 Am   
C38   N2    1.376106 Am   
C34   C82   1.418311 A    
C144  C156  1.393295 A    
C110  C122  1.417437 A    
N36   O110  1.300708 A    
C61   C73   1.418153 A    
C113  O139  1.381814 S    
C34   C94   1.419045 A    
C8    C22   1.467481 S    
C29   C77   1.418266 A    
N44   O125  1.301190 A    
C150  C162  1.415367 A    
C105  N18   1.435811 S    
C26   C86   1.417525 A    
C90   C93   1.396386 A    
C68   C104  1.418720 A    
C88   C95   1.395116 A    
C115  C127  1.417469 A    
C98   N19   1.436564 S    
C30   C90   1.421905 A    
C67   C103  1.418303 A    
N37   O112  1.301278 A    
C94   O79   1.378165 S    
C113  C125  1.420488 A    
C1    C15   1.467651 S    
C2    C16   1.476666 S    
O16   Cr1   1.899779 S    
C130  N46   1.437267 S    
N27   O91   1.301206 A    
N41   O120  1.301294 A    
O5    Cr2   2.013788 S    
C49   O39   1.221250 D    
C51   O41   1.221208 D    
C18   C129  1.411444 A    
N33   O104  1.300904 A    
C34   C46   1.411672 A    
C55   O45   1.221522 D    
O86   H24   0.991058 S    
O140  H30   0.989010 S    
N34   O106  1.300695 A    
C137  H10   1.084702 S    
N32   O101  1.301194 A    
O80   H18   0.990482 S    
C29   C41   1.411615 A    
C116  C128  1.420167 A    
C25   C85   1.418995 A    
C103  N14   1.435923 S    
C112  C160  1.420993 A    
C138  C150  1.402675 A    
C119  C131  1.417827 A    
C122  N38   1.434416 S    
Cr1   O25   1.967728 S    
N11   C59   1.377729 Am   
O18   Cr3   1.900597 S    
C28   C88   1.418632 A    
O75   H13   0.991076 S    
C36   C84   1.418336 A    
C29   C89   1.419025 A    
C78   C81   1.418492 A    
C62   C98   1.420557 A    
N35   O107  1.301677 A    
C16   C143  1.402864 A    
C32   C92   1.419020 A    
N38   O114  1.301181 A    
O24   C12   1.286164 A    
C133  C145  1.393030 A    
N3    C51   1.378564 Am   
C114  O140  1.382402 S    
C75   C84   1.419330 A    
C121  N37   1.436816 S    
N8    C56   1.378390 Am   
O23   C11   1.292948 A    
N9    C165  1.482623 S    
Cr5   O26   1.967789 S    
C153  N30   1.438612 S    
N48   O134  1.301283 A    
C126  N42   1.435807 S    
N14   O54   1.301301 A    
O137  H27   0.989153 S    
C142  H5    1.084702 S    
O142  H32   0.989191 S    
N39   O116  1.301267 A    
C25   C73   1.418330 A    
C23   C124  1.412997 A    
C156  C168  1.412516 A    
N23   O71   1.301240 A    
N31   O99   1.301686 A    
C28   C76   1.412994 A    
C106  N17   1.435524 S    
N19   O64   1.300904 A    
C55   C67   1.415059 A    
C23   C136  1.399929 A    
N26   O90   1.301737 A    
C118  C166  1.410289 A    
C37   O27   1.221855 D    
N2    C158  1.442983 S    
C107  N16   1.437653 S    
O4    Cr1   2.011907 S    
N18   O62   1.301032 A    
O85   H23   0.990437 S    
O9    C11   1.284609 A    
C120  C132  1.420269 A    
N20   O65   1.301245 A    
C30   C42   1.415563 A    
O10   C12   1.280536 A    
C132  N48   1.436888 S    
C95   O78   1.378251 S    
C100  N23   1.435659 S    
C102  C105  1.406762 A    
C36   C48   1.411709 A    
C109  O135  1.381878 S    
O81   H19   0.989244 S    
C71   C107  1.421133 A    
O146  H36   0.989184 S    
O82   H20   0.991072 S    
N42   O122  1.301303 A    
O20   Cr5   1.899620 S    
C14   C127  1.416673 A    
N25   O87   1.301203 A    
C70   C82   1.418161 A    
C41   N5    1.376724 Am   
O9    Cr6   2.010958 S    
C145  N32   1.438626 S    
C96   O77   1.378175 S    
C149  N34   1.438488 S    
C57   O47   1.218568 D    
C111  O137  1.381951 S    
C59   O49   1.221284 D    
C26   C74   1.420495 A    
C73   C80   1.419080 A    
C149  C161  1.412445 A    
C4    C18   1.481347 S    
N5    C161  1.444624 S    
O76   H14   0.990885 S    
C113  C161  1.410298 A    
N29   O96   1.300736 A    
C148  N35   1.439057 S    
O7    Cr4   2.013784 S    
O18   C6    1.292612 A    
C44   O34   1.221861 D    
C90   O83   1.378277 S    
O13   Cr1   1.901992 S    
C120  C168  1.410208 A    
N1    C49   1.378424 Am   
C97   C104  1.404086 A    
C143  C155  1.397737 A    
C98   C103  1.402748 A    
C22   C125  1.411047 A    
C15   C144  1.398250 A    
O12   C8    1.280991 A    
N43   O124  1.301185 A    
C69   C81   1.414315 A    
C93   O80   1.379859 S    
C119  O145  1.382238 S    
C124  N40   1.436485 S    
C17   C130  1.411008 A    
N47   O132  1.301300 A    
Cr3   O25   1.967087 S    
C14   C139  1.404383 A    
N27   O92   1.300731 A    
C109  C121  1.420087 A    
C152  C164  1.412449 A    
C35   C83   1.419739 A    
N8    C164  1.444255 S    
C116  C164  1.410170 A    
C51   C63   1.415257 A    
C112  C124  1.418667 A    
N17   O60   1.300677 A    
C27   C87   1.419018 A    
C49   C61   1.415015 A    
C91   O76   1.379651 S    
N16   O58   1.300812 A    
N28   O93   1.301530 A    
C140  C152  1.392952 A    
N12   C168  1.444565 S    
O22   Cr4   1.903633 S    
N21   O67   1.301223 A    
C32   C44   1.411461 A    
O11   C7    1.281326 A    
C7    C21   1.479726 S    
C155  C167  1.411733 A    
N35   O108  1.301617 A    
N22   O70   1.300679 A    
N40   O118  1.301327 A    
C30   C78   1.419040 A    
C15   C132  1.410840 A    
N15   O55   1.301239 A    
C65   C101  1.418735 A    
N45   O127  1.301283 A    
N2    C50   1.377527 Am   
C64   C100  1.418100 A    
C59   C71   1.413928 A    
C141  H6    1.083407 S    
C87   C96   1.393332 A    
C139  C151  1.398165 A    
C151  N26   1.442793 S    
O139  H29   0.989207 S    
O11   Cr5   2.009585 S    
C57   C69   1.416905 A    
C146  C158  1.411499 A    
N44   O126  1.301287 A    
C110  C158  1.406547 A    
C99   N24   1.435549 S    
C27   C75   1.418266 A    
C60   O50   1.221233 D    
O1    C3    1.281262 A    
O2    C4    1.282670 A    
C25   C37   1.411496 A    
N37   O111  1.301168 A    
C119  C167  1.406961 A    
O138  H28   0.989608 S    
C27   C39   1.411712 A    
C99   C108  1.404144 A    
C60   C72   1.415259 A    
