data_mof_unit_47519.cif
_audit_creation_date              2012-10-26T21:02:56-0400
_audit_creation_method            fapswitch 2.2
_symmetry_space_group_name_H-M    P1
_symmetry_Int_Tables_number       1
_space_group_crystal_system       triclinic
_cell_length_a                    12.371274
_cell_length_b                    13.374355
_cell_length_c                    23.443369
_cell_angle_alpha                 77.466896
_cell_angle_beta                  101.055298
_cell_angle_gamma                 116.500285
_cell_volume                      3368.55739434

loop_
_atom_site_label
_atom_site_type_symbol
_atom_type_description
_atom_site_fract_x
_atom_site_fract_y
_atom_site_fract_z
_atom_type_partial_charge
C1    C     C_R   0.854291 0.287088 0.505541 0.559209
C2    C     C_R   0.080935 0.471371 0.891509 0.445819
C3    C     C_R   0.963359 0.555473 0.754528 0.247089
C4    C     C_R   0.998405 0.498108 0.608916 0.568989
C5    C     C_R   0.969082 0.567173 0.693983 0.169556
C6    C     C_R   0.992217 0.488973 0.672033 -0.116948
C7    C     C_R   0.006561 0.398598 0.710946 0.349018
C8    C     C_R   0.998956 0.386186 0.770730 0.412852
C9    C     C_R   0.977693 0.464091 0.792915 0.105043
C10   C     C_R   0.991180 0.385505 0.256486 -0.093357
C11   C     C_R   0.995148 0.393868 0.315079 0.252526
C12   C     C_R   0.762563 0.409284 0.018279 0.417264
C13   C     C_R   0.994239 0.489774 0.329813 -0.023645
C14   C     C_R   0.987323 0.576450 0.285284 0.327803
C15   C     C_R   0.985760 0.569100 0.226385 0.313330
C16   C     C_R   0.145287 0.713037 0.492647 0.574512
C17   C     C_R   0.986061 0.472419 0.212044 0.110184
C18   C     C_R   0.269047 0.031441 0.487616 0.259296
C19   C     C_R   0.228539 0.834277 0.489720 -0.038478
C20   C     C_R   0.814242 0.087537 0.542744 -0.174995
C21   C     C_R   0.736038 0.975217 0.558387 0.383184
C22   C     C_R   0.611793 0.937317 0.541936 0.489172
C23   C     C_R   0.760996 0.406664 0.959015 0.418536
C24   C     C_R   0.563428 0.011808 0.507098 0.000729
C25   C     C_R   0.643230 0.126854 0.491136 -0.051801
C26   C     C_R   0.436367 0.978897 0.493246 0.006382
C27   C     C_R   0.391519 0.062390 0.481443 -0.027116
C28   C     C_R   0.999049 0.498182 0.391477 0.621875
C29   C     C_R   0.469778 0.172965 0.461177 -0.102563
C30   C     C_R   0.591123 0.200226 0.459252 -0.096268
C31   C     C_R   0.353216 0.867087 0.489825 0.374596
C32   C     C_R   0.187389 0.916284 0.491473 0.201714
C33   C     C_R   0.770095 0.165409 0.510277 -0.062835
C34   C     C_R   0.867750 0.427328 0.936287 -0.018883
C35   C     C_R   0.353695 0.342575 0.599920 0.431030
C36   C     C_R   0.755931 0.641460 0.419547 0.510465
C37   C     C_R   0.673575 0.690321 0.409703 0.230352
C38   C     C_R   0.579592 0.645356 0.447022 0.341326
C39   C     C_R   0.560878 0.545302 0.487443 -0.020654
C40   C     C_R   0.086623 0.478960 0.131778 0.418551
C41   C     C_R   0.657106 0.510528 0.500011 0.004337
C42   C     C_R   0.452791 0.481297 0.517501 -0.076888
C43   C     C_R   0.454782 0.399333 0.567301 -0.049943
C44   C     C_R   0.556149 0.373594 0.582982 0.278060
C45   C     C_R   0.976542 0.448484 0.974364 -0.168645
C46   C     C_R   0.651216 0.424596 0.547376 -0.077010
C47   C     C_R   0.338938 0.489043 0.498039 0.407357
C48   C     C_R   0.252205 0.365532 0.583046 0.505277
C49   C     C_R   0.875780 0.439194 0.116059 0.476373
C50   C     C_R   0.870912 0.432730 0.056457 -0.016093
C51   C     C_R   0.978032 0.451142 0.034529 -0.172067
C52   C     C_R   0.086900 0.473651 0.072537 0.006288
C53   C     C_3   0.096137 0.738203 0.174663 0.006024
C54   C     C_3   0.089901 0.825169 0.121818 -0.332978
C55   C     C_3   0.000007 0.909271 0.454971 0.026048
C56   C     C_R   0.084002 0.468211 0.952255 -0.021219
C57   C     C_3   0.893128 0.913456 0.475213 -0.332543
C58   C     C_3   0.219522 0.185363 0.466096 -0.028286
C59   C     C_3   0.105235 0.193562 0.475351 -0.330159
C60   C     C_3   0.660450 0.322868 0.668652 0.002786
C61   C     C_3   0.635692 0.245850 0.727299 -0.267087
C62   C     C_3   0.309470 0.483866 0.398568 -0.004728
C63   C     C_3   0.316376 0.557797 0.338835 -0.314141
C64   C     C_3   0.631990 0.847605 0.361587 0.026203
C65   C     C_3   0.680938 0.951536 0.315516 -0.361559
C66   C     C_3   0.309038 0.401278 0.981687 0.016774
C67   C     C_R   0.191390 0.485791 0.991250 0.282726
C68   C     C_3   0.418968 0.418010 0.954325 -0.226467
C69   C     C_3   0.041053 0.710100 0.801996 0.005718
C70   C     C_3   0.006387 0.751510 0.848173 -0.323187
C71   C     C_3   0.060700 0.746397 0.645481 0.011949
C72   C     C_3   0.044017 0.855184 0.635304 -0.255556
C73   C     C_R   0.192885 0.490956 0.050386 0.406477
C74   C     C_R   0.869451 0.429130 0.876255 0.477578
Cu1   Cu    Cu3+1 0.098270 0.475410 0.513370 1.166895
Cu2   Cu    Cu3+1 0.901730 0.524590 0.486630 1.057320
F1    F     F_    0.657222 0.389274 0.037800 -0.570585
F2    F     F_    0.843122 0.679940 0.382923 -0.537311
F3    F     F_    0.514832 0.703278 0.448704 -0.551184
F4    F     F_    0.299513 0.513843 0.085587 -0.549750
F5    F     F_    0.022916 0.319203 0.690732 -0.497298
F6    F     F_    0.010899 0.297114 0.807349 -0.539168
F7    F     F_    0.995392 0.306553 0.357187 -0.678056
F8    F     F_    0.984994 0.669024 0.298963 -0.553880
F9    F     F_    0.392590 0.793064 0.480191 -0.497636
F10   F     F_    0.539498 0.832136 0.566914 -0.506278
F11   F     F_    0.780186 0.904095 0.593819 -0.590900
F12   F     F_    0.654286 0.384811 0.924067 -0.564533
F13   F     F_    0.156350 0.310595 0.614988 -0.505562
F14   F     F_    0.352214 0.265594 0.648613 -0.524298
H1    H     H_    0.437305 0.236773 0.442186 0.102145
H2    H     H_    0.051232 0.784051 0.081672 0.170693
H3    H     H_    0.966726 0.844155 0.426100 0.230231
H4    H     H_    0.049719 0.991230 0.427825 0.126847
H5    H     H_    0.846740 0.951400 0.438062 0.101566
H6    H     H_    0.926408 0.967079 0.510338 0.183919
H7    H     H_    0.828975 0.827495 0.493046 0.186114
H8    H     H_    0.212434 0.171096 0.420089 0.116561
H9    H     H_    0.297035 0.267665 0.472283 0.103846
H10   H     H_    0.088599 0.166207 0.522233 0.194107
H11   H     H_    0.114876 0.281230 0.463423 0.171704
H12   H     H_    0.908890 0.114958 0.559951 0.190010
H13   H     H_    0.025364 0.141781 0.447427 0.156911
H14   H     H_    0.690510 0.411336 0.676380 0.173686
H15   H     H_    0.734865 0.315712 0.652268 0.122006
H16   H     H_    0.604256 0.156675 0.721151 0.184591
H17   H     H_    0.720208 0.269827 0.758194 0.143969
H18   H     H_    0.564771 0.253613 0.746408 0.230308
H19   H     H_    0.221154 0.409414 0.396825 0.170623
H20   H     H_    0.382266 0.453960 0.404977 0.072595
H21   H     H_    0.411177 0.620766 0.334146 0.169082
H22   H     H_    0.286613 0.504783 0.303403 0.145370
H23   H     H_    0.641848 0.280432 0.434049 0.166463
H24   H     H_    0.256965 0.602214 0.333688 0.163837
H25   H     H_    0.649436 0.877740 0.404460 0.187677
H26   H     H_    0.532908 0.802413 0.349219 0.195635
H27   H     H_    0.663527 0.925889 0.271452 0.189178
H28   H     H_    0.635287 0.007120 0.314462 0.122517
H29   H     H_    0.780312 0.999550 0.326269 0.177577
H30   H     H_    0.227282 0.334264 0.961384 0.148981
H31   H     H_    0.322278 0.372378 0.029696 0.186720
H32   H     H_    0.502445 0.483927 0.973796 0.232200
H33   H     H_    0.429145 0.337525 0.962652 0.187825
H34   H     H_    0.719170 0.393873 0.558230 0.184912
H35   H     H_    0.407216 0.444583 0.906115 0.213463
H36   H     H_    0.084758 0.783349 0.768389 0.144726
H37   H     H_    0.109695 0.677474 0.823868 0.142158
H38   H     H_    0.964220 0.680163 0.883088 0.158744
H39   H     H_    0.088735 0.817288 0.868420 0.123541
H40   H     H_    0.940881 0.788266 0.827621 0.204238
H41   H     H_    0.090157 0.739285 0.605277 0.168591
H42   H     H_    0.135006 0.752654 0.682050 0.104444
H43   H     H_    0.020434 0.867136 0.675906 0.185564
H44   H     H_    0.129163 0.928516 0.622473 0.169427
H45   H     H_    0.991087 0.310966 0.245398 0.173942
H46   H     H_    0.969205 0.851092 0.599932 0.242814
H47   H     H_    0.156518 0.702397 0.166262 0.148651
H48   H     H_    0.136586 0.781802 0.214076 0.174322
H49   H     H_    0.031771 0.864059 0.128965 0.192628
H50   H     H_    0.182542 0.892455 0.115372 0.117510
N1    N     N_R   0.982576 0.462936 0.151893 -0.404153
N2    N     N_R   0.975273 0.452927 0.855130 -0.377891
N3    N     N_R   0.246280 0.438190 0.533650 -0.303680
N4    N     N_R   0.754320 0.561190 0.466710 -0.283149
O1    O     O_R   0.972510 0.318130 0.516820 -0.482604
O2    O     O_R   0.082990 0.479280 0.429170 -0.479065
O3    O     O_R   0.917010 0.520800 0.406580 -0.411550
O4    O     O_2   0.189443 0.501017 0.169103 -0.428786
O5    O     O_3   0.977721 0.653631 0.182371 -0.479389
O6    O     O_3   0.071320 0.882459 0.504998 -0.558406
O7    O     O_3   0.237826 0.101821 0.509902 -0.510994
O8    O     O_3   0.553813 0.287081 0.628751 -0.482391
O9    O     O_3   0.318167 0.545139 0.442987 -0.416229
O10   O     O_3   0.691202 0.778210 0.362295 -0.532384
O11   O     O_3   0.298164 0.504613 0.971427 -0.478773
O12   O     O_2   0.775057 0.422142 0.138297 -0.357480
O13   O     O_3   0.934724 0.628975 0.775366 -0.473674
O14   O     O_3   0.948303 0.653755 0.656755 -0.491828
O15   O     O_2   0.766808 0.408557 0.838964 -0.388147
O16   O     O_2   0.183186 0.495769 0.868322 -0.419486
O17   O     O_R   0.806530 0.359650 0.494230 -0.560789
O18   O     O_R   0.082990 0.479200 0.593420 -0.405613
O19   O     O_R   0.917010 0.520720 0.570830 -0.517863
O20   O     O_R   0.193470 0.640350 0.505770 -0.402734
O21   O     O_R   0.027490 0.681870 0.483180 -0.460168

loop_
_geom_bond_atom_site_label_1
_geom_bond_atom_site_label_2
_ccdc_geom_bond_type
C66   C68   S    
C21   F11   S    
C64   H26   S    
C47   N3    A    
C27   C29   A    
C49   O12   S    
C1    O1    A    
C58   H8    S    
C2    C56   A    
C14   F8    S    
C55   H3    S    
C19   C31   A    
C1    C33   S    
C7    C8    A    
C39   C41   A    
C53   C54   S    
Cu1   O1    S    
C12   C23   A    
C26   C27   A    
C37   C38   A    
C74   O15   S    
Cu1   O18   S    
C31   F9    S    
C67   O11   S    
C36   C37   A    
C15   O5    S    
C24   C26   A    
C5    C6    A    
C72   H46   S    
C20   H12   S    
C38   F3    S    
C35   C48   A    
C10   C17   A    
C64   O10   S    
C70   H40   S    
C17   N1    S    
C60   O8    S    
C63   H22   S    
C61   H18   S    
C71   H42   S    
C63   H24   S    
C54   H50   S    
Cu2   O3    S    
C8    C9    A    
C57   H6    S    
C49   N1    A    
C69   O13   S    
C65   H28   S    
C13   C28   S    
C67   C73   A    
C29   C30   A    
C35   C43   A    
C74   N2    A    
C1    O17   A    
C26   C31   A    
C64   H25   S    
C66   H30   S    
C13   C14   A    
C53   O5    S    
C59   H10   S    
C46   H34   S    
Cu2   O17   S    
C55   H4    S    
C19   C32   A    
C53   H47   S    
C68   H33   S    
C44   C46   A    
C39   C42   A    
Cu1   O2    S    
C38   C39   A    
C66   H31   S    
C40   O4    S    
C53   H48   S    
C59   H11   S    
C10   H45   S    
C45   C56   A    
C41   N4    A    
C4    C6    S    
C52   C73   A    
C68   H32   S    
C47   O9    S    
C11   F7    S    
C58   C59   S    
C40   C52   A    
C70   H39   S    
C16   O20   A    
C51   C52   A    
C48   N3    A    
C60   C61   S    
C58   H9    S    
Cu1   Cu2   S    
C54   H2    S    
C62   C63   S    
C3    C9    A    
C40   N1    A    
C72   H44   S    
C54   H49   S    
C62   H20   S    
C16   O21   A    
C41   C46   A    
C23   C34   A    
C57   H7    S    
C12   F1    S    
C50   C51   A    
C65   H29   S    
C4    O19   A    
Cu2   O21   S    
C34   C45   A    
C44   O8    S    
C24   C25   A    
C61   H16   S    
Cu1   N3    S    
C34   C74   A    
C20   C33   A    
Cu2   N4    S    
C7    F5    S    
C69   H36   S    
C49   C50   A    
C48   F13   S    
C55   C57   S    
C43   C44   A    
C2    N2    A    
C22   C24   A    
C18   C32   A    
C42   C43   A    
C18   O7    S    
C29   H1    S    
C58   O7    S    
C55   O6    S    
C70   H38   S    
C25   C30   A    
C15   C17   A    
C71   O14   S    
C28   O3    A    
C65   H27   S    
C37   O10   S    
C18   C27   A    
C3    C5    A    
C12   C50   A    
C9    N2    S    
C6    C7    A    
C56   C67   A    
C28   O2    A    
C62   O9    S    
C23   F12   S    
C59   H13   S    
C64   C65   S    
C36   N4    A    
C71   C72   S    
C60   H14   S    
C11   C13   A    
C72   H43   S    
C66   O11   S    
C62   H19   S    
C16   C19   S    
C73   F4    S    
C4    O18   A    
C42   C47   A    
C22   F10   S    
C63   H21   S    
C69   C70   S    
C61   H17   S    
C10   C11   A    
C71   H41   S    
C35   F14   S    
C8    F6    S    
C32   O6    S    
C20   C21   A    
C69   H37   S    
C2    O16   S    
C5    O14   S    
C57   H5    S    
C3    O13   S    
C45   C51   A    
C14   C15   A    
Cu1   O20   S    
Cu2   O19   S    
C36   F2    S    
C21   C22   A    
C68   H35   S    
C60   H15   S    
C25   C33   A    
C30   H23   S    
