data_mof_unit_38896.cif
_audit_creation_date              2012-12-11T16:29:29-0500
_audit_creation_method            fapswitch 2.2
_symmetry_space_group_name_H-M    P1
_symmetry_Int_Tables_number       1
_space_group_crystal_system       triclinic
_cell_length_a                    6.952844
_cell_length_b                    17.354424
_cell_length_c                    18.7235
_cell_angle_alpha                 106.300113
_cell_angle_beta                  89.528753
_cell_angle_gamma                 90.477681
_cell_volume                      2168.29993412

loop_
_atom_site_label
_atom_site_type_symbol
_atom_type_description
_atom_site_fract_x
_atom_site_fract_y
_atom_site_fract_z
_atom_type_partial_charge
O1    O     O_R   0.494360 0.415680 0.413760 -0.531572
O2    O     O_R   0.818810 0.432910 0.557230 -0.526525
O3    O     O_R   0.994290 0.584320 0.586240 -0.531865
C1    C     C_R   0.649688 0.416011 0.580651 0.720659
O4    O     O_R   0.823740 0.406440 0.412520 -0.540538
O5    O     O_R   0.999250 0.557660 0.440500 -0.525106
C2    C     C_R   0.656847 0.388539 0.381234 0.720046
O6    O     O_R   0.489400 0.442340 0.559500 -0.519029
O7    O     O_3   0.662500 0.549650 0.509350 -0.358522
V1    V     V_3+5 0.935340 0.490790 0.498270 1.403997
O8    O     O_R   0.329270 0.567090 0.442770 -0.532095
C3    C     C_R   0.161236 0.584258 0.419580 0.699400
O9    O     O_R   0.324340 0.593560 0.587480 -0.533844
C4    C     C_R   0.155131 0.616309 0.615112 0.701578
V2    V     V_3+5 0.435970 0.509210 0.501730 1.404889
O10   O     O_3   0.158940 0.450350 0.490650 -0.357182
H1    H     H_    0.382190 0.864334 0.563976 0.114482
C5    C     C_R   0.013411 0.594786 0.754135 -0.140503
C6    C     C_R   0.944191 0.582318 0.820051 -0.122575
C7    C     C_R   0.933607 0.645971 0.884367 -0.119924
C8    C     C_R   0.991856 0.722617 0.883240 -0.133310
C9    C     C_R   0.060368 0.737481 0.816884 0.070218
C10   C     C_R   0.071724 0.672152 0.750934 0.068880
C11   C     C_R   0.121110 0.815425 0.815899 -0.187112
C12   C     C_R   0.193509 0.827920 0.748867 0.068988
C13   C     C_R   0.204738 0.762593 0.682902 0.070008
C14   C     C_R   0.144223 0.684638 0.683930 -0.188420
C15   C     C_R   0.251681 0.905288 0.745632 -0.140755
C16   C     C_R   0.320299 0.917787 0.679632 -0.122407
C17   C     C_R   0.330539 0.854151 0.615286 -0.121282
C18   C     C_R   0.272749 0.777472 0.616481 -0.133082
H2    H     H_    0.021984 0.542857 0.706115 0.107736
H3    H     H_    0.899963 0.522755 0.821337 0.117863
H4    H     H_    0.881279 0.635828 0.935612 0.114946
H5    H     H_    0.983921 0.769651 0.935166 0.103755
H6    H     H_    0.243333 0.957195 0.793682 0.107236
H7    H     H_    0.364272 0.977364 0.678297 0.117191
H8    H     H_    0.280511 0.730425 0.564555 0.104476
C19   C     C_1   0.111278 0.864330 0.133024 -0.223685
C20   C     C_1   0.118708 0.821993 0.176813 -0.009857
C21   C     C_1   0.128205 0.771934 0.228843 -0.010819
C22   C     C_1   0.136389 0.729621 0.272630 -0.015139
C23   C     C_1   0.145983 0.679250 0.324368 -0.005607
C24   C     C_1   0.153559 0.636498 0.367768 -0.222087
C25   C     C_1   0.640909 0.364057 0.632657 -0.222160
C26   C     C_1   0.636823 0.321438 0.676217 -0.006411
C27   C     C_1   0.633668 0.271174 0.728090 -0.007463
C28   C     C_1   0.631361 0.228830 0.771904 -0.007231
C29   C     C_1   0.628215 0.178581 0.823790 -0.005954
C30   C     C_1   0.624145 0.135976 0.867363 -0.219393
H9    H     H_    0.646738 0.141161 0.451683 0.109076
C31   C     C_R   0.686159 0.409139 0.223242 0.130728
C32   C     C_R   0.649101 0.417256 0.152058 -0.118347
C33   C     C_R   0.598821 0.351871 0.093802 -0.165908
C34   C     C_R   0.590810 0.276268 0.104378 -0.135548
C35   C     C_R   0.620394 0.264771 0.175306 0.051827
C36   C     C_R   0.653967 0.332828 0.238291 0.019144
C37   C     C_R   0.618808 0.185933 0.182921 -0.161044
C38   C     C_R   0.630678 0.173963 0.254277 0.046865
C39   C     C_R   0.642608 0.240902 0.318449 0.074991
C40   C     C_R   0.652399 0.320570 0.311424 -0.180456
C41   C     C_R   0.626663 0.095514 0.262864 -0.190858
C42   C     C_R   0.632858 0.081964 0.333053 0.136162
C43   C     C_R   0.642367 0.148367 0.396226 -0.127847
C44   C     C_R   0.647002 0.226208 0.389097 -0.164091
H10   H     H_    0.666898 0.474823 0.140699 0.120487
H11   H     H_    0.573947 0.359321 0.039117 0.126338
H12   H     H_    0.559168 0.226878 0.055952 0.103501
H13   H     H_    0.617609 0.043454 0.214818 0.095891
H14   H     H_    0.655259 0.274638 0.440025 0.105864
O11   O     O_R   0.775690 0.057750 0.940570 -0.520114
O12   O     O_R   0.441200 0.093570 0.087490 -0.535889
O13   O     O_R   0.265840 0.942320 0.059480 -0.521972
C45   C     C_R   0.609480 0.115794 0.115545 0.699517
O14   O     O_R   0.446270 0.067110 0.942790 -0.529320
O15   O     O_R   0.270950 0.915660 0.913750 -0.532906
C46   C     C_R   0.615387 0.084019 0.919367 0.713066
O16   O     O_R   0.770580 0.084400 0.086300 -0.531645
O17   O     O_3   0.602640 0.950400 0.990690 -0.359590
V3    V     V_3+5 0.329740 0.009200 0.001730 1.415995
O18   O     O_R   0.940900 0.906360 0.912450 -0.535364
C47   C     C_R   0.110144 0.883733 0.884760 0.696988
O19   O     O_R   0.935830 0.932820 0.057160 -0.528428
C48   C     C_R   0.103771 0.916030 0.080696 0.712943
V4    V     V_3+5 0.829130 0.990680 0.998180 1.417619
O20   O     O_3   0.106100 0.049590 0.009310 -0.358311
C49   C     C_3   0.780970 0.481878 0.275305 -0.407856
C50   C     C_3   0.633017 0.545892 0.310197 -0.682905
H15   H     H_    0.587693 0.577510 0.269176 0.206177
H16   H     H_    0.504436 0.517450 0.327233 0.226527
H17   H     H_    0.695062 0.590548 0.359248 0.224741
H18   H     H_    0.871110 0.466162 0.316790 0.191439
H19   H     H_    0.886783 0.508376 0.243840 0.177309
C51   C     C_3   0.627997 0.995502 0.336344 -0.366211
C52   C     C_3   0.637549 0.983935 0.414641 -0.319491
C53   C     C_3   0.633266 0.894941 0.411109 -0.751403
H20   H     H_    0.497554 0.866512 0.385187 0.231398
H21   H     H_    0.757671 0.863514 0.378260 0.234248
H22   H     H_    0.641638 0.888295 0.468276 0.212170
H23   H     H_    0.772864 0.010843 0.442281 0.196975
H24   H     H_    0.512590 0.013613 0.448440 0.194465
H25   H     H_    0.493393 0.966962 0.309241 0.179085
H26   H     H_    0.751333 0.963498 0.303009 0.179073

loop_
_geom_bond_atom_site_label_1
_geom_bond_atom_site_label_2
_ccdc_geom_bond_type
C49   C50   S    
C21   C22   T    
C52   C53   S    
O17   V4    S    
C1    O6    A    
O18   C47   A    
C32   C33   A    
C12   C15   A    
C42   C51   S    
C13   C14   A    
C16   C17   A    
C8    C9    A    
C15   C16   A    
C19   C48   S    
O5    C3    A    
C17   C18   A    
V2    O10   S    
C53   H22   S    
C35   C36   A    
C5    C6    A    
C11   C47   S    
C2    C40   S    
V3    O20   S    
C33   C34   A    
O8    V2    S    
O19   C48   A    
C53   H21   S    
O1    V2    S    
C10   C14   A    
C4    C14   S    
O7    V1    S    
O13   C48   A    
C7    H4    S    
C38   C39   A    
O11   V4    S    
C49   H18   S    
H1    C17   S    
C34   H12   S    
C1    C25   S    
C5    C10   A    
C11   C12   A    
O12   C45   A    
C6    H3    S    
O15   C47   A    
C19   C20   T    
O4    C2    A    
C52   H23   S    
C33   H11   S    
C37   C38   A    
V4    O20   S    
O17   V3    S    
C41   H13   S    
C39   C40   A    
O2    C1    A    
C23   C24   T    
O5    V1    S    
C41   C42   A    
C27   C28   T    
C50   H17   S    
C53   H20   S    
C34   C35   A    
C7    C8    A    
C32   H10   S    
O14   C46   A    
C15   H6    S    
O3    C4    A    
O16   V4    S    
C28   C29   S    
O19   V4    S    
C50   H16   S    
C39   C44   A    
O6    V2    S    
O9    V2    S    
C9    C11   A    
C5    H2    S    
C22   C23   S    
O2    V1    S    
C30   C46   S    
O11   C46   A    
C31   C32   A    
C37   C45   S    
O14   V3    S    
C26   C27   S    
C20   C21   S    
C38   C41   A    
O1    C2    A    
C31   C49   S    
H9    C43   S    
O15   V3    S    
C51   H26   S    
O8    C3    A    
C36   C40   A    
C8    H5    S    
C52   H24   S    
C18   H8    S    
C43   C44   A    
C6    C7    A    
C12   C13   A    
O4    V1    S    
O12   V3    S    
O3    V1    S    
V1    O10   S    
C49   H19   S    
O13   V3    S    
C35   C37   A    
O7    V2    S    
C51   C52   S    
C31   C36   A    
C42   C43   A    
C25   C26   T    
C13   C18   A    
C50   H15   S    
C51   H25   S    
C3    C24   S    
C29   C30   T    
C45   O16   A    
C16   H7    S    
C9    C10   A    
O9    C4    A    
O18   V4    S    
C44   H14   S    
