data_mof_unit_25259.cif
_audit_creation_date              2012-12-10T19:44:57-0500
_audit_creation_method            fapswitch 2.2
_symmetry_space_group_name_H-M    P1
_symmetry_Int_Tables_number       1
_space_group_crystal_system       triclinic
_cell_length_a                    15.01582
_cell_length_b                    10.833829
_cell_length_c                    13.799573
_cell_angle_alpha                 89.48973
_cell_angle_beta                  91.561002
_cell_angle_gamma                 88.421181
_cell_volume                      2243.1085683

loop_
_atom_site_label
_atom_site_type_symbol
_atom_type_description
_atom_site_fract_x
_atom_site_fract_y
_atom_site_fract_z
_atom_type_partial_charge
C1    C     C_R   0.497187 0.262484 0.499972 0.786341
C2    C     C_R   0.502765 0.737526 0.500036 0.786349
C3    C     C_R   0.051522 0.323760 0.614602 -0.015962
C4    C     C_R   0.948465 0.676678 0.385724 -0.014909
C5    C     C_R   0.302994 0.249152 0.254032 0.336155
C6    C     C_R   0.695979 0.750658 0.746751 0.337473
C7    C     C_R   0.341996 0.191521 0.336506 -0.150982
C8    C     C_R   0.657552 0.808875 0.664229 -0.151425
C9    C     C_R   0.423066 0.124557 0.330011 0.080760
C10   C     C_R   0.576264 0.875401 0.670267 0.075712
C11   C     C_R   0.463990 0.114903 0.239965 -0.165043
C12   C     C_R   0.534503 0.884014 0.759905 -0.157310
C13   C     C_R   0.425070 0.173192 0.157884 -0.195072
C14   C     C_R   0.572882 0.825205 0.842050 -0.195222
C15   C     C_R   0.344909 0.240701 0.164943 -0.109683
C16   C     C_R   0.653291 0.758154 0.835442 -0.116691
C17   C     C_R   0.471448 0.935464 0.418315 -0.222988
C18   C     C_R   0.528384 0.064566 0.581765 -0.222455
C19   C     C_R   0.505025 0.871477 0.500456 -0.074070
C20   C     C_R   0.494827 0.128550 0.499602 -0.074414
C21   C     C_R   0.534973 0.936645 0.582992 0.030462
C22   C     C_R   0.464748 0.063383 0.417125 0.029827
C23   C     C_R   0.328885 0.499933 0.499006 0.802324
C24   C     C_R   0.671113 0.500127 0.501008 0.802701
C25   C     C_R   0.562023 0.428927 0.796755 0.144763
C26   C     C_R   0.437503 0.570493 0.203348 0.144864
C27   C     C_R   0.440030 0.573157 0.790250 0.015269
C28   C     C_R   0.559814 0.426837 0.209479 0.018014
C29   C     C_R   0.438128 0.576854 0.893222 -0.086569
C30   C     C_R   0.559348 0.420192 0.106573 -0.084757
C31   C     C_R   0.498869 0.499435 0.948194 0.065554
C32   C     C_R   0.499127 0.498297 0.051669 0.065002
C33   C     C_R   0.560056 0.423585 0.899733 -0.051542
C34   C     C_R   0.438808 0.575184 0.100273 -0.052839
C35   C     C_R   0.379151 0.656919 0.943089 -0.042539
C36   C     C_R   0.617165 0.338668 0.056831 -0.038930
C37   C     C_R   0.381594 0.656082 0.045076 -0.134395
C38   C     C_R   0.616727 0.341925 0.954938 -0.132254
C39   C     C_R   0.809977 0.585734 0.442831 -0.188750
C40   C     C_R   0.190017 0.414431 0.557248 -0.192616
C41   C     C_R   0.767580 0.502490 0.502741 -0.084164
C42   C     C_R   0.232414 0.497706 0.497362 -0.084300
C43   C     C_R   0.816868 0.419570 0.561789 -0.134211
C44   C     C_R   0.183123 0.580912 0.438572 -0.134421
C45   C     C_R   0.909547 0.417983 0.560807 0.129867
C46   C     C_R   0.090445 0.582507 0.439563 0.129720
C47   C     C_R   0.953247 0.502320 0.501128 0.041456
C48   C     C_R   0.046744 0.498099 0.499180 0.041673
C49   C     C_R   0.903300 0.590210 0.443236 0.103780
C50   C     C_R   0.096689 0.410134 0.557004 0.103399
C51   C     C_R   0.958549 0.331048 0.617221 -0.239795
C52   C     C_R   0.041445 0.669498 0.383201 -0.240296
Cu1   Cu    Cu3+1 0.500010 0.499980 0.597420 0.951178
Cu2   Cu    Cu3+1 0.499990 0.500020 0.402580 0.952125
H1    H     H_    0.768799 0.645071 0.395768 0.193372
H2    H     H_    0.231206 0.354949 0.604185 0.193502
H3    H     H_    0.447342 0.885764 0.355533 0.143927
H4    H     H_    0.552490 0.114263 0.644559 0.143246
H5    H     H_    0.395800 0.630421 0.745370 0.127444
H6    H     H_    0.607059 0.373355 0.253817 0.130449
H7    H     H_    0.337811 0.720520 0.081290 0.211821
H8    H     H_    0.659574 0.276168 0.918785 0.207365
H9    H     H_    0.782864 0.353072 0.605474 0.165762
H10   H     H_    0.217124 0.647594 0.395069 0.166224
H11   H     H_    0.923783 0.265765 0.661622 0.159537
H12   H     H_    0.076212 0.734853 0.338866 0.159049
H13   H     H_    0.315196 0.285741 0.101124 0.169896
H14   H     H_    0.682546 0.712623 0.899285 0.171572
H15   H     H_    0.309319 0.198650 0.405350 0.148933
H16   H     H_    0.690777 0.802388 0.595670 0.149229
H17   H     H_    0.526365 0.063362 0.233658 0.143353
H18   H     H_    0.471848 0.934996 0.765813 0.152852
H19   H     H_    0.457184 0.166294 0.088791 0.155551
H20   H     H_    0.540107 0.831225 0.910811 0.162293
N1    N     N_R   0.499960 0.499900 0.743810 -0.213602
N2    N     N_R   0.500040 0.500100 0.256190 -0.214722
O1    O     O_R   0.500000 0.319630 0.582270 -0.613726
O2    O     O_R   0.500000 0.680370 0.417730 -0.613805
O3    O     O_R   0.499990 0.319660 0.417730 -0.574260
O4    O     O_R   0.500010 0.680340 0.582270 -0.573709
O5    O     O_R   0.370260 0.499960 0.582280 -0.590621
O6    O     O_R   0.629740 0.500040 0.417720 -0.588897
O7    O     O_R   0.370250 0.499990 0.417740 -0.567705
O8    O     O_R   0.629750 0.500010 0.582260 -0.568833
C53   C     C_2   0.635477 0.363863 0.747417 0.379603
H21   H     H_    0.622958 0.301285 0.688801 0.077250
O9    O     O_2   0.712712 0.380977 0.772592 -0.530974
C54   C     C_2   0.364427 0.635991 0.252930 0.380513
H22   H     H_    0.377377 0.699658 0.310693 0.077316
O10   O     O_2   0.287031 0.618017 0.228910 -0.536138
C55   C     C_2   0.313954 0.742782 0.891821 0.375468
H23   H     H_    0.294446 0.730272 0.816661 0.067528
O11   O     O_2   0.279588 0.829622 0.934153 -0.518853
C56   C     C_2   0.676250 0.245317 0.108370 0.370621
H24   H     H_    0.663879 0.216415 0.181940 0.057714
O12   O     O_2   0.739512 0.197089 0.068029 -0.501837
C57   C     C_2   0.096607 0.221948 0.671446 0.375724
H25   H     H_    0.067056 0.189292 0.737534 0.101310
O13   O     O_2   0.163033 0.168015 0.642493 -0.541342
C58   C     C_2   0.903368 0.778505 0.328904 0.376877
H26   H     H_    0.933003 0.811353 0.262921 0.101068
O14   O     O_2   0.836826 0.832235 0.357769 -0.542719
Br1   Br    Br    0.191581 0.337025 0.262565 -0.444214
Br2   Br    Br    0.807535 0.663009 0.738765 -0.446574

loop_
_geom_bond_atom_site_label_1
_geom_bond_atom_site_label_2
_ccdc_geom_bond_type
C5    Br1   S    
C27   C29   A    
C18   C21   A    
C1    O1    A    
C54   O10   D    
C57   H25   S    
C43   H9    S    
C47   C49   A    
Cu1   Cu2   S    
C44   H10   S    
C23   C42   S    
C23   O7    A    
C4    C52   A    
Cu1   O8    S    
C14   H20   S    
C19   C21   A    
C11   H17   S    
C9    C22   S    
C45   C51   A    
C34   C37   A    
C46   C52   A    
Cu1   O5    S    
C51   H11   S    
C24   O6    A    
C26   C34   A    
C39   H1    S    
C31   C32   A    
C40   H2    S    
C26   N2    A    
C31   C33   A    
C16   H14   S    
C6    Br2   S    
C40   C42   A    
C12   H18   S    
C24   C41   S    
C41   C43   A    
Cu1   N1    S    
C42   C44   A    
C27   N1    A    
C58   O14   D    
Cu2   O7    S    
C57   O13   D    
C3    C50   A    
C44   C46   A    
C45   C47   A    
C10   C21   S    
C46   C48   A    
C53   O9    D    
Cu1   O4    S    
C39   C41   A    
C55   H23   S    
C5    C7    A    
C3    C51   A    
C6    C8    A    
C53   H21   S    
C25   N1    A    
C32   C34   A    
Cu1   O1    S    
C2    O2    A    
C55   O11   D    
C43   C45   A    
C3    C57   S    
C47   C48   A    
C15   H13   S    
C25   C53   S    
C56   O12   D    
C9    C11   A    
C28   H6    S    
C10   C12   A    
Cu2   N2    S    
C8    C10   A    
C39   C49   A    
C13   H19   S    
C13   C15   A    
C1    O3    A    
C14   C16   A    
C20   C22   A    
C36   C38   A    
C28   N2    A    
Cu2   O6    S    
C52   H12   S    
Cu2   O3    S    
C7    C9    A    
C1    C20   S    
C23   O5    A    
C35   C37   A    
C2    C19   S    
C33   C38   A    
C12   C14   A    
C7    H15   S    
C37   H7    S    
C29   C35   A    
C8    H16   S    
C17   C22   A    
C30   C36   A    
C4    C49   A    
C4    C58   S    
C24   O8    A    
C28   C30   A    
C29   C31   A    
C27   H5    S    
C30   C32   A    
C11   C13   A    
C40   C50   A    
C48   C50   A    
C58   H26   S    
C17   C19   A    
C18   H4    S    
C18   C20   A    
C56   H24   S    
C5    C15   A    
C2    O4    A    
C6    C16   A    
C36   C56   S    
C54   H22   S    
C26   C54   S    
C17   H3    S    
Cu2   O2    S    
C25   C33   A    
C38   H8    S    
C35   C55   S    
