data_mof_unit_57117.cif
_audit_creation_date              2012-12-10T21:10:00-0500
_audit_creation_method            fapswitch 2.2
_symmetry_space_group_name_H-M    P1
_symmetry_Int_Tables_number       1
_space_group_crystal_system       triclinic
_cell_length_a                    12.765549
_cell_length_b                    17.624362
_cell_length_c                    16.895699
_cell_angle_alpha                 91.339308
_cell_angle_beta                  100.346668
_cell_angle_gamma                 93.59032
_cell_volume                      3729.80049875

loop_
_atom_site_label
_atom_site_type_symbol
_atom_type_description
_atom_site_fract_x
_atom_site_fract_y
_atom_site_fract_z
_atom_type_partial_charge
C1    C     C_R   0.504079 0.352952 0.499627 1.017302
C2    C     C_R   0.463415 0.111132 0.487923 -0.298440
C3    C     C_1   0.442383 0.963320 0.488310 0.265348
C4    C     C_1   0.447829 0.030883 0.486344 0.272991
C5    C     C_R   0.430820 0.446940 0.822203 0.185629
C6    C     C_R   0.589969 0.538449 0.181744 0.186929
C7    C     C_R   0.429247 0.451095 0.737435 0.399343
C8    C     C_R   0.580622 0.541356 0.264856 0.402954
C9    C     C_R   0.570367 0.548100 0.761238 0.406846
C10   C     C_R   0.418155 0.463903 0.235939 0.397814
C11   C     C_R   0.556396 0.556683 0.842460 0.275903
C12   C     C_R   0.491892 0.646235 0.499840 1.015568
C13   C     C_R   0.415622 0.473026 0.152054 0.279889
C14   C     C_R   0.492562 0.502875 0.875034 -0.250167
C15   C     C_R   0.504082 0.505749 0.124239 -0.251650
C16   C     C_R   0.297217 0.498905 0.482360 0.970169
C17   C     C_R   0.702830 0.500641 0.517630 0.970865
C18   C     C_1   0.496132 0.504899 0.963098 0.265548
C19   C     C_1   0.501736 0.506690 0.036360 0.264837
C20   C     C_R   0.816933 0.501177 0.531017 -0.182476
C21   C     C_R   0.183140 0.496385 0.468977 -0.184989
C22   C     C_R   0.014522 0.429121 0.416238 0.488018
C23   C     C_R   0.468291 0.727178 0.498730 -0.350146
C24   C     C_R   0.987198 0.564652 0.585816 0.397970
C25   C     C_R   0.123840 0.438480 0.420622 -0.235381
C26   C     C_R   0.878069 0.556531 0.581847 -0.219666
C27   C     C_R   0.135191 0.546415 0.513568 0.396440
C28   C     C_R   0.863667 0.450591 0.485890 0.405824
C29   C     C_R   0.031339 0.527275 0.525529 -0.158236
C30   C     C_R   0.968729 0.467925 0.475006 -0.138713
C31   C     C_R   0.495738 0.852661 0.564437 0.242860
C32   C     C_R   0.500107 0.147263 0.423405 0.249634
C33   C     C_R   0.494416 0.773719 0.569834 0.327462
C34   C     C_R   0.504283 0.268932 0.497431 -0.356995
C35   C     C_R   0.512245 0.227315 0.425667 0.339467
C36   C     C_R   0.415653 0.758493 0.426771 0.304071
C37   C     C_R   0.489374 0.228772 0.566528 0.310182
C38   C     C_R   0.397856 0.836409 0.425164 0.365428
C39   C     C_R   0.454452 0.152004 0.558612 0.350297
C40   C     C_R   0.444122 0.883328 0.492700 -0.296651
Cl1   Cl    Cl    0.793755 0.360874 0.459311 -0.451836
Cl2   Cl    Cl    0.665357 0.607875 0.330005 -0.412867
Cl3   Cl    Cl    0.201631 0.637502 0.539348 -0.432307
Cl4   Cl    Cl    0.615228 0.635972 0.904666 -0.290781
Cl5   Cl    Cl    0.298029 0.449434 0.079641 -0.306424
Cl6   Cl    Cl    0.512273 0.735534 0.667171 -0.332741
Cl7   Cl    Cl    0.539544 0.273586 0.338532 -0.358087
Cl8   Cl    Cl    0.364805 0.700091 0.339407 -0.386186
Cl9   Cl    Cl    0.526005 0.270041 0.665356 -0.378899
Cl10  Cl    Cl    0.334988 0.392061 0.670586 -0.423236
H1    H     H_    0.841618 0.592606 0.619846 0.241765
H2    H     H_    0.303236 0.148145 0.722513 0.419413
H3    H     H_    0.480124 0.331594 0.947708 0.367471
H4    H     H_    0.741271 0.480944 0.083196 0.370789
H5    H     H_    0.162145 0.401244 0.384958 0.243358
H6    H     H_    0.829832 0.660694 0.787666 0.417879
H7    H     H_    0.191768 0.321323 0.204779 0.415105
H8    H     H_    0.873997 0.262470 0.303415 0.416608
H9    H     H_    0.167536 0.519938 0.705035 0.372189
H10   H     H_    0.667104 0.979384 0.585576 0.352998
H11   H     H_    0.629752 0.012150 0.399375 0.354030
H12   H     H_    0.178172 0.835842 0.253105 0.414517
N1    N     N_R   0.500030 0.500030 0.707230 -0.209090
N2    N     N_R   0.499970 0.499970 0.292770 -0.209352
O1    O     O_R   0.500000 0.389130 0.566570 -0.560280
O2    O     O_2   0.680047 0.628294 0.664383 -0.294701
O3    O     O_3   0.772379 0.636261 0.812601 -0.399320
O4    O     O_2   0.329752 0.372879 0.340415 -0.302435
O5    O     O_2   0.219577 0.464312 0.263139 -0.233670
O6    O     O_3   0.261321 0.340641 0.192307 -0.420094
O7    O     O_2   0.836267 0.411407 0.302345 -0.220448
O8    O     O_2   0.004155 0.381512 0.262508 -0.227573
O9    O     O_3   0.921512 0.285991 0.351743 -0.457179
O10   O     O_2   0.077140 0.694589 0.661260 -0.139430
O11   O     O_2   0.004411 0.600025 0.743418 -0.229721
O12   O     O_R   0.500000 0.610870 0.433430 -0.562977
O13   O     O_3   0.183186 0.575023 0.698841 -0.452930
O14   O     O_2   0.484417 0.928295 0.701533 -0.103333
O15   O     O_2   0.653096 0.872051 0.696087 -0.164543
O16   O     O_3   0.614870 0.994285 0.618941 -0.514207
O17   O     O_2   0.426384 0.087170 0.275204 -0.121615
O18   O     O_2   0.615028 0.131151 0.303306 -0.173791
O19   O     O_3   0.560400 0.004790 0.361922 -0.503349
O20   O     O_2   0.289597 0.953081 0.351172 -0.239402
O21   O     O_2   0.386958 0.874705 0.271489 -0.156529
O22   O     O_3   0.209247 0.817700 0.306744 -0.435216
O23   O     O_R   0.499990 0.389100 0.433480 -0.540425
O24   O     O_2   0.331710 0.037649 0.610960 -0.246012
O25   O     O_2   0.488894 0.092656 0.704986 -0.136709
O26   O     O_3   0.322588 0.171556 0.673923 -0.433093
O27   O     O_2   0.245680 0.402767 0.865585 -0.146650
O28   O     O_2   0.337687 0.302705 0.809338 -0.159454
O29   O     O_3   0.411428 0.351683 0.954576 -0.475626
O30   O     O_2   0.689338 0.661120 0.131210 -0.124396
O31   O     O_2   0.803018 0.575919 0.214612 -0.160657
O32   O     O_3   0.728888 0.533698 0.066743 -0.474779
O33   O     O_R   0.500010 0.610900 0.566520 -0.547973
O34   O     O_R   0.346360 0.500000 0.555540 -0.576450
O35   O     O_R   0.653640 0.500000 0.444460 -0.569143
O36   O     O_R   0.346350 0.499970 0.422460 -0.562662
O37   O     O_R   0.653650 0.500030 0.577540 -0.561111
O38   O     O_2   0.755969 0.514021 0.725192 -0.264727
S1    S     S_3+6 0.695467 0.582225 0.738431 0.134231
S2    S     S_3+6 0.706009 0.579351 0.149849 0.178306
S3    S     S_3+6 0.306320 0.410726 0.261714 0.139348
S4    S     S_3+6 0.941551 0.377763 0.329824 0.133223
S5    S     S_3+6 0.062880 0.610819 0.674368 0.151228
S6    S     S_3+6 0.563030 0.911762 0.648135 0.168469
S7    S     S_3+6 0.525932 0.093117 0.338404 0.167368
S8    S     S_3+6 0.321429 0.873942 0.337056 0.169337
S9    S     S_3+6 0.399367 0.109562 0.638380 0.166319
S10   S     S_3+6 0.353082 0.374171 0.861562 0.165240
Zn1   Zn    Zn3+2 0.500000 0.500020 0.588860 1.145021
Zn2   Zn    Zn3+2 0.500000 0.499980 0.411140 1.148132

loop_
_geom_bond_atom_site_label_1
_geom_bond_atom_site_label_2
_ccdc_geom_bond_type
C1    O23   A    
C13   Cl5   S    
O11   S5    D    
C16   C21   S    
C27   C29   A    
C34   C37   A    
O37   Zn1   S    
C31   S6    S    
C14   C18   S    
H2    O26   S    
C35   Cl7   S    
H9    O13   S    
O35   Zn2   S    
O3    S1    S    
C15   C19   S    
H12   O22   S    
C12   C23   S    
O14   S6    D    
O22   S8    S    
C24   C26   A    
C18   C19   T    
C11   C14   A    
C28   Cl1   S    
C17   C20   S    
C31   C40   A    
C2    C32   A    
C34   C35   A    
C17   O37   A    
C24   C29   A    
O23   Zn2   S    
O10   S5    D    
O24   S9    D    
C2    C39   A    
C23   C33   A    
C22   C25   A    
C1    O1    A    
O19   S7    S    
C6    S2    S    
H7    O6    S    
C38   S8    S    
H4    O32   S    
C9    C11   A    
C39   S9    S    
C21   C27   A    
O30   S2    D    
C33   Cl6   S    
O8    S4    D    
O26   S9    S    
C1    C34   S    
C10   N2    A    
C6    C15   A    
N2    Zn2   S    
C32   S7    S    
H3    O29   S    
O18   S7    D    
O13   S5    S    
O36   Zn2   S    
O21   S8    D    
H11   O19   S    
C5    C7    A    
O5    S3    D    
O28   S10   D    
O34   Zn1   S    
C6    C8    A    
C20   C28   A    
C22   S4    S    
O6    S3    S    
O20   S8    D    
O27   S10   D    
C2    C4    S    
C32   C35   A    
C29   C30   A    
C37   Cl9   S    
O12   Zn2   S    
C9    S1    S    
C31   C33   A    
O16   S6    S    
C12   O33   A    
C11   Cl4   S    
C24   S5    S    
C17   O35   A    
C7    N1    A    
C5    C14   A    
C8    N2    A    
O17   S7    D    
C3    C40   S    
C13   C15   A    
O4    S3    D    
O33   Zn1   S    
C3    C4    T    
O31   S2    D    
O32   S2    S    
C21   C25   A    
H10   O16   S    
C22   C30   A    
C9    N1    A    
O1    Zn1   S    
O2    S1    D    
C16   O36   A    
C25   H5    S    
C7    Cl10  S    
C8    Cl2   S    
C10   C13   A    
C5    S10   S    
H6    O3    S    
O25   S9    D    
C12   O12   A    
C28   C30   A    
C37   C39   A    
C26   H1    S    
C38   C40   A    
C16   O34   A    
O9    S4    S    
C20   C26   A    
C36   C38   A    
O15   S6    D    
C36   Cl8   S    
O38   S1    D    
O29   S10   S    
N1    Zn1   S    
C27   Cl3   S    
C23   C36   A    
O7    S4    D    
C10   S3    S    
H8    O9    S    
