data_mof_unit_35956.cif
_audit_creation_date              2013-03-05T16:03:26-0500
_audit_creation_method            fapswitch 2.2
_symmetry_space_group_name_H-M    P1
_symmetry_Int_Tables_number       1
_space_group_crystal_system       triclinic
_cell_length_a                    14.066553
_cell_length_b                    15.042108
_cell_length_c                    16.781425
_cell_angle_alpha                 89.906796
_cell_angle_beta                  84.418489
_cell_angle_gamma                 91.461584
_cell_volume                      3532.77718686

loop_
_atom_site_label
_atom_site_type_symbol
_atom_site_description
_atom_site_fract_x
_atom_site_fract_y
_atom_site_fract_z
_atom_type_partial_charge
O1    O     O_R   0.419720 0.632140 0.499990 -0.639108
O2    O     O_R   0.580280 0.367860 0.500010 -0.631336
O3    O     O_R   0.580270 0.632160 0.499980 -0.572096
O4    O     O_R   0.419730 0.367840 0.500020 -0.574684
C1    C     C_R   0.500436 0.673210 0.500895 0.962931
C2    C     C_R   0.498938 0.327328 0.500875 0.985664
O5    O     O_R   0.410240 0.500000 0.615800 -0.580228
O6    O     O_R   0.589760 0.500000 0.384200 -0.580120
O7    O     O_R   0.570790 0.500020 0.615800 -0.628921
O8    O     O_R   0.429210 0.499980 0.384200 -0.645595
C3    C     C_R   0.486542 0.501256 0.652977 0.945403
C4    C     C_R   0.513710 0.503404 0.346808 0.913165
Zn1   Zn    Zn3+2 0.392800 0.499980 0.500010 1.014191
Zn2   Zn    Zn3+2 0.607200 0.500020 0.499990 1.022619
C5    C     C_R   0.479661 0.522095 0.737126 -0.026522
C6    C     C_R   0.522359 0.529695 0.262964 -0.012441
C7    C     C_R   0.538613 0.590850 0.761981 -0.264232
C8    C     C_R   0.447628 0.576862 0.234742 -0.170974
C9    C     C_R   0.529253 0.619524 0.841085 0.035275
C10   C     C_R   0.457689 0.614518 0.158589 0.046665
C11   C     C_R   0.465048 0.572156 0.897012 0.127463
C12   C     C_R   0.539370 0.594119 0.106555 0.124841
C13   C     C_R   0.405087 0.504335 0.871087 -0.211257
C14   C     C_R   0.615816 0.550884 0.136026 -0.178069
C15   C     C_R   0.411415 0.480165 0.791083 -0.124354
C16   C     C_R   0.608342 0.521020 0.214751 -0.110570
C17   C     C_2   0.462051 0.585907 0.983333 -0.228919
C18   C     C_2   0.541146 0.603484 0.019645 -0.222002
H1    H     H_    0.587262 0.626438 0.718168 0.153939
H2    H     H_    0.384348 0.590778 0.274484 0.159375
H3    H     H_    0.668394 0.488705 0.237087 0.169260
H4    H     H_    0.365138 0.427539 0.771825 0.219901
H5    H     H_    0.610347 0.609131 0.985033 0.172768
H6    H     H_    0.395823 0.566970 0.018648 0.160761
H7    H     H_    0.354716 0.468563 0.913282 0.147784
H8    H     H_    0.679772 0.536982 0.097164 0.134622
C19   C     C_R   0.467025 0.186619 0.572228 0.270143
C20   C     C_R   0.542141 0.816185 0.434248 0.269736
C21   C     C_R   0.497341 0.232248 0.500950 -0.208507
C22   C     C_R   0.499859 0.769217 0.501511 -0.223474
C23   C     C_R   0.527398 0.187909 0.429942 -0.122904
C24   C     C_R   0.451354 0.813429 0.566883 -0.128738
C25   C     C_R   0.529618 0.095014 0.430501 0.092890
C26   C     C_R   0.458630 0.906501 0.570035 0.092868
C27   C     C_R   0.497999 0.047728 0.501544 0.032200
C28   C     C_R   0.499151 0.954253 0.501853 0.033101
C29   C     C_R   0.464549 0.093504 0.572025 -0.003462
C30   C     C_R   0.536848 0.908830 0.432621 -0.003150
C31   C     C_R   0.561081 0.048232 0.361029 -0.213662
C32   C     C_R   0.424337 0.953161 0.638902 -0.210680
C33   C     C_R   0.564926 0.956783 0.362174 -0.143736
C34   C     C_R   0.430588 0.044999 0.640796 -0.144058
H9    H     H_    0.583360 0.081575 0.304876 0.168214
H10   H     H_    0.394155 0.919577 0.692796 0.161382
H11   H     H_    0.587878 0.924588 0.306355 0.197968
H12   H     H_    0.406911 0.076982 0.696536 0.197950
C35   C     C_R   0.194763 0.436603 0.543131 0.375576
C36   C     C_R   0.805386 0.563842 0.457635 0.362679
N1    N     N_R   0.249970 0.499930 0.499970 -0.157266
N2    N     N_R   0.750030 0.500070 0.500030 -0.163005
C37   C     C_R   0.208589 0.562740 0.456876 -0.153910
C38   C     C_R   0.791512 0.436808 0.542621 -0.129376
C39   C     C_R   0.108450 0.564136 0.455935 0.022248
C40   C     C_R   0.891711 0.435516 0.543792 0.020338
C41   C     C_R   0.050632 0.499754 0.499998 0.062768
C42   C     C_R   0.949567 0.499971 0.499891 0.063787
C43   C     C_R   0.093751 0.435192 0.544181 -0.089665
C44   C     C_R   0.906439 0.564801 0.456074 -0.084033
C45   C     C_R   0.065013 0.628217 0.411893 -0.220084
C46   C     C_R   0.935179 0.371472 0.587892 -0.205807
C47   C     C_R   0.965340 0.628607 0.411853 -0.129188
C48   C     C_R   0.034841 0.371360 0.588321 -0.129956
H13   H     H_    0.253788 0.611748 0.423163 0.159282
H14   H     H_    0.746352 0.387560 0.576044 0.174642
H15   H     H_    0.108135 0.678109 0.377342 0.148607
H16   H     H_    0.892077 0.321445 0.622270 0.152971
H17   H     H_    0.934949 0.679031 0.376666 0.200306
H18   H     H_    0.065230 0.320974 0.623548 0.200936
N3    N     N_R   0.239613 0.371378 0.587286 0.228411
O9    O     O_R   0.243492 0.290249 0.560645 -0.380564
O10   O     O_R   0.250339 0.386277 0.662182 -0.386716
N4    N     N_R   0.760553 0.631640 0.416754 0.227531
O11   O     O_R   0.760922 0.711922 0.445444 -0.377989
O12   O     O_R   0.744481 0.619248 0.342552 -0.361052
C49   C     C_R   0.385240 0.678214 0.136613 0.119220
C50   C     C_R   0.286965 0.657852 0.151997 -0.200982
C51   C     C_R   0.219456 0.718079 0.130989 -0.121386
C52   C     C_R   0.249264 0.799085 0.094753 -0.101164
C53   C     C_R   0.346654 0.820189 0.079717 -0.165570
C54   C     C_R   0.414425 0.760273 0.100731 -0.097004
H19   H     H_    0.262578 0.594949 0.179194 0.126256
H20   H     H_    0.143974 0.701819 0.142631 0.136876
H21   H     H_    0.196888 0.845553 0.078420 0.131044
H22   H     H_    0.369692 0.883045 0.051821 0.129780
H23   H     H_    0.489636 0.777958 0.089239 0.147538
C55   C     C_R   0.580208 0.703057 0.861060 0.095549
C56   C     C_R   0.678800 0.714547 0.839126 -0.173183
C57   C     C_R   0.726319 0.793592 0.857386 -0.121677
C58   C     C_R   0.675868 0.861902 0.897174 -0.091348
C59   C     C_R   0.577735 0.851412 0.918578 -0.142598
C60   C     C_R   0.529929 0.772533 0.900429 -0.154402
H24   H     H_    0.718979 0.662017 0.808662 0.137421
H25   H     H_    0.802324 0.801851 0.840735 0.134828
H26   H     H_    0.712793 0.923028 0.911289 0.130328
H27   H     H_    0.538630 0.904466 0.949147 0.128598
H28   H     H_    0.453736 0.765775 0.916830 0.134713
N5    N     N_R   0.442194 0.235369 0.644690 0.200376
O13   O     O_R   0.504691 0.289092 0.672709 -0.438203
O14   O     O_R   0.356820 0.227737 0.681872 -0.333005
N6    N     N_R   0.580600 0.769036 0.364572 0.224301
O15   O     O_R   0.524406 0.717462 0.327349 -0.436178
O16   O     O_R   0.665555 0.789119 0.330584 -0.319073
C61   C     C_R   0.553846 0.238371 0.354587 0.105979
C62   C     C_R   0.650327 0.255711 0.328330 -0.119508
C63   C     C_R   0.675588 0.291917 0.252218 -0.159028
C64   C     C_R   0.604767 0.310977 0.202223 -0.133900
C65   C     C_R   0.508432 0.296524 0.229166 -0.156538
C66   C     C_R   0.482881 0.260182 0.305171 -0.159293
H29   H     H_    0.705727 0.238635 0.365777 0.141155
H30   H     H_    0.750082 0.304149 0.231562 0.138681
H31   H     H_    0.624491 0.338141 0.142981 0.139030
H32   H     H_    0.453679 0.312478 0.190766 0.141601
H33   H     H_    0.408225 0.246691 0.324671 0.150885
C67   C     C_R   0.382803 0.763920 0.625158 0.125041
C68   C     C_R   0.404067 0.747492 0.703689 -0.205438
C69   C     C_R   0.335859 0.705557 0.758497 -0.122000
C70   C     C_R   0.247692 0.677173 0.734629 -0.092234
C71   C     C_R   0.226175 0.693031 0.656466 -0.130449
C72   C     C_R   0.292717 0.737621 0.602336 -0.073933
H34   H     H_    0.472231 0.769197 0.722740 0.149278
H35   H     H_    0.351010 0.695025 0.819612 0.140499
H36   H     H_    0.195739 0.643666 0.776941 0.132750
H37   H     H_    0.157602 0.671651 0.638035 0.134666
H38   H     H_    0.274460 0.751151 0.542327 0.130952

loop_
_geom_bond_atom_site_label_1
_geom_bond_atom_site_label_2
_geom_bond_distance
_ccdc_geom_bond_type
C42   C44   1.405111 A    
C51   C52   1.397241 A    
C39   C41   1.409469 A    
C69   C70   1.396779 A    
C65   C66   1.397636 A    
C7    H1    1.085179 S    
C35   N3    1.424729 S    
C65   H32   1.082356 S    
C71   C72   1.397051 A    
C62   C63   1.397796 A    
C24   C67   1.489417 S    
C54   H23   1.083075 S    
C21   C23   1.400882 A    
C27   C28   1.406564 A    
O5    C3    1.292611 A    
C59   H27   1.082328 S    
C14   H8    1.083658 S    
O1    C1    1.280078 A    
C9    C11   1.415739 A    
C14   C16   1.388106 A    
C19   N5    1.439379 S    
C50   H19   1.082984 S    
C36   N4    1.422359 S    
C5    C15   1.391911 A    
C41   C43   1.405692 A    
C36   N2    1.372811 A    
C57   H25   1.082375 S    
O4    Zn1   2.032910 S    
C64   C65   1.397672 A    
N2    C38   1.365324 A    
C43   C48   1.412434 A    
C53   H22   1.082370 S    
C45   C47   1.402282 A    
N6    O15   1.297373 A    
C38   C40   1.412142 A    
C70   H36   1.082311 S    
C3    C5    1.441577 S    
C68   H34   1.082670 S    
C30   C33   1.402056 A    
C4    C6    1.453734 S    
C31   C33   1.378207 A    
C32   C34   1.382600 A    
N5    O13   1.300894 A    
C8    H2    1.084165 S    
C40   C46   1.401899 A    
C19   C29   1.400214 A    
C23   C25   1.398530 A    
C20   C30   1.397822 A    
C62   H29   1.083112 S    
C15   H4    1.081811 S    
C22   C24   1.411102 A    
C58   H26   1.082404 S    
C11   C17   1.460310 S    
C16   H3    1.082719 S    
C12   C18   1.462752 S    
C55   C60   1.406377 A    
C55   C56   1.406043 A    
N5    O14   1.300656 A    
O2    C2    1.281515 A    
C24   C26   1.402580 A    
C35   C43   1.418895 A    
C26   C28   1.414062 A    
C56   C57   1.398192 A    
C27   C29   1.416122 A    
C17   H6    1.085703 S    
C6    C16   1.397331 A    
C28   C30   1.413890 A    
N1    C37   1.364607 A    
C64   H31   1.082371 S    
C39   C45   1.401523 A    
O4    C2    1.284785 A    
N3    O10   1.299524 A    
C50   C51   1.398123 A    
C25   C31   1.403005 A    
C33   H11   1.080197 S    
C37   H13   1.082826 S    
C49   C50   1.407182 A    
N3    O9    1.300964 A    
C40   C42   1.409214 A    
O7    Zn2   1.961049 S    
O7    C3    1.285043 A    
C58   C59   1.397026 A    
O6    C4    1.293837 A    
C10   C49   1.488073 S    
C37   C39   1.410927 A    
C32   H10   1.079959 S    
C25   C27   1.415287 A    
O3    Zn2   2.032912 S    
O8    C4    1.288769 A    
C36   C44   1.418857 A    
C10   C12   1.414381 A    
C18   H5    1.085255 S    
C57   C58   1.397318 A    
C13   H7    1.083831 S    
C11   C13   1.403692 A    
C46   H16   1.083505 S    
C68   C69   1.399997 A    
C12   C14   1.400699 A    
C20   N6    1.435999 S    
C70   C71   1.396036 A    
C47   H17   1.082085 S    
C61   C62   1.403325 A    
C26   C32   1.404429 A    
C60   H28   1.082470 S    
C5    C7    1.398635 A    
C52   H21   1.082319 S    
O6    Zn2   1.982078 S    
C56   H24   1.083060 S    
C23   C61   1.484804 S    
O3    C1    1.294091 A    
O8    Zn1   1.961049 S    
C49   C54   1.406535 A    
C63   H30   1.082282 S    
C29   C34   1.401660 A    
Zn1   N1    2.009174 S    
Zn2   N2    2.009173 S    
N4    O12   1.299912 A    
C19   C21   1.402448 A    
C71   H37   1.082618 S    
C20   C22   1.404406 A    
C63   C64   1.398183 A    
C69   H35   1.079859 S    
C44   C47   1.412746 A    
C31   H9    1.082002 S    
C59   C60   1.397533 A    
C7    C9    1.391513 A    
C67   C72   1.406512 A    
C45   H15   1.083650 S    
C8    C10   1.390119 A    
C66   H33   1.083117 S    
C41   C42   1.421905 A    
O2    Zn2   2.014193 S    
N6    O16   1.301188 A    
C72   H38   1.083428 S    
C35   N1    1.373200 A    
C61   C66   1.403089 A    
O5    Zn1   1.982078 S    
C13   C15   1.386582 A    
O1    Zn1   2.014193 S    
C52   C53   1.396961 A    
C6    C8    1.402318 A    
N4    O11   1.300845 A    
C1    C22   1.444424 S    
C48   H18   1.082061 S    
C17   C18   1.340338 D    
C2    C21   1.429807 S    
C38   H14   1.082700 S    
C46   C48   1.402674 A    
C53   C54   1.397715 A    
C51   H20   1.082403 S    
C9    C55   1.485642 S    
C34   H12   1.079995 S    
C67   C68   1.402383 A    
