data_mof_unit_47352.cif
_audit_creation_date              2013-03-05T15:50:32-0500
_audit_creation_method            fapswitch 2.2
_symmetry_space_group_name_H-M    P1
_symmetry_Int_Tables_number       1
_space_group_crystal_system       triclinic
_cell_length_a                    19.645266
_cell_length_b                    7.201687
_cell_length_c                    17.249653
_cell_angle_alpha                 90.000204
_cell_angle_beta                  109.024547
_cell_angle_gamma                 89.998599
_cell_volume                      2307.16403337

loop_
_atom_site_label
_atom_site_type_symbol
_atom_site_description
_atom_site_fract_x
_atom_site_fract_y
_atom_site_fract_z
_atom_type_partial_charge
O1    O     O_R   0.562310 0.505770 0.439670 -0.586742
O2    O     O_R   0.437690 0.005770 0.560330 -0.586742
O3    O     O_R   0.411650 0.169150 0.405330 -0.581572
O4    O     O_R   0.588350 0.669150 0.594670 -0.581575
C1    C     C_R   0.386290 0.345917 0.381426 0.876596
C2    C     C_R   0.613712 0.845914 0.618572 0.876596
O5    O     O_R   0.560140 0.175610 0.430010 -0.575408
O6    O     O_R   0.439860 0.675610 0.569990 -0.575401
O7    O     O_R   0.587240 0.012100 0.585200 -0.593787
O8    O     O_R   0.412760 0.512100 0.414800 -0.593791
C3    C     C_R   0.579295 0.344523 0.413668 0.940705
C4    C     C_R   0.420703 0.844526 0.586330 0.940708
O9    O     O_3   0.508720 0.341420 0.550890 -0.272603
O10   O     O_3   0.491280 0.841420 0.449110 -0.272599
V1    V     V_3+5 0.498380 0.063930 0.490560 1.201024
V2    V     V_3+5 0.501620 0.563930 0.509440 1.201021
C5    C     C_R   0.208925 0.917551 0.907878 0.292484
C6    C     C_R   0.791069 0.417511 0.092113 0.292415
C7    C     C_R   0.133125 0.918108 0.866829 -0.469067
C8    C     C_R   0.866869 0.418110 0.133163 -0.469039
C9    C     C_R   0.107764 0.909409 0.780042 0.302150
C10   C     C_R   0.892229 0.409429 0.219949 0.302101
C11   C     C_R   0.155916 0.912603 0.734557 0.013507
C12   C     C_R   0.844076 0.412613 0.265435 0.013443
C13   C     C_R   0.230489 0.899133 0.775387 -0.048946
C14   C     C_R   0.769506 0.399101 0.224605 -0.048916
C15   C     C_R   0.257339 0.896619 0.862058 -0.012132
C16   C     C_R   0.742656 0.396560 0.137933 -0.012123
C17   C     C_R   0.130463 0.926558 0.648139 -0.061751
C18   C     C_R   0.869525 0.426632 0.351851 -0.061793
C19   C     C_R   0.177545 0.918393 0.602853 -0.243998
C20   C     C_R   0.822445 0.418454 0.397138 -0.243978
C21   C     C_R   0.251298 0.894962 0.642398 0.167338
C22   C     C_R   0.748695 0.394972 0.357594 0.167332
C23   C     C_R   0.278215 0.885328 0.728936 0.086237
C24   C     C_R   0.721780 0.385297 0.271057 0.086234
C25   C     C_R   0.352680 0.860596 0.768772 0.134371
C26   C     C_R   0.647317 0.360537 0.231222 0.134362
C27   C     C_R   0.378869 0.851636 0.854556 -0.193821
C28   C     C_R   0.621130 0.351543 0.145440 -0.193820
C29   C     C_R   0.332083 0.869311 0.900515 -0.077121
C30   C     C_R   0.667916 0.369217 0.099479 -0.077128
C31   C     C_R   0.298467 0.881464 0.596638 -0.246795
C32   C     C_R   0.701526 0.381476 0.403355 -0.246789
C33   C     C_R   0.372290 0.854717 0.635918 -0.123477
C34   C     C_R   0.627706 0.354705 0.364078 -0.123474
C35   C     C_R   0.399364 0.843948 0.721975 -0.195588
C36   C     C_R   0.600633 0.343898 0.278021 -0.195591
H1    H     H_    0.073873 0.945817 0.614608 0.190179
H2    H     H_    0.926110 0.445965 0.385380 0.190163
H3    H     H_    0.156028 0.928678 0.536601 0.146650
H4    H     H_    0.843959 0.428783 0.463387 0.146653
H5    H     H_    0.277797 0.890653 0.530253 0.110347
H6    H     H_    0.722197 0.390690 0.469741 0.110349
H7    H     H_    0.456637 0.824767 0.752254 0.182907
H8    H     H_    0.543361 0.324701 0.247744 0.182910
H9    H     H_    0.435776 0.830347 0.886349 0.170807
H10   H     H_    0.564225 0.330232 0.113648 0.170808
H11   H     H_    0.355104 0.856231 0.966344 0.193882
H12   H     H_    0.644898 0.356111 0.033652 0.193882
C37   C     C_3   0.761054 0.762043 0.834842 -0.357249
C38   C     C_3   0.238948 0.262037 0.165161 -0.357274
H13   H     H_    0.788762 0.628777 0.854137 0.188836
H14   H     H_    0.211240 0.128775 0.145862 0.188850
H15   H     H_    0.748265 0.811031 0.889611 0.222904
H16   H     H_    0.251740 0.311028 0.110395 0.222935
C39   C     C_3   0.690362 0.726832 0.761698 0.267633
C40   C     C_3   0.309637 0.226818 0.238307 0.267633
H17   H     H_    0.694040 0.584295 0.738154 0.069103
H18   H     H_    0.305956 0.084291 0.261858 0.069086
H19   H     H_    0.743723 0.685163 0.633653 0.159519
H20   H     H_    0.256283 0.185224 0.366367 0.159530
C41   C     C_3   0.821165 0.860933 0.728923 0.002709
C42   C     C_3   0.178839 0.360957 0.271080 0.002781
C43   C     C_3   0.764996 0.090641 0.799338 -0.389464
C44   C     C_3   0.235005 0.590639 0.200654 -0.389470
C45   C     C_3   0.810351 0.910269 0.813213 -0.054323
C46   C     C_3   0.189650 0.410271 0.186786 -0.054370
H21   H     H_    0.796465 0.209614 0.789214 0.169366
H22   H     H_    0.203537 0.709620 0.210777 0.169379
H23   H     H_    0.750215 0.122268 0.854677 0.245256
H24   H     H_    0.249781 0.622256 0.145311 0.245243
C47   C     C_3   0.684235 0.866197 0.690402 -0.084921
C48   C     C_3   0.315768 0.366206 0.309596 -0.084905
C49   C     C_3   0.748138 0.827775 0.659233 -0.476923
C50   C     C_3   0.251866 0.327821 0.340771 -0.476961
C51   C     C_3   0.694829 0.069780 0.725281 -0.284337
C52   C     C_3   0.305176 0.569780 0.274707 -0.284331
H25   H     H_    0.647898 0.114409 0.743109 0.216740
H26   H     H_    0.352105 0.614383 0.256871 0.216741
H27   H     H_    0.697872 0.168203 0.676720 0.158724
H28   H     H_    0.302139 0.668223 0.323264 0.158732
H29   H     H_    0.843812 0.988342 0.710444 0.143188
H30   H     H_    0.156186 0.488365 0.289553 0.143209
H31   H     H_    0.744839 0.921827 0.606847 0.161243
H32   H     H_    0.255166 0.421905 0.393147 0.161245
O11   O     O_R   0.087220 0.271820 0.085230 -0.604172
O12   O     O_R   0.912780 0.771820 0.914770 -0.604173
O13   O     O_R   0.939860 0.595540 0.069990 -0.579889
O14   O     O_R   0.060140 0.095540 0.930010 -0.579942
C53   C     C_R   0.919214 0.426860 0.085766 1.093827
C54   C     C_R   0.080783 0.926858 0.914230 1.093650
O15   O     O_R   0.088340 0.601930 0.094680 -0.575048
O16   O     O_R   0.911660 0.101930 0.905320 -0.575066
O17   O     O_R   0.062310 0.765410 0.939660 -0.573433
O18   O     O_R   0.937690 0.265410 0.060340 -0.573457
C55   C     C_R   0.116940 0.431888 0.116575 0.896110
C56   C     C_R   0.883060 0.931890 0.883425 0.896018
O19   O     O_3   0.991270 0.429630 0.949130 -0.291189
O20   O     O_3   0.008730 0.929630 0.050870 -0.291151
V3    V     V_3+5 0.001620 0.707150 0.009440 1.203545
V4    V     V_3+5 0.998380 0.207150 0.990560 1.203502
N1    N     N_R   0.236769 0.943956 0.995206 0.220536
O21   O     O_R   0.206749 0.863001 0.043065 -0.475336
O22   O     O_R   0.288439 0.062361 0.026543 -0.395280
N2    N     N_R   0.763226 0.443896 0.004781 0.220534
O23   O     O_R   0.793259 0.362980 0.956930 -0.475358
O24   O     O_R   0.711539 0.562264 0.973438 -0.395246
N3    N     N_R   0.626838 0.732292 0.788720 0.238998
O25   O     O_R   0.613067 0.876629 0.826509 -0.411124
O26   O     O_R   0.585350 0.587242 0.778520 -0.383037
N4    N     N_R   0.373162 0.232236 0.211287 0.238996
O27   O     O_R   0.386941 0.376556 0.173494 -0.411122
O28   O     O_R   0.414644 0.087167 0.221490 -0.383044
C57   C     C_3   0.877424 0.710720 0.729997 -0.276998
C58   C     C_3   0.862311 0.512884 0.751888 -0.431554
C59   C     C_3   0.915069 0.378398 0.734362 -0.649687
H33   H     H_    0.903487 0.362657 0.667220 0.246894
H34   H     H_    0.971432 0.426383 0.763420 0.280903
H35   H     H_    0.909549 0.242628 0.761334 0.244132
H36   H     H_    0.870745 0.501970 0.818182 0.251459
H37   H     H_    0.806789 0.469102 0.716737 0.190715
H38   H     H_    0.882523 0.708763 0.667651 0.238832
H39   H     H_    0.929748 0.752697 0.774362 0.216395
C60   C     C_3   0.122589 0.210734 0.270015 -0.277006
C61   C     C_3   0.137717 0.012913 0.248122 -0.431615
C62   C     C_3   0.084993 0.878395 0.265685 -0.649883
H40   H     H_    0.096626 0.862586 0.332833 0.246820
H41   H     H_    0.028621 0.926382 0.236685 0.280940
H42   H     H_    0.090497 0.742666 0.238674 0.244238
H43   H     H_    0.129256 0.001998 0.181822 0.251472
H44   H     H_    0.193251 0.969167 0.283249 0.190748
H45   H     H_    0.117497 0.208769 0.332364 0.238827
H46   H     H_    0.070259 0.252686 0.225654 0.216440
N5    N     N_R   0.033107 0.884388 0.737128 0.195443
O29   O     O_R   0.990501 0.026649 0.725692 -0.494958
O30   O     O_R   0.013097 0.739835 0.689865 -0.460162
N6    N     N_R   0.966892 0.384510 0.262865 0.195490
O31   O     O_R   0.009494 0.526744 0.274146 -0.495020
O32   O     O_R   0.986941 0.240105 0.310216 -0.460171

loop_
_geom_bond_atom_site_label_1
_geom_bond_atom_site_label_2
_geom_bond_distance
_ccdc_geom_bond_type
C57   H39   1.104903 S    
C47   C51   1.572650 S    
C39   C47   1.561342 S    
C58   C59   1.519162 S    
C51   H27   1.113688 S    
C52   H26   1.110299 S    
O1    C3    1.326113 A    
C41   H29   1.110837 S    
O2    C4    1.326113 A    
C2    O7    1.356103 A    
N5    O29   1.296708 A    
C5    N1    1.437826 S    
C60   C61   1.527638 S    
C27   C29   1.401622 A    
C17   H1    1.081898 S    
O5    C3    1.330424 A    
C62   H41   1.111264 S    
C11   C17   1.412910 A    
C23   C25   1.410171 A    
C48   C50   1.543259 S    
C7    C54   1.509299 S    
C41   C57   1.542318 S    
C57   H38   1.112223 S    
C27   H9    1.083685 S    
O12   C56   1.325247 A    
N2    O23   1.298640 A    
C54   O17   1.334090 A    
O15   V3    2.001347 S    
C37   H13   1.100017 S    
C37   C39   1.562857 S    
O20   V3    1.741352 S    
C20   H4    1.084078 S    
C61   H44   1.107090 S    
O5    V1    2.009005 S    
H19   C49   1.110000 S    
C51   H25   1.110297 S    
C31   H5    1.085096 S    
C52   H28   1.113689 S    
C37   C45   1.565956 S    
C38   H14   1.100016 S    
C19   C21   1.395979 A    
C2    C47   1.535222 S    
C25   C35   1.410591 A    
C44   C52   1.551320 S    
C26   C36   1.410610 A    
C36   H8    1.083827 S    
C28   C30   1.401634 A    
O17   V3    1.995507 S    
O6    V2    2.008973 S    
N5    O30   1.301547 A    
C32   C34   1.399577 A    
C33   C35   1.406328 A    
C62   H42   1.103223 S    
C34   C36   1.406338 A    
C28   H10   1.083681 S    
C38   H16   1.111252 S    
C44   C46   1.549035 S    
C5    C15   1.429028 A    
C48   C52   1.572645 S    
C6    C16   1.429025 A    
N6    O31   1.296694 A    
C29   H11   1.080753 S    
O4    C2    1.380165 A    
O19   V4    1.741350 S    
C40   N4    1.468128 S    
O16   V4    2.001374 S    
O11   V4    2.017828 S    
C43   H23   1.108200 S    
O18   V4    1.995490 S    
C8    C53   1.509287 S    
C20   C22   1.395965 A    
C46   C55   1.550334 S    
C39   H17   1.114902 S    
C40   C48   1.561344 S    
O4    V2    2.001417 S    
C59   H34   1.111259 S    
C61   H43   1.103545 S    
C18   C20   1.392927 A    
C32   H6    1.085108 S    
C43   C45   1.549022 S    
C15   C29   1.414126 A    
C58   H37   1.107089 S    
O6    C4    1.330429 A    
O13   V3    2.008799 S    
C42   C60   1.542305 S    
O14   C54   1.336496 A    
C22   C32   1.402877 A    
O1    V2    1.995205 S    
C42   C50   1.560742 S    
O2    V1    1.995214 S    
C31   C33   1.399587 A    
C41   C49   1.560749 S    
N3    O26   1.301157 A    
C50   H32   1.114166 S    
C13   C23   1.421533 A    
N6    O32   1.301550 A    
C43   C51   1.551311 S    
C60   H46   1.104907 S    
C47   C49   1.543267 S    
C10   N6    1.422579 S    
O14   V4    2.008776 S    
C9    C11   1.412397 A    
C57   C58   1.527673 S    
C10   C12   1.412417 A    
C43   H21   1.103286 S    
C8    C10   1.416687 A    
C6    N2    1.437861 S    
C59   H33   1.110949 S    
C30   H12   1.080733 S    
O16   C56   1.348923 A    
O3    V1    2.001387 S    
C35   H7    1.083829 S    
N1    O21   1.298709 A    
C14   C24   1.421553 A    
C53   O18   1.334083 A    
C1    C48   1.535205 S    
O12   V3    2.017809 S    
O13   C53   1.336505 A    
C38   C46   1.565947 S    
C45   C56   1.550330 S    
C44   H22   1.103283 S    
C19   H3    1.084100 S    
C4    C33   1.473764 S    
O3    C1    1.380161 A    
C6    C8    1.425288 A    
H20   C50   1.110002 S    
N3    O25   1.301364 A    
C13   C15   1.414084 A    
C62   H40   1.110953 S    
C14   C16   1.414079 A    
C38   C40   1.562854 S    
C24   C26   1.410156 A    
O7    V1    1.998458 S    
C59   H35   1.103242 S    
C1    O8    1.356101 A    
C25   C27   1.400764 A    
O8    V2    1.998471 S    
C26   C28   1.400763 A    
C49   H31   1.114166 S    
C12   C14   1.406748 A    
C39   N3    1.468133 S    
C58   H36   1.103537 S    
C44   H24   1.108204 S    
C16   C30   1.414118 A    
C60   H45   1.112228 S    
C21   C23   1.413544 A    
N2    O24   1.300803 A    
C22   C24   1.413540 A    
C11   C13   1.406763 A    
C18   H2    1.081864 S    
C12   C18   1.412906 A    
O11   C55   1.325260 A    
C5    C7    1.425283 A    
C37   H15   1.111254 S    
C17   C19   1.392918 A    
C42   C46   1.576946 S    
O9    V2    1.741692 S    
C42   H30   1.110820 S    
C40   H18   1.114897 S    
C41   C45   1.576946 S    
O10   V1    1.741694 S    
C61   C62   1.519125 S    
C3    C34   1.473754 S    
O15   C55   1.348913 A    
N1    O22   1.300776 A    
N4    O27   1.301375 A    
C21   C31   1.402867 A    
N4    O28   1.301157 A    
C9    N5    1.422573 S    
C7    C9    1.416702 A    
