data_mof_unit_55246.cif
_audit_creation_date              2012-12-10T17:18:39-0500
_audit_creation_method            fapswitch 2.2
_symmetry_space_group_name_H-M    P1
_symmetry_Int_Tables_number       1
_space_group_crystal_system       triclinic
_cell_length_a                    25.918139
_cell_length_b                    26.139104
_cell_length_c                    25.869742
_cell_angle_alpha                 90.160674
_cell_angle_beta                  89.871123
_cell_angle_gamma                 90.013783
_cell_volume                      17526.0396805

loop_
_atom_site_label
_atom_site_type_symbol
_atom_type_description
_atom_site_fract_x
_atom_site_fract_y
_atom_site_fract_z
_atom_type_partial_charge
C1    C     C_R   0.753019 0.609745 0.747397 0.810396
C2    C     C_R   0.249359 0.390051 0.250218 0.782058
C3    C     C_R   0.746905 0.609787 0.247570 0.811353
C4    C     C_R   0.247638 0.390316 0.747167 0.811027
C5    C     C_R   0.251005 0.610144 0.249411 0.782698
C6    C     C_R   0.746465 0.390098 0.753116 0.808100
C7    C     C_R   0.253454 0.609974 0.753571 0.805396
C8    C     C_R   0.753112 0.390217 0.252442 0.811872
C9    C     C_R   0.610222 0.249724 0.250152 0.786250
C10   C     C_R   0.389863 0.748971 0.750803 0.788030
C11   C     C_R   0.610173 0.750163 0.250369 0.785016
C12   C     C_R   0.389884 0.249515 0.749472 0.787424
C13   C     C_R   0.610177 0.750579 0.749569 0.789456
C14   C     C_R   0.390056 0.250871 0.249899 0.798451
C15   C     C_R   0.610302 0.250921 0.750913 0.777519
C16   C     C_R   0.389824 0.749681 0.249478 0.783921
C17   C     C_R   0.245910 0.746773 0.389711 0.816727
C18   C     C_R   0.750605 0.249803 0.609979 0.802974
C19   C     C_R   0.750107 0.749725 0.389773 0.786520
C20   C     C_R   0.250088 0.249666 0.610181 0.784687
C21   C     C_R   0.750081 0.250182 0.389732 0.781501
C22   C     C_R   0.249359 0.749255 0.609693 0.802396
C23   C     C_R   0.249813 0.250537 0.389814 0.785991
C24   C     C_R   0.749944 0.750031 0.610165 0.783313
C25   C     C_R   0.249223 0.109734 0.750709 0.821892
C26   C     C_R   0.750158 0.890190 0.250070 0.796973
C27   C     C_R   0.749789 0.110099 0.749791 0.807323
C28   C     C_R   0.249298 0.889776 0.248809 0.792967
C29   C     C_R   0.749949 0.110226 0.250032 0.783966
C30   C     C_R   0.249861 0.889939 0.750374 0.803762
C31   C     C_R   0.249139 0.109721 0.249375 0.807425
C32   C     C_R   0.749543 0.890333 0.749650 0.823116
C33   C     C_R   0.110186 0.249886 0.750003 0.784096
C34   C     C_R   0.889826 0.750794 0.249646 0.795840
C35   C     C_R   0.110024 0.249640 0.250156 0.781273
C36   C     C_R   0.889818 0.750069 0.750027 0.783603
C37   C     C_R   0.109886 0.750281 0.248755 0.808739
C38   C     C_R   0.889974 0.249376 0.751463 0.793048
C39   C     C_R   0.110158 0.750219 0.750379 0.784727
C40   C     C_R   0.889678 0.249659 0.249695 0.778922
C41   C     C_R   0.250813 0.251073 0.889698 0.785281
C42   C     C_R   0.750149 0.749841 0.110216 0.780753
C43   C     C_R   0.249453 0.750582 0.889787 0.781436
C44   C     C_R   0.750979 0.249184 0.110189 0.783314
C45   C     C_R   0.749939 0.749980 0.889822 0.786495
C46   C     C_R   0.249561 0.249619 0.110099 0.784371
C47   C     C_R   0.748447 0.250986 0.889814 0.778843
C48   C     C_R   0.249771 0.750090 0.110213 0.781412
C49   C     C_R   0.552448 0.841510 0.724820 -0.227313
C50   C     C_R   0.450968 0.346455 0.266213 -0.223672
C51   C     C_R   0.702232 0.831383 0.446161 -0.224727
C52   C     C_R   0.279132 0.159641 0.552178 -0.236577
C53   C     C_R   0.445500 0.770802 0.342903 -0.215151
C54   C     C_R   0.555768 0.174370 0.695148 -0.233831
C55   C     C_R   0.262434 0.650959 0.553169 -0.206508
C56   C     C_R   0.654747 0.241334 0.446320 -0.211488
C57   C     C_R   0.554995 0.343905 0.243169 -0.187161
C58   C     C_R   0.445503 0.838168 0.718711 -0.224434
C59   C     C_R   0.654363 0.243362 0.553253 -0.208408
C60   C     C_R   0.265159 0.650402 0.446172 -0.215608
C61   C     C_R   0.448419 0.174335 0.691888 -0.222530
C62   C     C_R   0.552476 0.767568 0.344657 -0.218642
C63   C     C_R   0.292929 0.166267 0.445800 -0.225207
C64   C     C_R   0.707320 0.834606 0.553540 -0.225751
C65   C     C_R   0.679187 0.546627 0.318556 -0.186375
C66   C     C_R   0.315842 0.451848 0.676532 -0.184511
C67   C     C_R   0.671512 0.453071 0.690586 -0.186001
C68   C     C_R   0.164623 0.554774 0.288937 -0.219693
C69   C     C_R   0.156164 0.450029 0.271684 -0.226394
C70   C     C_R   0.709921 0.547658 0.661679 -0.188030
C71   C     C_R   0.340712 0.549228 0.709882 -0.182057
C72   C     C_R   0.718915 0.451262 0.342227 -0.183038
C73   C     C_R   0.053007 0.277528 0.659099 -0.227285
C74   C     C_R   0.947247 0.847091 0.256525 -0.215420
C75   C     C_R   0.655885 0.274795 0.949214 -0.230794
C76   C     C_R   0.302112 0.671681 0.053049 -0.226107
C77   C     C_R   0.944995 0.319922 0.312985 -0.230714
C78   C     C_R   0.053907 0.732489 0.656152 -0.217778
C79   C     C_R   0.211423 0.162839 0.051458 -0.226119
C80   C     C_R   0.799312 0.830877 0.946503 -0.223406
C81   C     C_R   0.053664 0.846356 0.254447 -0.213374
C82   C     C_R   0.946233 0.286929 0.663438 -0.229360
C83   C     C_R   0.804665 0.827374 0.053877 -0.222452
C84   C     C_R   0.216364 0.163162 0.944094 -0.227545
C85   C     C_R   0.946914 0.732106 0.655940 -0.221959
C86   C     C_R   0.051920 0.313214 0.321255 -0.225576
C87   C     C_R   0.303940 0.673509 0.945484 -0.232619
C88   C     C_R   0.661732 0.283438 0.056163 -0.216058
C89   C     C_R   0.271277 0.343333 0.947100 -0.221372
C90   C     C_R   0.707794 0.665104 0.053717 -0.223713
C91   C     C_R   0.223012 0.047133 0.342983 -0.220622
C92   C     C_R   0.820568 0.953584 0.682482 -0.199778
C93   C     C_R   0.190319 0.824168 0.054514 -0.228901
C94   C     C_R   0.828714 0.199469 0.944130 -0.222760
C95   C     C_R   0.156203 0.948636 0.726059 -0.191633
C96   C     C_R   0.745969 0.054487 0.345341 -0.199005
C97   C     C_R   0.707873 0.665060 0.946189 -0.216104
C98   C     C_R   0.272347 0.342107 0.054352 -0.216265
C99   C     C_R   0.762468 0.950163 0.346851 -0.215652
C100  C     C_R   0.173954 0.045982 0.688595 -0.204002
C101  C     C_R   0.836695 0.208509 0.051060 -0.222544
C102  C     C_R   0.192751 0.826584 0.946940 -0.221738
C103  C     C_R   0.840963 0.049888 0.721795 -0.195101
C104  C     C_R   0.257937 0.947260 0.342230 -0.189672
C105  C     C_R   0.314777 0.047631 0.823236 -0.194718
C106  C     C_R   0.743820 0.949069 0.153065 -0.218914
C107  C     C_R   0.052790 0.761073 0.845948 -0.222731
C108  C     C_R   0.945340 0.165385 0.206715 -0.221939
C109  C     C_R   0.674749 0.954099 0.813221 -0.208962
C110  C     C_R   0.268275 0.050983 0.152880 -0.212633
C111  C     C_R   0.949909 0.253313 0.848793 -0.229270
C112  C     C_R   0.047038 0.659748 0.212331 -0.220203
C113  C     C_R   0.757213 0.053972 0.154861 -0.198831
C114  C     C_R   0.338604 0.951141 0.786583 -0.184072
C115  C     C_R   0.946721 0.657226 0.248056 -0.187126
C116  C     C_R   0.055070 0.234834 0.844525 -0.204358
C117  C     C_R   0.257099 0.946050 0.152057 -0.199117
C118  C     C_R   0.656605 0.051271 0.775425 -0.176350
C119  C     C_R   0.052723 0.164020 0.207781 -0.224702
C120  C     C_R   0.945918 0.763712 0.845070 -0.216822
C121  C     C_R   0.553128 0.155942 0.264876 -0.217755
C122  C     C_R   0.448129 0.657131 0.775540 -0.229480
C123  C     C_R   0.219948 0.340649 0.447395 -0.222551
C124  C     C_R   0.787960 0.663116 0.553485 -0.224269
C125  C     C_R   0.445527 0.325757 0.806790 -0.225212
C126  C     C_R   0.554484 0.730059 0.156611 -0.212187
C127  C     C_R   0.846578 0.230056 0.549649 -0.219018
C128  C     C_R   0.171094 0.811071 0.451754 -0.181391
C129  C     C_R   0.555249 0.659011 0.773584 -0.219758
C130  C     C_R   0.446157 0.156652 0.265118 -0.212063
C131  C     C_R   0.212300 0.835348 0.547167 -0.177953
C132  C     C_R   0.845720 0.249615 0.445080 -0.192843
C133  C     C_R   0.447525 0.733835 0.154860 -0.218479
C134  C     C_R   0.552844 0.329360 0.803598 -0.240001
C135  C     C_R   0.787819 0.662896 0.445995 -0.218732
C136  C     C_R   0.214994 0.337841 0.554701 -0.225616
C137  C     C_R   0.195409 0.547226 0.831452 -0.180202
C138  C     C_R   0.820840 0.453392 0.181422 -0.186523
C139  C     C_R   0.335532 0.446363 0.207728 -0.224182
C140  C     C_R   0.824994 0.546588 0.813318 -0.206349
C141  C     C_R   0.786652 0.451545 0.840698 -0.189294
C142  C     C_R   0.341661 0.552076 0.219527 -0.222408
C143  C     C_R   0.781153 0.548794 0.157820 -0.184682
C144  C     C_R   0.164132 0.452970 0.793827 -0.196917
C145  C     C_R   0.525215 0.885043 0.710081 0.212769
C146  C     C_R   0.480567 0.390800 0.271593 0.181017
C147  C     C_R   0.679449 0.871981 0.472852 0.205364
C148  C     C_R   0.298587 0.117773 0.524852 0.219905
C149  C     C_R   0.471322 0.777808 0.389529 0.192703
C150  C     C_R   0.530357 0.138140 0.665174 0.201335
C151  C     C_R   0.276374 0.606552 0.526547 0.192942
C152  C     C_R   0.607905 0.240860 0.472643 0.193396
C153  C     C_R   0.532181 0.390235 0.256388 0.210793
C154  C     C_R   0.471546 0.882930 0.705494 0.192134
C155  C     C_R   0.607653 0.242720 0.526535 0.196883
C156  C     C_R   0.280112 0.606992 0.472834 0.197441
C157  C     C_R   0.476428 0.138269 0.663299 0.214226
C158  C     C_R   0.525170 0.775531 0.390558 0.196878
C159  C     C_R   0.309106 0.122562 0.471993 0.193444
C160  C     C_R   0.683387 0.874354 0.526767 0.213884
C161  C     C_R   0.663027 0.521837 0.363468 0.176885
C162  C     C_R   0.360648 0.475094 0.658198 0.185208
C163  C     C_R   0.651328 0.477513 0.647196 0.175734
C164  C     C_R   0.118246 0.530144 0.299273 0.201189
C165  C     C_R   0.112794 0.478565 0.286163 0.219485
C166  C     C_R   0.672568 0.524046 0.631191 0.185169
C167  C     C_R   0.373738 0.523904 0.675737 0.192810
C168  C     C_R   0.685043 0.474876 0.376713 0.187156
C169  C     C_R   0.026442 0.297935 0.617214 0.213687
C170  C     C_R   0.974144 0.892089 0.266844 0.193653
C171  C     C_R   0.611423 0.285652 0.978006 0.203507
C172  C     C_R   0.328899 0.633993 0.025826 0.216447
C173  C     C_R   0.970356 0.348136 0.350855 0.211562
C174  C     C_R   0.027626 0.725070 0.609795 0.190263
C175  C     C_R   0.192828 0.120972 0.023146 0.212548
C176  C     C_R   0.827198 0.868229 0.973181 0.213393
C177  C     C_R   0.027923 0.891571 0.266317 0.199284
C178  C     C_R   0.973022 0.304922 0.620292 0.185086
C179  C     C_R   0.830838 0.865821 0.027158 0.207481
C180  C     C_R   0.196456 0.120785 0.969278 0.204453
C181  C     C_R   0.973707 0.724680 0.609708 0.199070
C182  C     C_R   0.023891 0.343352 0.356184 0.227803
C183  C     C_R   0.330168 0.635177 0.971859 0.208542
C184  C     C_R   0.614885 0.292126 0.031572 0.195101
C185  C     C_R   0.277104 0.389054 0.974245 0.208549
C186  C     C_R   0.687950 0.623080 0.026968 0.199499
C187  C     C_R   0.225083 0.019479 0.389046 0.185213
C188  C     C_R   0.864795 0.979714 0.666423 0.174442
C189  C     C_R   0.161028 0.860429 0.028149 0.209732
C190  C     C_R   0.869675 0.176221 0.969605 0.193877
C191  C     C_R   0.118393 0.972458 0.696443 0.185834
C192  C     C_R   0.756811 0.030743 0.392008 0.203785
C193  C     C_R   0.688288 0.622931 0.972843 0.207783
C194  C     C_R   0.277798 0.388388 0.028272 0.201200
C195  C     C_R   0.767907 0.978607 0.392326 0.188598
C196  C     C_R   0.129123 0.020095 0.674440 0.187417
C197  C     C_R   0.875215 0.183185 0.022950 0.224878
C198  C     C_R   0.162578 0.861928 0.974018 0.217238
C199  C     C_R   0.876699 0.026860 0.689080 0.182964
C200  C     C_R   0.247813 0.971150 0.389065 0.208296
C201  C     C_R   0.358509 0.022612 0.841785 0.178101
C202  C     C_R   0.740416 0.976908 0.107158 0.187667
C203  C     C_R   0.025744 0.762754 0.892579 0.199711
C204  C     C_R   0.971353 0.121512 0.190823 0.214533
C205  C     C_R   0.630699 0.980723 0.828899 0.174424
C206  C     C_R   0.281948 0.023364 0.108730 0.186342
C207  C     C_R   0.979290 0.255621 0.894002 0.195558
C208  C     C_R   0.018526 0.614621 0.208247 0.172956
C209  C     C_R   0.750009 0.029359 0.107798 0.204135
C210  C     C_R   0.372101 0.975151 0.820916 0.186882
C211  C     C_R   0.969022 0.612550 0.229300 0.215051
C212  C     C_R   0.031525 0.242672 0.892251 0.208626
C213  C     C_R   0.274076 0.970695 0.107567 0.203178
C214  C     C_R   0.619632 0.028165 0.806746 0.196291
C215  C     C_R   0.025333 0.120787 0.191471 0.214394
C216  C     C_R   0.971948 0.764636 0.892108 0.199859
C217  C     C_R   0.526291 0.110174 0.271271 0.188921
C218  C     C_R   0.476146 0.612251 0.784957 0.204194
C219  C     C_R   0.204537 0.384168 0.474782 0.224800
C220  C     C_R   0.805496 0.620060 0.526675 0.198369
C221  C     C_R   0.471738 0.363628 0.834360 0.210719
C222  C     C_R   0.528650 0.724978 0.109731 0.200297
C223  C     C_R   0.890960 0.221053 0.520417 0.186407
C224  C     C_R   0.154119 0.854929 0.477381 0.174067
C225  C     C_R   0.529961 0.613209 0.782820 0.210087
C226  C     C_R   0.472379 0.110494 0.271127 0.193899
C227  C     C_R   0.176821 0.868381 0.524440 0.202414
C228  C     C_R   0.891234 0.233384 0.468140 0.205983
C229  C     C_R   0.474864 0.727714 0.108729 0.202265
C230  C     C_R   0.525694 0.366072 0.831930 0.210965
C231  C     C_R   0.805254 0.619888 0.472553 0.206270
C232  C     C_R   0.200540 0.382201 0.528698 0.213444
C233  C     C_R   0.152903 0.522951 0.853690 0.175363
C234  C     C_R   0.836990 0.478214 0.136503 0.181478
C235  C     C_R   0.379203 0.472534 0.190255 0.205973
C236  C     C_R   0.844121 0.522117 0.857180 0.168583
C237  C     C_R   0.823056 0.475218 0.872241 0.182860
C238  C     C_R   0.383741 0.525140 0.199591 0.226718
C239  C     C_R   0.814934 0.525168 0.123275 0.185444
C240  C     C_R   0.135613 0.476554 0.832981 0.170378
C241  C     C_R   0.472354 0.794255 0.736124 0.055321
C242  C     C_R   0.528065 0.297001 0.249111 0.041591
C243  C     C_R   0.728691 0.792068 0.527131 0.049574
C244  C     C_R   0.269143 0.207405 0.472376 0.050723
C245  C     C_R   0.526737 0.758447 0.297127 0.041760
C246  C     C_R   0.473802 0.211954 0.721889 0.045650
C247  C     C_R   0.252872 0.696542 0.472249 0.050396
C248  C     C_R   0.702581 0.246591 0.527031 0.046072
C249  C     C_R   0.474209 0.298075 0.255672 0.053578
C250  C     C_R   0.526691 0.795432 0.737595 0.042386
C251  C     C_R   0.702514 0.246569 0.472638 0.048839
C252  C     C_R   0.254063 0.697794 0.526918 0.053065
C253  C     C_R   0.528217 0.212145 0.723041 0.060196
C254  C     C_R   0.472376 0.759314 0.296481 0.043460
C255  C     C_R   0.265601 0.205588 0.526659 0.043646
C256  C     C_R   0.727413 0.791225 0.472682 0.057608
C257  C     C_R   0.731739 0.474066 0.294326 0.048239
C258  C     C_R   0.294613 0.526265 0.728241 0.060731
C259  C     C_R   0.726849 0.525531 0.708522 0.047167
C260  C     C_R   0.204346 0.474129 0.262950 0.047471
C261  C     C_R   0.206868 0.527987 0.267260 0.054002
C262  C     C_R   0.713178 0.474358 0.718786 0.055654
C263  C     C_R   0.285232 0.474391 0.716115 0.053388
C264  C     C_R   0.717758 0.525465 0.285915 0.054758
C265  C     C_R   0.972638 0.265729 0.706228 0.061262
C266  C     C_R   0.027222 0.798850 0.250756 0.038450
C267  C     C_R   0.705464 0.266021 0.028350 0.045401
C268  C     C_R   0.276168 0.711781 0.972419 0.049178
C269  C     C_R   0.026463 0.283225 0.283601 0.052096
C270  C     C_R   0.973005 0.742068 0.703100 0.042362
C271  C     C_R   0.233824 0.206591 0.971745 0.057740
C272  C     C_R   0.776157 0.789335 0.027359 0.057095
C273  C     C_R   0.972879 0.799137 0.252345 0.044249
C274  C     C_R   0.026955 0.263152 0.704932 0.044832
C275  C     C_R   0.774592 0.790312 0.972918 0.052886
C276  C     C_R   0.232390 0.206189 0.026201 0.056281
C277  C     C_R   0.027364 0.742122 0.703243 0.046557
C278  C     C_R   0.972111 0.285022 0.281139 0.054466
C279  C     C_R   0.275703 0.711196 0.026898 0.046378
C280  C     C_R   0.703375 0.264010 0.973944 0.034238
C281  C     C_R   0.261235 0.296100 0.027487 0.042685
C282  C     C_R   0.729064 0.707545 0.972757 0.047181
C283  C     C_R   0.248504 0.972312 0.294794 0.046516
C284  C     C_R   0.792616 0.026774 0.731424 0.035868
C285  C     C_R   0.221341 0.788590 0.973107 0.051439
C286  C     C_R   0.792770 0.228921 0.026062 0.046254
C287  C     C_R   0.209056 0.025002 0.724919 0.042869
C288  C     C_R   0.754771 0.974131 0.297967 0.056534
C289  C     C_R   0.729196 0.707460 0.027235 0.055841
C290  C     C_R   0.261086 0.296725 0.973033 0.036910
C291  C     C_R   0.750221 0.027937 0.297580 0.046774
C292  C     C_R   0.204418 0.972539 0.735054 0.042742
C293  C     C_R   0.790348 0.226801 0.971674 0.064432
C294  C     C_R   0.220676 0.787835 0.027608 0.056906
C295  C     C_R   0.786857 0.974637 0.720426 0.040543
C296  C     C_R   0.238809 0.025192 0.294944 0.055668
C297  C     C_R   0.290808 0.973687 0.773153 0.043453
C298  C     C_R   0.751783 0.027662 0.202470 0.047573
C299  C     C_R   0.972528 0.756446 0.797574 0.041411
C300  C     C_R   0.026716 0.207348 0.227812 0.042059
C301  C     C_R   0.704777 0.027370 0.766054 0.042000
C302  C     C_R   0.253975 0.972216 0.200177 0.046924
C303  C     C_R   0.027948 0.243580 0.797864 0.038333
C304  C     C_R   0.972404 0.705015 0.244147 0.032236
C305  C     C_R   0.748446 0.973748 0.202064 0.051517
C306  C     C_R   0.283939 0.025866 0.783472 0.041650
C307  C     C_R   0.025368 0.705597 0.233234 0.050945
C308  C     C_R   0.973849 0.248615 0.799525 0.039184
C309  C     C_R   0.256552 0.026256 0.200547 0.056150
C310  C     C_R   0.709615 0.974945 0.776362 0.046728
C311  C     C_R   0.972248 0.207809 0.227382 0.042734
C312  C     C_R   0.026897 0.755727 0.797886 0.039859
C313  C     C_R   0.472763 0.203455 0.257039 0.046394
C314  C     C_R   0.527888 0.704351 0.761854 0.042790
C315  C     C_R   0.233459 0.294343 0.527697 0.050138
C316  C     C_R   0.768697 0.706367 0.472611 0.045682
C317  C     C_R   0.526899 0.289688 0.776964 0.047073
C318  C     C_R   0.473256 0.741741 0.202603 0.042874
C319  C     C_R   0.797838 0.247560 0.471967 0.040758
C320  C     C_R   0.223188 0.786868 0.525056 0.036321
C321  C     C_R   0.473486 0.703489 0.762343 0.047684
C322  C     C_R   0.527124 0.202983 0.256625 0.048990
C323  C     C_R   0.209768 0.779297 0.473282 0.051577
C324  C     C_R   0.798255 0.241711 0.525960 0.053108
C325  C     C_R   0.527624 0.740743 0.203253 0.044198
C326  C     C_R   0.472478 0.288525 0.777556 0.048031
C327  C     C_R   0.768689 0.706475 0.527084 0.055691
C328  C     C_R   0.234714 0.295237 0.473241 0.041033
C329  C     C_R   0.210511 0.474774 0.774963 0.045224
C330  C     C_R   0.768327 0.525965 0.205705 0.050215
C331  C     C_R   0.295603 0.526709 0.233969 0.048894
C332  C     C_R   0.770461 0.474044 0.793804 0.046213
C333  C     C_R   0.784084 0.525331 0.783911 0.050993
C334  C     C_R   0.293800 0.472667 0.231093 0.063951
C335  C     C_R   0.782288 0.474554 0.214094 0.051438
C336  C     C_R   0.221528 0.525829 0.788372 0.049469
C337  C     C_R   0.446035 0.748865 0.750092 -0.087180
C338  C     C_R   0.554218 0.249637 0.250153 -0.091313
C339  C     C_R   0.749824 0.749872 0.553961 -0.080267
C340  C     C_R   0.251030 0.251031 0.445964 -0.083082
C341  C     C_R   0.554014 0.749527 0.250350 -0.090860
C342  C     C_R   0.446180 0.249848 0.749739 -0.080427
C343  C     C_R   0.235447 0.740130 0.445346 -0.131888
C344  C     C_R   0.750583 0.246702 0.553657 -0.103163
C345  C     C_R   0.446348 0.250873 0.253291 -0.099857
C346  C     C_R   0.554057 0.750334 0.750157 -0.089561
C347  C     C_R   0.750045 0.249806 0.445729 -0.093671
C348  C     C_R   0.244617 0.745245 0.553074 -0.113634
C349  C     C_R   0.554263 0.250848 0.750576 -0.069319
C350  C     C_R   0.445985 0.750236 0.249453 -0.090279
C351  C     C_R   0.249129 0.249643 0.554023 -0.081908
C352  C     C_R   0.749389 0.749408 0.445881 -0.081396
C353  C     C_R   0.758556 0.446900 0.255329 -0.133755
C354  C     C_R   0.258604 0.553492 0.759188 -0.137151
C355  C     C_R   0.757494 0.552876 0.744530 -0.134140
C356  C     C_R   0.249203 0.446329 0.248320 -0.083335
C357  C     C_R   0.251509 0.554114 0.250855 -0.084195
C358  C     C_R   0.740586 0.446740 0.757311 -0.140549
C359  C     C_R   0.245611 0.447215 0.743217 -0.132415
C360  C     C_R   0.741494 0.553115 0.244693 -0.129961
C361  C     C_R   0.946228 0.252563 0.752138 -0.096020
C362  C     C_R   0.053617 0.751728 0.243345 -0.112753
C363  C     C_R   0.750603 0.249706 0.054009 -0.081406
C364  C     C_R   0.249385 0.750679 0.945946 -0.073447
C365  C     C_R   0.053615 0.248300 0.251671 -0.078621
C366  C     C_R   0.945961 0.750100 0.750131 -0.094347
C367  C     C_R   0.249886 0.251177 0.945725 -0.082258
C368  C     C_R   0.751065 0.749326 0.054088 -0.075416
C369  C     C_R   0.945882 0.751789 0.249895 -0.103846
C370  C     C_R   0.054092 0.249578 0.750298 -0.092118
C371  C     C_R   0.750181 0.749845 0.946017 -0.081115
C372  C     C_R   0.249045 0.250112 0.053801 -0.084963
C373  C     C_R   0.053984 0.749789 0.750480 -0.094870
C374  C     C_R   0.945663 0.249192 0.250229 -0.071749
C375  C     C_R   0.249073 0.749990 0.054068 -0.072566
C376  C     C_R   0.747896 0.248748 0.945979 -0.081138
C377  C     C_R   0.250108 0.945596 0.247686 -0.101290
C378  C     C_R   0.749077 0.054240 0.749166 -0.115151
C379  C     C_R   0.247330 0.053295 0.752847 -0.121185
C380  C     C_R   0.750991 0.946609 0.250051 -0.102170
C381  C     C_R   0.750215 0.054361 0.249998 -0.093467
C382  C     C_R   0.248624 0.945872 0.752429 -0.112172
C383  C     C_R   0.748521 0.946834 0.748763 -0.122777
C384  C     C_R   0.246791 0.053256 0.247978 -0.107280
H1    H     H_    0.594006 0.844453 0.725442 0.167624
H2    H     H_    0.410622 0.351732 0.273510 0.203651
H3    H     H_    0.698767 0.831137 0.404494 0.143308
H4    H     H_    0.274432 0.155227 0.593412 0.168038
H5    H     H_    0.404060 0.774911 0.343904 0.171693
H6    H     H_    0.597493 0.173401 0.694895 0.143269
H7    H     H_    0.256217 0.646816 0.594090 0.192608
H8    H     H_    0.652545 0.236481 0.404991 0.175255
H9    H     H_    0.594724 0.345178 0.230494 0.170205
H10   H     H_    0.404071 0.838140 0.714051 0.154085
H11   H     H_    0.651550 0.239793 0.594640 0.178197
H12   H     H_    0.260766 0.645648 0.405085 0.189439
H13   H     H_    0.406761 0.173269 0.689342 0.145175
H14   H     H_    0.594016 0.768677 0.347231 0.172649
H15   H     H_    0.300167 0.168008 0.404631 0.150367
H16   H     H_    0.708269 0.837266 0.595251 0.152447
H17   H     H_    0.658428 0.580862 0.308474 0.206617
H18   H     H_    0.304453 0.417433 0.656647 0.204169
H19   H     H_    0.652358 0.418553 0.703005 0.196815
H20   H     H_    0.166978 0.595200 0.297729 0.148855
H21   H     H_    0.150746 0.409592 0.265068 0.175274
H22   H     H_    0.726493 0.582827 0.647376 0.185089
H23   H     H_    0.353415 0.586058 0.723824 0.185168
H24   H     H_    0.735860 0.415322 0.353873 0.181783
H25   H     H_    0.094490 0.275390 0.655744 0.167267
H26   H     H_    0.906168 0.851238 0.252573 0.189593
H27   H     H_    0.651846 0.272034 0.907735 0.168104
H28   H     H_    0.302797 0.669858 0.094819 0.147392
H29   H     H_    0.903451 0.323447 0.311054 0.140770
H30   H     H_    0.095404 0.729678 0.654365 0.173699
H31   H     H_    0.207906 0.161526 0.093108 0.144246
H32   H     H_    0.798506 0.833333 0.904782 0.148220
H33   H     H_    0.094522 0.849983 0.247856 0.184806
H34   H     H_    0.904931 0.292818 0.664313 0.152717
H35   H     H_    0.807871 0.827104 0.095571 0.141075
H36   H     H_    0.216138 0.161890 0.902365 0.157796
H37   H     H_    0.905421 0.729146 0.654068 0.169584
H38   H     H_    0.093386 0.311480 0.325765 0.143462
H39   H     H_    0.306001 0.673077 0.903707 0.143702
H40   H     H_    0.662684 0.288720 0.097618 0.158382
H41   H     H_    0.272917 0.345520 0.905450 0.171937
H42   H     H_    0.706480 0.663867 0.095483 0.143970
H43   H     H_    0.207070 0.084665 0.347054 0.215005
H44   H     H_    0.812135 0.918863 0.661786 0.208995
H45   H     H_    0.188233 0.824269 0.096295 0.138043
H46   H     H_    0.826460 0.194340 0.902680 0.145671
H47   H     H_    0.147031 0.911672 0.742233 0.183828
H48   H     H_    0.735327 0.094365 0.347353 0.169982
H49   H     H_    0.706743 0.663703 0.904420 0.155789
H50   H     H_    0.275041 0.343460 0.095975 0.167840
H51   H     H_    0.765539 0.909628 0.351997 0.198486
H52   H     H_    0.181031 0.080731 0.667800 0.212684
H53   H     H_    0.841365 0.211437 0.092503 0.152995
H54   H     H_    0.192303 0.828364 0.905160 0.142626
H55   H     H_    0.851470 0.086118 0.738968 0.185737
H56   H     H_    0.274262 0.909194 0.343413 0.166151
H57   H     H_    0.304341 0.082383 0.843069 0.206000
H58   H     H_    0.742280 0.908300 0.148346 0.192678
H59   H     H_    0.094249 0.763030 0.848641 0.175571
H60   H     H_    0.903653 0.164617 0.205066 0.151700
H61   H     H_    0.681792 0.919091 0.833577 0.212537
H62   H     H_    0.267621 0.091599 0.147538 0.194875
H63   H     H_    0.909131 0.259260 0.853541 0.194097
H64   H     H_    0.084544 0.657292 0.195164 0.218210
H65   H     H_    0.766576 0.094176 0.153199 0.169519
H66   H     H_    0.351039 0.915014 0.770660 0.189334
H67   H     H_    0.908571 0.654091 0.264728 0.172430
H68   H     H_    0.095543 0.224866 0.844695 0.163000
H69   H     H_    0.248244 0.905932 0.148142 0.175814
H70   H     H_    0.647098 0.087951 0.758823 0.180764
H71   H     H_    0.094401 0.161884 0.207641 0.155259
H72   H     H_    0.904541 0.767925 0.846879 0.172984
H73   H     H_    0.594580 0.153806 0.267876 0.172422
H74   H     H_    0.406564 0.654953 0.778237 0.151425
H75   H     H_    0.220671 0.343310 0.405726 0.164009
H76   H     H_    0.789527 0.661926 0.595228 0.146675
H77   H     H_    0.403862 0.325280 0.809464 0.148213
H78   H     H_    0.595906 0.725747 0.155525 0.166035
H79   H     H_    0.852137 0.225284 0.590313 0.203682
H80   H     H_    0.151560 0.801088 0.416327 0.201394
H81   H     H_    0.596819 0.657916 0.775415 0.172169
H82   H     H_    0.404746 0.155046 0.269007 0.174766
H83   H     H_    0.230975 0.848552 0.581976 0.192846
H84   H     H_    0.848452 0.261603 0.405263 0.169321
H85   H     H_    0.405997 0.732932 0.152163 0.171874
H86   H     H_    0.594527 0.331675 0.803722 0.142050
H87   H     H_    0.788980 0.661431 0.404235 0.158173
H88   H     H_    0.210836 0.337811 0.596302 0.152027
H89   H     H_    0.208850 0.581859 0.849868 0.195062
H90   H     H_    0.841623 0.419173 0.191526 0.205751
H91   H     H_    0.333943 0.405506 0.201090 0.145993
H92   H     H_    0.844768 0.580926 0.801535 0.200154
H93   H     H_    0.770295 0.415885 0.854026 0.184183
H94   H     H_    0.345768 0.593028 0.223527 0.166415
H95   H     H_    0.764256 0.584762 0.146197 0.179010
H96   H     H_    0.148667 0.418101 0.777579 0.188352
O1    O     O_3   0.750000 0.750000 0.750000 -0.497242
O2    O     O_3   0.250000 0.250000 0.250000 -0.501341
O3    O     O_3   0.750000 0.750000 0.250000 -0.498816
O4    O     O_3   0.250000 0.250000 0.750000 -0.497475
O5    O     O_3   0.250000 0.750000 0.250000 -0.498282
O6    O     O_3   0.750000 0.250000 0.750000 -0.497420
O7    O     O_3   0.250000 0.750000 0.750000 -0.496834
O8    O     O_3   0.750000 0.250000 0.250000 -0.500516
O9    O     O_R   0.719640 0.634190 0.719640 -0.641553
O10   O     O_R   0.280360 0.365810 0.280360 -0.629678
O11   O     O_R   0.719640 0.634190 0.280360 -0.652248
O12   O     O_R   0.280360 0.365810 0.719640 -0.653609
O13   O     O_R   0.280360 0.634190 0.280360 -0.640242
O14   O     O_R   0.719640 0.365810 0.719640 -0.645337
O15   O     O_R   0.280360 0.634190 0.719640 -0.649147
O16   O     O_R   0.719640 0.365810 0.280360 -0.634890
O17   O     O_R   0.634190 0.280360 0.280360 -0.634337
O18   O     O_R   0.365810 0.719640 0.719640 -0.634497
O19   O     O_R   0.634190 0.719640 0.280360 -0.639890
O20   O     O_R   0.365810 0.280360 0.719640 -0.621976
O21   O     O_R   0.634190 0.719640 0.719640 -0.627263
O22   O     O_R   0.365810 0.280360 0.280360 -0.650385
O23   O     O_R   0.634190 0.280360 0.719640 -0.637399
O24   O     O_R   0.365810 0.719640 0.280360 -0.629960
O25   O     O_R   0.280360 0.719640 0.365810 -0.638713
O26   O     O_R   0.719640 0.280360 0.634190 -0.629504
O27   O     O_R   0.719640 0.719640 0.365810 -0.632705
O28   O     O_R   0.280360 0.280360 0.634190 -0.632384
O29   O     O_R   0.719640 0.280360 0.365810 -0.640691
O30   O     O_R   0.280360 0.719640 0.634190 -0.634527
O31   O     O_R   0.280360 0.280360 0.365810 -0.630543
O32   O     O_R   0.719640 0.719640 0.634190 -0.630865
O33   O     O_R   0.219640 0.134190 0.719640 -0.656879
O34   O     O_R   0.780360 0.865810 0.280360 -0.652841
O35   O     O_R   0.719640 0.134190 0.780360 -0.641239
O36   O     O_R   0.280360 0.865810 0.219640 -0.638492
O37   O     O_R   0.780360 0.134190 0.280360 -0.631675
O38   O     O_R   0.219640 0.865810 0.719640 -0.641091
O39   O     O_R   0.280360 0.134190 0.219640 -0.649162
O40   O     O_R   0.719640 0.865810 0.780360 -0.658923
O41   O     O_R   0.219640 0.865810 0.280360 -0.632429
O42   O     O_R   0.780360 0.134190 0.719640 -0.638350
O43   O     O_R   0.719640 0.865810 0.219640 -0.638342
O44   O     O_R   0.280360 0.134190 0.780360 -0.653898
O45   O     O_R   0.780360 0.865810 0.719640 -0.652312
O46   O     O_R   0.219640 0.134190 0.280360 -0.653632
O47   O     O_R   0.280360 0.865810 0.780360 -0.647868
O48   O     O_R   0.719640 0.134190 0.219640 -0.638565
O49   O     O_R   0.134190 0.280360 0.780360 -0.637049
O50   O     O_R   0.865810 0.719640 0.219640 -0.629236
O51   O     O_R   0.134190 0.219640 0.280360 -0.630440
O52   O     O_R   0.865810 0.780360 0.719640 -0.629742
O53   O     O_R   0.134190 0.719640 0.219640 -0.657843
O54   O     O_R   0.865810 0.280360 0.780360 -0.644147
O55   O     O_R   0.134190 0.780360 0.719640 -0.634712
O56   O     O_R   0.865810 0.219640 0.280360 -0.627967
O57   O     O_R   0.865810 0.719640 0.780360 -0.642297
O58   O     O_R   0.134190 0.280360 0.219640 -0.619352
O59   O     O_R   0.865810 0.780360 0.280360 -0.640637
O60   O     O_R   0.134190 0.219640 0.719640 -0.629803
O61   O     O_R   0.865810 0.280360 0.219640 -0.632332
O62   O     O_R   0.134190 0.719640 0.780360 -0.634014
O63   O     O_R   0.865810 0.219640 0.719640 -0.631181
O64   O     O_R   0.134190 0.780360 0.280360 -0.644184
O65   O     O_R   0.280360 0.219640 0.865810 -0.633576
O66   O     O_R   0.719640 0.780360 0.134190 -0.630471
O67   O     O_R   0.219640 0.719640 0.865810 -0.638459
O68   O     O_R   0.780360 0.280360 0.134190 -0.626060
O69   O     O_R   0.719640 0.780360 0.865810 -0.626789
O70   O     O_R   0.280360 0.219640 0.134190 -0.630176
O71   O     O_R   0.780360 0.280360 0.865810 -0.635191
O72   O     O_R   0.219640 0.719640 0.134190 -0.627344
O73   O     O_R   0.719640 0.219640 0.134190 -0.628350
O74   O     O_R   0.280360 0.780360 0.865810 -0.618919
O75   O     O_R   0.780360 0.719640 0.134190 -0.631691
O76   O     O_R   0.219640 0.280360 0.865810 -0.631396
O77   O     O_R   0.280360 0.780360 0.134190 -0.630998
O78   O     O_R   0.719640 0.219640 0.865810 -0.630424
O79   O     O_R   0.219640 0.280360 0.134190 -0.628824
O80   O     O_R   0.780360 0.719640 0.865810 -0.627700
O81   O     O_R   0.219640 0.634190 0.219640 -0.627213
O82   O     O_R   0.780360 0.365810 0.780360 -0.635725
O83   O     O_R   0.219640 0.634190 0.780360 -0.643563
O84   O     O_R   0.780360 0.365810 0.219640 -0.650853
O85   O     O_R   0.780360 0.634190 0.780360 -0.648056
O86   O     O_R   0.219640 0.365810 0.219640 -0.637561
O87   O     O_R   0.780360 0.634190 0.219640 -0.637440
O88   O     O_R   0.219640 0.365810 0.780360 -0.639721
O89   O     O_R   0.634190 0.780360 0.780360 -0.631941
O90   O     O_R   0.365810 0.219640 0.219640 -0.626618
O91   O     O_R   0.634190 0.219640 0.780360 -0.632046
O92   O     O_R   0.365810 0.780360 0.219640 -0.631503
O93   O     O_R   0.634190 0.219640 0.219640 -0.633587
O94   O     O_R   0.365810 0.780360 0.780360 -0.629761
O95   O     O_R   0.634190 0.780360 0.219640 -0.627550
O96   O     O_R   0.365810 0.219640 0.780360 -0.622053
O97   O     O_R   0.780360 0.219640 0.365810 -0.636171
O98   O     O_R   0.219640 0.780360 0.634190 -0.644189
O99   O     O_R   0.219640 0.219640 0.365810 -0.626617
O100  O     O_R   0.780360 0.780360 0.634190 -0.634938
O101  O     O_R   0.219640 0.780360 0.365810 -0.650896
O102  O     O_R   0.780360 0.219640 0.634190 -0.649988
O103  O     O_R   0.780360 0.780360 0.365810 -0.625937
O104  O     O_R   0.219640 0.219640 0.634190 -0.638693
Zn1   Zn    Zn3+2 0.706630 0.793370 0.793370 0.987252
Zn2   Zn    Zn3+2 0.293370 0.206630 0.206630 0.987622
Zn3   Zn    Zn3+2 0.793370 0.793370 0.293370 0.985127
Zn4   Zn    Zn3+2 0.206630 0.206630 0.706630 0.978574
Zn5   Zn    Zn3+2 0.293370 0.793370 0.206630 0.989291
Zn6   Zn    Zn3+2 0.706630 0.206630 0.793370 0.984754
Zn7   Zn    Zn3+2 0.206630 0.793370 0.706630 0.983591
Zn8   Zn    Zn3+2 0.793370 0.206630 0.293370 0.983426
Zn9   Zn    Zn3+2 0.706630 0.206630 0.206630 0.986773
Zn10  Zn    Zn3+2 0.293370 0.793370 0.793370 0.991230
Zn11  Zn    Zn3+2 0.793370 0.206630 0.706630 0.987529
Zn12  Zn    Zn3+2 0.206630 0.793370 0.293370 0.976930
Zn13  Zn    Zn3+2 0.293370 0.206630 0.793370 0.988647
Zn14  Zn    Zn3+2 0.706630 0.793370 0.206630 0.987877
Zn15  Zn    Zn3+2 0.206630 0.206630 0.293370 0.985042
Zn16  Zn    Zn3+2 0.793370 0.793370 0.706630 0.980189
Zn17  Zn    Zn3+2 0.793370 0.706630 0.206630 0.989441
Zn18  Zn    Zn3+2 0.206630 0.293370 0.793370 0.983915
Zn19  Zn    Zn3+2 0.793370 0.293370 0.793370 0.982127
Zn20  Zn    Zn3+2 0.206630 0.706630 0.206630 0.979840
Zn21  Zn    Zn3+2 0.206630 0.293370 0.206630 0.993703
Zn22  Zn    Zn3+2 0.793370 0.706630 0.793370 0.980087
Zn23  Zn    Zn3+2 0.206630 0.706630 0.793370 0.979339
Zn24  Zn    Zn3+2 0.793370 0.293370 0.206630 0.984227
Zn25  Zn    Zn3+2 0.706630 0.293370 0.293370 0.981970
Zn26  Zn    Zn3+2 0.293370 0.706630 0.706630 0.983921
Zn27  Zn    Zn3+2 0.293370 0.293370 0.293370 0.985871
Zn28  Zn    Zn3+2 0.706630 0.706630 0.706630 0.989412
Zn29  Zn    Zn3+2 0.293370 0.293370 0.706630 0.986461
Zn30  Zn    Zn3+2 0.706630 0.706630 0.293370 0.979613
Zn31  Zn    Zn3+2 0.706630 0.293370 0.706630 0.983861
Zn32  Zn    Zn3+2 0.293370 0.706630 0.293370 0.985670
I1    I     I_    0.576644 0.547116 0.790805 -0.225638
I2    I     I_    0.427689 0.043242 0.281643 -0.225984
I3    I     I_    0.829869 0.556003 0.428101 -0.211788
I4    I     I_    0.170693 0.443470 0.573534 -0.236422
I5    I     I_    0.432815 0.724977 0.038653 -0.239899
I6    I     I_    0.569186 0.421337 0.873305 -0.182581
I7    I     I_    0.159431 0.937174 0.563658 -0.185027
I8    I     I_    0.958161 0.226015 0.421441 -0.226532
I9    I     I_    0.570082 0.042534 0.282705 -0.232863
I10   I     I_    0.436434 0.543787 0.802572 -0.237276
I11   I     I_    0.955427 0.186750 0.557205 -0.182684
I12   I     I_    0.097024 0.900398 0.441136 -0.159023
I13   I     I_    0.427381 0.413493 0.881391 -0.155573
I14   I     I_    0.573488 0.713880 0.041930 -0.241796
I15   I     I_    0.189527 0.451846 0.432300 -0.217326
I16   I     I_    0.831849 0.556894 0.570585 -0.259435
I17   I     I_    0.832802 0.564092 0.053685 -0.192202
I18   I     I_    0.068493 0.438673 0.860218 -0.194087
I19   I     I_    0.846125 0.436305 0.940087 -0.169076
I20   I     I_    0.453745 0.565877 0.187328 -0.197817
I21   I     I_    0.435548 0.430951 0.147873 -0.203539
I22   I     I_    0.904068 0.558712 0.898981 -0.156141
I23   I     I_    0.116094 0.559473 0.917096 -0.162618
I24   I     I_    0.895303 0.442748 0.091369 -0.123237
I25   I     I_    0.077948 0.237034 0.959481 -0.228466
I26   I     I_    0.924664 0.544542 0.232074 -0.232123
I27   I     I_    0.921414 0.131104 0.924906 -0.231521
I28   I     I_    0.114485 0.910465 0.072907 -0.183847
I29   I     I_    0.925995 0.057493 0.168149 -0.195984
I30   I     I_    0.068372 0.759939 0.962342 -0.248554
I31   I     I_    0.283410 0.455729 0.073384 -0.232729
I32   I     I_    0.660712 0.560236 0.928677 -0.195873
I33   I     I_    0.052681 0.551717 0.169024 -0.188023
I34   I     I_    0.944683 0.286310 0.961666 -0.205123
I35   I     I_    0.657825 0.561542 0.071011 -0.232072
I36   I     I_    0.281409 0.457553 0.930806 -0.221801
I37   I     I_    0.927461 0.767357 0.960951 -0.243394
I38   I     I_    0.067248 0.054193 0.172556 -0.174215
I39   I     I_    0.117963 0.914074 0.930313 -0.194062
I40   I     I_    0.942683 0.159597 0.061812 -0.210183
I41   I     I_    0.171974 0.058706 0.922386 -0.230832
I42   I     I_    0.874768 0.918929 0.071008 -0.201674
I43   I     I_    0.314782 0.063594 0.045423 -0.221545
I44   I     I_    0.583565 0.946896 0.886359 -0.149688
I45   I     I_    0.368748 0.577927 0.068407 -0.196077
I46   I     I_    0.539366 0.285765 0.939755 -0.241586
I47   I     I_    0.439423 0.935018 0.842742 -0.183971
I48   I     I_    0.754115 0.074169 0.039571 -0.237757
I49   I     I_    0.863639 0.926337 0.929211 -0.206408
I50   I     I_    0.158721 0.059257 0.062698 -0.208777
I51   I     I_    0.717484 0.938285 0.038729 -0.239181
I52   I     I_    0.402506 0.059339 0.900065 -0.137190
I53   I     I_    0.550807 0.312732 0.078529 -0.222047
I54   I     I_    0.372259 0.581346 0.927926 -0.170730
I55   I     I_    0.550016 0.068433 0.821022 -0.193732
I56   I     I_    0.288219 0.926059 0.040401 -0.226062
I57   I     I_    0.080966 0.055414 0.618860 -0.115113
I58   I     I_    0.795459 0.941130 0.459532 -0.222113
I59   I     I_    0.072322 0.713995 0.541785 -0.265393
I60   I     I_    0.924706 0.395415 0.399645 -0.180629
I61   I     I_    0.911235 0.945780 0.608137 -0.133071
I62   I     I_    0.191528 0.052109 0.456268 -0.193993
I63   I     I_    0.931159 0.345327 0.562993 -0.229984
I64   I     I_    0.073377 0.956666 0.284149 -0.201363
I65   I     I_    0.756442 0.076481 0.459989 -0.223096
I66   I     I_    0.048615 0.932329 0.683338 -0.201159
I67   I     I_    0.930632 0.958753 0.283814 -0.198952
I68   I     I_    0.069987 0.317616 0.551078 -0.220953
I69   I     I_    0.271485 0.933350 0.457024 -0.233372
I70   I     I_    0.944501 0.068446 0.672486 -0.183332
I71   I     I_    0.064291 0.381103 0.415727 -0.180827
I72   I     I_    0.930014 0.712089 0.541576 -0.244461
I73   I     I_    0.578422 0.457124 0.254084 -0.239740
I74   I     I_    0.427534 0.944993 0.676904 -0.225437
I75   I     I_    0.350919 0.066595 0.429819 -0.215661
I76   I     I_    0.654942 0.937167 0.570068 -0.182890
I77   I     I_    0.435616 0.086667 0.616011 -0.165124
I78   I     I_    0.567591 0.783123 0.460119 -0.243382
I79   I     I_    0.538192 0.243986 0.569968 -0.241073
I80   I     I_    0.306592 0.543626 0.428698 -0.178852
I81   I     I_    0.567747 0.952499 0.695480 -0.229540
I82   I     I_    0.446127 0.455877 0.306767 -0.203573
I83   I     I_    0.286802 0.539011 0.569021 -0.257752
I84   I     I_    0.539398 0.235809 0.428003 -0.237350
I85   I     I_    0.426073 0.792054 0.456551 -0.213585
I86   I     I_    0.576667 0.087056 0.621229 -0.189724
I87   I     I_    0.638963 0.927688 0.429195 -0.225852
I88   I     I_    0.306285 0.047420 0.564802 -0.185727
I89   I     I_    0.440210 0.563323 0.648850 -0.189524
I90   I     I_    0.666985 0.436013 0.446307 -0.182995
I91   I     I_    0.039086 0.445090 0.278897 -0.228108
I92   I     I_    0.648964 0.562216 0.563095 -0.173550
I93   I     I_    0.589882 0.441297 0.607319 -0.140396
I94   I     I_    0.058604 0.572942 0.335322 -0.231368
I95   I     I_    0.605183 0.557682 0.408881 -0.143711
I96   I     I_    0.405485 0.434658 0.602797 -0.143019

loop_
_geom_bond_atom_site_label_1
_geom_bond_atom_site_label_2
_ccdc_geom_bond_type
C317  C326  A    
C124  C220  A    
C113  C298  A    
C209  I48   S    
C104  C200  A    
C288  C380  A    
C186  C193  A    
C188  I61   S    
C199  I70   S    
C59   H11   S    
C119  C300  A    
C5    O81   A    
C128  C224  A    
C31   O46   A    
C57   H9    S    
C10   O94   A    
C247  C252  A    
C71   C258  A    
O26   Zn31  S    
C100  C287  A    
C79   C276  A    
C315  C351  A    
C9    O93   A    
C201  I52   S    
C31   O39   A    
C47   C376  S    
C43   O74   A    
C11   O95   A    
C116  C303  A    
O6    Zn31  S    
C12   O96   A    
C317  C349  A    
C170  I67   S    
C194  I31   S    
C99   C195  A    
C25   O44   A    
C235  I21   S    
C270  C366  A    
C16   O92   A    
C23   O99   A    
C178  I63   S    
C84   C180  A    
C191  C196  A    
C22   O98   A    
O15   Zn26  S    
C6    O14   A    
C176  C179  A    
C30   O47   A    
C222  C229  A    
C147  I87   S    
O1    Zn16  S    
C77   C173  A    
O54   Zn19  S    
C302  C377  A    
C240  I18   S    
C180  I41   S    
O3    Zn14  S    
C41   O65   A    
C219  C232  A    
C10   C337  S    
C35   O58   A    
C217  C226  A    
C69   H21   S    
C300  C365  A    
C38   C361  S    
O94   Zn10  S    
C130  C313  A    
O57   Zn22  S    
C131  C320  A    
C197  I40   S    
C132  C319  A    
C126  H78   S    
C51   C256  A    
C137  C233  A    
C120  H72   S    
C173  I60   S    
O39   Zn2   S    
C68   C164  A    
O64   Zn12  S    
C219  I15   S    
C295  C383  A    
C241  C250  A    
C21   O29   A    
C116  H68   S    
C320  C323  A    
C271  C367  A    
C41   C367  S    
C101  H53   S    
C109  H61   S    
O78   Zn6   S    
C22   C348  S    
C62   C245  A    
C90   C186  A    
C284  C295  A    
C129  C314  A    
C145  I81   S    
C85   C270  A    
C40   C374  S    
C94   C190  A    
C57   C242  A    
C213  I56   S    
C139  H91   S    
C13   C346  S    
C132  H84   S    
O73   Zn9   S    
C82   C178  A    
O79   Zn21  S    
C289  C368  A    
C117  C213  A    
O102  Zn11  S    
C314  C346  A    
C138  H90   S    
C221  I13   S    
C69   C260  A    
C49   C250  A    
C316  C352  A    
C70   C259  A    
C87   H39   S    
O7    Zn7   S    
C205  C214  A    
O67   Zn23  S    
C93   C294  A    
C260  C356  A    
C334  C356  A    
C169  I68   S    
C80   H32   S    
C65   C264  A    
C53   C254  A    
C265  C274  A    
C40   O61   A    
C221  C230  A    
C272  C368  A    
C177  I64   S    
C32   O40   A    
C181  I72   S    
C164  C165  A    
C204  C215  A    
C50   H2    S    
C179  I42   S    
C242  C249  A    
C71   H23   S    
O3    Zn17  S    
O1    Zn1   S    
C72   H24   S    
C68   H20   S    
C254  C350  A    
C55   C151  A    
C184  I53   S    
C246  C253  A    
C301  C378  A    
O7    Zn10  S    
C310  C383  A    
O51   Zn15  S    
C83   C179  A    
C84   H36   S    
C187  C200  A    
C140  C333  A    
C55   H7    S    
C2    C356  S    
O87   Zn17  S    
C200  I69   S    
C67   H19   S    
C32   O45   A    
C293  C376  A    
C272  C275  A    
C48   O72   A    
C329  C336  A    
C48   C375  S    
O12   Zn29  S    
C83   C272  A    
C37   O64   A    
O14   Zn31  S    
O41   Zn12  S    
C287  C379  A    
C234  I24   S    
C163  I93   S    
C116  C212  A    
C288  C291  A    
C112  C208  A    
C65   C161  A    
C28   C377  S    
C39   C373  S    
C190  I27   S    
O8    Zn24  S    
O66   Zn14  S    
C28   O41   A    
C190  C197  A    
O83   Zn23  S    
C30   O38   A    
C8    C353  S    
C14   C345  S    
C99   H51   S    
C150  C157  A    
C112  H64   S    
C45   C371  S    
C97   H49   S    
C300  C311  A    
C63   C159  A    
O32   Zn28  S    
C274  C370  A    
C252  C348  A    
C156  I80   S    
C98   C281  A    
O8    Zn25  S    
C54   C150  A    
C64   C243  A    
C99   C288  A    
C247  C343  A    
C92   C295  A    
C66   C162  A    
O6    Zn19  S    
C94   H46   S    
C270  C277  A    
C104  H56   S    
C52   C255  A    
C15   O23   A    
O46   Zn15  S    
C208  C211  A    
C215  I38   S    
C87   C183  A    
C217  I9    S    
C67   C262  A    
C88   C184  A    
C47   O78   A    
C136  H88   S    
C266  C273  A    
C97   C193  A    
C296  C384  A    
C56   C251  A    
C162  I96   S    
C267  C280  A    
O3    Zn30  S    
C117  H69   S    
O1    Zn22  S    
C144  C240  A    
O2    Zn27  S    
C21   C347  S    
O9    Zn28  S    
C236  I22   S    
C76   C172  A    
C251  C347  A    
C277  C373  A    
C314  C321  A    
C298  C381  A    
C282  C371  A    
C113  H65   S    
C237  I19   S    
C226  I2    S    
C117  C302  A    
C15   C349  S    
C114  C297  A    
C176  I49   S    
C285  C364  A    
C115  C304  A    
O5    Zn32  S    
C27   O35   A    
C149  C158  A    
C107  C312  A    
C134  H86   S    
C243  C339  A    
C133  H85   S    
C122  H74   S    
C203  I30   S    
C72   C257  A    
C52   C148  A    
O25   Zn32  S    
C71   C167  A    
C4    O88   A    
C53   C149  A    
C290  C367  A    
C72   C168  A    
O27   Zn30  S    
C33   O49   A    
C18   O26   A    
C147  C160  A    
C134  C317  A    
C228  I8    S    
O47   Zn10  S    
C133  C229  A    
C304  C307  A    
C136  C315  A    
C271  C276  A    
C14   O90   A    
C261  C357  A    
C230  I6    S    
C232  I4    S    
C332  C333  A    
C40   O56   A    
C110  C206  A    
C2    O86   A    
C139  C235  A    
C257  C353  A    
C192  I65   S    
C268  C364  A    
C189  I28   S    
C61   C246  A    
C95   C292  A    
C305  C380  A    
C19   C352  S    
C77   H29   S    
C77   C278  A    
C285  C294  A    
C245  C341  A    
O2    Zn15  S    
C30   C382  S    
C107  C203  A    
C7    C354  S    
C322  C338  A    
O68   Zn24  S    
C105  C201  A    
C70   H22   S    
C275  C371  A    
C73   C274  A    
C1    C355  S    
O37   Zn8   S    
C109  C205  A    
C130  C226  A    
C33   C370  S    
C328  C340  A    
C124  H76   S    
C103  H55   S    
C294  C375  A    
C301  C310  A    
C330  C335  A    
C218  I10   S    
C143  H95   S    
C324  C344  A    
C235  C238  A    
C248  C344  A    
C145  C154  A    
C202  C209  A    
C326  C342  A    
C4    C359  S    
C111  C207  A    
C103  C284  A    
O90   Zn2   S    
C86   C182  A    
O70   Zn2   S    
C45   O80   A    
C105  H57   S    
C278  C374  A    
O69   Zn1   S    
C46   O79   A    
C224  I12   S    
C191  I66   S    
C85   C181  A    
C220  C231  A    
C21   O97   A    
O85   Zn22  S    
O33   Zn4   S    
C89   C185  A    
C140  H92   S    
C135  H87   S    
C306  C379  A    
C185  I36   S    
C1    O9    A    
C260  C261  A    
C28   O36   A    
O61   Zn24  S    
C29   O37   A    
C92   C188  A    
C303  C308  A    
C125  C221  A    
C239  I17   S    
C315  C328  A    
C323  C343  A    
C35   C365  S    
C115  C211  A    
C75   C280  A    
C238  I20   S    
C96   C192  A    
C154  I74   S    
C33   O60   A    
C241  C337  A    
O101  Zn12  S    
O103  Zn3   S    
O5    Zn20  S    
C81   C266  A    
C171  I46   S    
C31   C384  S    
O58   Zn21  S    
C307  C362  A    
O100  Zn16  S    
C63   C244  A    
C302  C309  A    
C41   O76   A    
C38   O63   A    
O84   Zn24  S    
O7    Zn23  S    
C134  C230  A    
C331  C334  A    
C69   C165  A    
C3    C360  S    
C266  C362  A    
C298  C305  A    
C102  H54   S    
C67   C163  A    
C216  I37   S    
C329  C359  A    
C53   H5    S    
C258  C354  A    
C60   C247  A    
C23   O31   A    
C48   O77   A    
C129  C225  A    
C51   H3    S    
C55   C252  A    
C115  H67   S    
C64   H16   S    
O55   Zn7   S    
C127  H79   S    
C110  H62   S    
C223  I11   S    
C113  C209  A    
C18   O102  A    
C303  C370  A    
C138  C335  A    
C17   O101  A    
C175  I50   S    
C107  H59   S    
C286  C363  A    
C121  C322  A    
C312  C373  A    
C201  C210  A    
C19   O103  A    
C172  I45   S    
C26   O34   A    
C313  C322  A    
C90   H42   S    
C283  C377  A    
C325  C341  A    
O21   Zn28  S    
O98   Zn7   S    
C74   H26   S    
O75   Zn17  S    
O80   Zn22  S    
O4    Zn29  S    
C20   C351  S    
C166  I92   S    
C202  I51   S    
C132  C228  A    
C279  C375  A    
O13   Zn32  S    
C155  I79   S    
C108  H60   S    
C193  I32   S    
C13   O89   A    
C233  I23   S    
O43   Zn14  S    
C65   H17   S    
C34   O50   A    
O42   Zn11  S    
C98   C194  A    
C26   O43   A    
C125  H77   S    
C1    O85   A    
C160  I76   S    
O86   Zn21  S    
C269  C365  A    
C58   C154  A    
C17   C343  S    
C29   O48   A    
C3    O87   A    
C185  C194  A    
C258  C263  A    
O74   Zn10  S    
C109  C310  A    
C231  I3    S    
C106  C202  A    
C62   C158  A    
C299  C366  A    
C56   C152  A    
C250  C346  A    
C8    O84   A    
C16   C350  S    
C84   C271  A    
C152  I84   S    
C105  C306  A    
C85   H37   S    
C50   C146  A    
C100  C196  A    
C256  C352  A    
O4    Zn18  S    
C37   C362  S    
C244  C340  A    
C168  I90   S    
C196  I57   S    
C167  I89   S    
C198  I39   S    
C121  C217  A    
O8    Zn9   S    
C92   H44   S    
O59   Zn3   S    
C93   H45   S    
C255  C351  A    
C335  C353  A    
C327  C339  A    
C43   C364  S    
C153  I73   S    
C280  C376  A    
C102  C285  A    
C22   O30   A    
C297  C306  A    
C161  I95   S    
C170  C177  A    
C208  I33   S    
C75   H27   S    
C171  C184  A    
C163  C166  A    
C86   C269  A    
O11   Zn30  S    
C73   H25   S    
C44   O73   A    
C46   O70   A    
C57   C153  A    
C123  C219  A    
C142  H94   S    
C80   C275  A    
C243  C256  A    
C118  C301  A    
C141  H93   S    
C263  C359  A    
C148  C159  A    
O18   Zn26  S    
C192  C195  A    
C120  C299  A    
C309  C384  A    
C143  C239  A    
O20   Zn29  S    
C11   O19   A    
C214  I55   S    
C203  C216  A    
C210  I47   S    
C268  C279  A    
C152  C155  A    
C38   O54   A    
C9    O17   A    
C64   C160  A    
C220  I16   S    
C49   C145  A    
C118  C214  A    
C136  C232  A    
C151  C156  A    
C6    O82   A    
O7    Zn26  S    
C83   H35   S    
C158  I78   S    
C175  C180  A    
O5    Zn5   S    
O44   Zn13  S    
C32   C383  S    
C81   C177  A    
C36   O57   A    
C93   C189  A    
C25   C379  S    
O95   Zn14  S    
O6    Zn11  S    
C138  C234  A    
C27   O42   A    
C98   H50   S    
O81   Zn20  S    
C73   C169  A    
O60   Zn4   S    
C224  C227  A    
O96   Zn13  S    
C249  C345  A    
C94   C293  A    
C211  I26   S    
C276  C372  A    
C24   O32   A    
C42   C368  S    
C319  C324  A    
C63   H15   S    
O16   Zn25  S    
C76   C279  A    
C2    O10   A    
O50   Zn17  S    
C149  I85   S    
C78   H30   S    
C292  C382  A    
O49   Zn18  S    
C78   C277  A    
C88   H40   S    
C43   O67   A    
C182  I71   S    
O92   Zn5   S    
C88   C267  A    
C110  C309  A    
C139  C334  A    
C253  C349  A    
C128  H80   S    
C245  C254  A    
C74   C273  A    
C108  C311  A    
C128  C323  A    
C26   C380  S    
C282  C289  A    
C25   O33   A    
C58   H10   S    
C102  C198  A    
C3    O11   A    
O36   Zn5   S    
C104  C283  A    
C91   C296  A    
C131  H83   S    
C124  C327  A    
C114  C210  A    
O38   Zn7   S    
C146  C153  A    
C264  C360  A    
C112  C307  A    
O52   Zn16  S    
O40   Zn1   S    
C36   O52   A    
C101  C286  A    
C101  C197  A    
C8    O16   A    
C5    C357  S    
C130  H82   S    
C23   C340  S    
C229  I5    S    
O24   Zn32  S    
C131  C227  A    
C135  C316  A    
C106  H58   S    
C37   O53   A    
C331  C357  A    
C20   O104  A    
O93   Zn9   S    
C90   C289  A    
C14   O22   A    
C111  H63   S    
C97   C282  A    
O35   Zn6   S    
C91   C187  A    
C18   C344  S    
O34   Zn3   S    
C281  C290  A    
O53   Zn20  S    
C118  H70   S    
C189  C198  A    
C148  I88   S    
O31   Zn27  S    
C204  I29   S    
C119  C215  A    
C159  I75   S    
C257  C264  A    
C4    O12   A    
C123  C328  A    
C13   O21   A    
C227  I7    S    
C172  C183  A    
C96   C291  A    
O104  Zn4   S    
C259  C262  A    
C225  I1    S    
C142  C331  A    
C207  I34   S    
C60   C156  A    
C273  C369  A    
C236  C237  A    
C151  I83   S    
C127  C223  A    
O6    Zn6   S    
C195  I58   S    
O62   Zn23  S    
C313  C345  A    
C60   H12   S    
C206  I43   S    
C59   C248  A    
C61   H13   S    
C233  C240  A    
C133  C318  A    
C61   C157  A    
C70   C166  A    
C36   C366  S    
C286  C293  A    
C284  C378  A    
C330  C360  A    
C129  H81   S    
C100  H52   S    
C143  C330  A    
O63   Zn11  S    
C126  C325  A    
C44   C363  S    
O89   Zn1   S    
C291  C381  A    
O65   Zn13  S    
C44   O68   A    
O3    Zn3   S    
C265  C361  A    
O2    Zn2   S    
C262  C358  A    
C244  C255  A    
C10   O18   A    
C269  C278  A    
C142  C238  A    
C140  C236  A    
C141  C332  A    
C114  H66   S    
C82   C265  A    
C218  C225  A    
C248  C251  A    
C91   H43   S    
C234  C239  A    
O8    Zn8   S    
C89   H41   S    
O97   Zn8   S    
C7    O15   A    
C96   H48   S    
C19   O27   A    
O30   Zn26  S    
C157  I77   S    
C11   C341  S    
O29   Zn25  S    
C165  I91   S    
O91   Zn6   S    
C17   O25   A    
C68   C261  A    
C164  I94   S    
C6    C358  S    
O5    Zn12  S    
C332  C358  A    
C111  C308  A    
O4    Zn13  S    
C66   H18   S    
C79   C175  A    
C212  I25   S    
C87   C268  A    
C80   C176  A    
C281  C372  A    
C137  H89   S    
C59   C155  A    
C223  C228  A    
C16   O24   A    
C123  H75   S    
C122  C321  A    
C188  C199  A    
C183  I54   S    
C318  C325  A    
C52   H4    S    
C186  I35   S    
C58   C241  A    
C42   O66   A    
C29   C381  S    
C150  I86   S    
C222  I14   S    
O82   Zn19  S    
C106  C305  A    
O17   Zn25  S    
C86   H38   S    
C51   C147  A    
C283  C296  A    
C246  C342  A    
C103  C199  A    
C127  C324  A    
O72   Zn20  S    
C34   C369  S    
O56   Zn8   S    
C50   C249  A    
C5    O13   A    
C119  H71   S    
C7    O83   A    
C24   C339  S    
C308  C361  A    
C318  C350  A    
C75   C171  A    
C207  C212  A    
C54   C253  A    
C46   C372  S    
C20   O28   A    
C42   O75   A    
C320  C348  A    
C319  C347  A    
C144  C329  A    
O2    Zn21  S    
C169  C178  A    
C81   H33   S    
O76   Zn18  S    
C206  C213  A    
O19   Zn30  S    
C141  C237  A    
C95   C191  A    
C122  C218  A    
C336  C354  A    
C287  C292  A    
C15   O91   A    
C297  C382  A    
C146  I82   S    
C12   O20   A    
C137  C336  A    
C173  C182  A    
C126  C222  A    
C12   C342  S    
O22   Zn27  S    
C120  C216  A    
C47   O71   A    
C174  C181  A    
O99   Zn15  S    
O28   Zn29  S    
O23   Zn31  S    
C9    C338  S    
C242  C338  A    
C108  C204  A    
C35   O51   A    
C34   O59   A    
C79   H31   S    
O4    Zn4   S    
C205  I44   S    
C39   O55   A    
C187  I62   S    
C49   H1    S    
C299  C312  A    
C62   H14   S    
C267  C363  A    
C321  C337  A    
O45   Zn16  S    
O88   Zn18  S    
O48   Zn9   S    
C56   H8    S    
C27   C378  S    
C125  C326  A    
C333  C355  A    
C174  I59   S    
C121  H73   S    
C39   O62   A    
C74   C170  A    
C161  C168  A    
C24   O100  A    
C45   O69   A    
C162  C167  A    
O71   Zn19  S    
C259  C355  A    
C89   C290  A    
O1    Zn28  S    
C78   C174  A    
O10   Zn27  S    
O77   Zn5   S    
C82   H34   S    
C316  C327  A    
C144  H96   S    
C76   H28   S    
C95   H47   S    
C66   C263  A    
C304  C369  A    
C135  C231  A    
C311  C374  A    
C54   H6    S    
