data_mof_unit_30217.cif
_audit_creation_date              2012-12-10T17:16:39-0500
_audit_creation_method            fapswitch 2.2
_symmetry_space_group_name_H-M    P1
_symmetry_Int_Tables_number       1
_space_group_crystal_system       triclinic
_cell_length_a                    10.162018
_cell_length_b                    10.690919
_cell_length_c                    10.513188
_cell_angle_alpha                 90.093865
_cell_angle_beta                  95.408683
_cell_angle_gamma                 83.363565
_cell_volume                      1129.41274184

loop_
_atom_site_label
_atom_site_type_symbol
_atom_type_description
_atom_site_fract_x
_atom_site_fract_y
_atom_site_fract_z
_atom_type_partial_charge
C1    C     C_R   0.443856 0.504062 0.265373 0.802141
C2    C     C_R   0.555748 0.488559 0.734662 0.829487
C3    C     C_2   0.411347 0.489950 0.128579 -0.203070
C4    C     C_2   0.586267 0.466777 0.871470 -0.217949
C5    C     C_2   0.495872 0.408690 0.068368 -0.101507
C6    C     C_2   0.498055 0.408194 0.930737 -0.113572
C7    C     C_2   0.067202 0.504540 0.477623 -0.056793
C8    C     C_2   0.930268 0.503835 0.517118 -0.036582
C9    C     C_R   0.498481 0.259841 0.510060 0.869562
C10   C     C_R   0.500522 0.739522 0.486327 0.899256
C11   C     C_R   0.729032 0.091884 0.611382 -0.130684
C12   C     C_R   0.270957 0.903613 0.372618 -0.118927
C13   C     C_R   0.854149 0.024422 0.607249 -0.154988
C14   C     C_R   0.146591 0.974263 0.365169 -0.127877
C15   C     C_R   0.866892 0.913705 0.538044 -0.079072
C16   C     C_R   0.131613 0.089194 0.426791 -0.182221
C17   C     C_R   0.753470 0.864609 0.483548 -0.066904
C18   C     C_R   0.242636 0.137499 0.487507 -0.170673
C19   C     C_R   0.624459 0.926635 0.497238 0.064546
C20   C     C_R   0.372717 0.072967 0.484270 0.102767
C21   C     C_R   0.614627 0.048434 0.546174 0.072701
C22   C     C_R   0.383213 0.949286 0.439216 0.079852
C23   C     C_R   0.505148 0.872897 0.462607 -0.253898
C24   C     C_R   0.492252 0.125458 0.525302 -0.235549
H1    H     H_    0.722306 0.179065 0.664257 0.143125
H2    H     H_    0.279273 0.813208 0.325577 0.134732
H3    H     H_    0.941510 0.060292 0.653919 0.144977
H4    H     H_    0.061096 0.937777 0.315491 0.144362
H5    H     H_    0.769560 0.781108 0.426631 0.179578
H6    H     H_    0.222107 0.221874 0.541716 0.158961
H7    H     H_    0.414669 0.371825 0.876061 0.188341
H8    H     H_    0.577653 0.351359 0.122351 0.193510
H9    H     H_    0.866375 0.406963 0.364582 0.219363
H10   H     H_    0.134115 0.589222 0.637284 0.221210
N1    N     N_2   0.157300 0.551390 0.551120 -0.233350
N2    N     N_2   0.842700 0.448610 0.448880 -0.235044
O1    O     O_R   0.568940 0.489660 0.307530 -0.562418
O2    O     O_R   0.431060 0.510340 0.692470 -0.563066
O3    O     O_R   0.348880 0.522640 0.340350 -0.632262
O4    O     O_R   0.651120 0.477360 0.659650 -0.638533
O5    O     O_R   0.610030 0.300280 0.483580 -0.608310
O6    O     O_R   0.389970 0.699720 0.516420 -0.593380
O7    O     O_R   0.389970 0.333270 0.516400 -0.649838
O8    O     O_R   0.610030 0.666730 0.483600 -0.598173
Zn1   Zn    Zn3+2 0.646940 0.477980 0.478080 0.967734
Zn2   Zn    Zn3+2 0.353060 0.522020 0.521920 0.951567
H11   H     H_    0.033735 0.141180 0.427838 0.139387
H12   H     H_    0.964579 0.864258 0.528614 0.165223
C25   C     C_2   0.704766 0.517798 0.937075 0.420578
H13   H     H_    0.757103 0.581243 0.885497 0.095752
O9    O     O_2   0.746214 0.489397 0.047212 -0.529125
C26   C     C_2   0.293192 0.568873 0.064821 0.467838
H14   H     H_    0.238131 0.639384 0.119872 0.077840
O10   O     O_2   0.254830 0.555876 0.952540 -0.560028
C27   C     C_2   0.899421 0.550663 0.644009 0.484562
H15   H     H_    0.887228 0.483773 0.718102 0.055237
O11   O     O_2   0.893004 0.662553 0.668370 -0.599916
C28   C     C_2   0.102401 0.447685 0.355482 0.437126
H16   H     H_    0.183168 0.372490 0.354080 0.101996
O12   O     O_2   0.042206 0.486388 0.254605 -0.559605

loop_
_geom_bond_atom_site_label_1
_geom_bond_atom_site_label_2
_ccdc_geom_bond_type
C19   C23   A    
C27   H15   S    
C9    C24   S    
C18   H6    S    
O1    Zn1   S    
C2    O4    A    
C10   C23   S    
C10   O6    A    
C17   H5    S    
C2    O2    A    
C7    C28   S    
C2    C4    S    
C1    O1    A    
C4    C25   S    
C3    C26   S    
C5    H8    S    
C14   H4    S    
C25   O9    D    
C27   O11   D    
C6    H7    S    
C12   C14   A    
N2    Zn1   S    
O8    Zn1   S    
C11   C13   A    
C5    C6    S    
C15   H12   S    
O3    Zn2   S    
C8    C27   S    
C16   C18   A    
C19   C21   A    
C20   C22   A    
C25   H13   S    
C28   O12   D    
C18   C20   A    
C13   C15   A    
O6    Zn2   S    
O4    Zn1   S    
O7    Zn2   S    
C14   C16   A    
O2    Zn2   S    
C9    O7    A    
C1    O3    A    
C10   O8    A    
C12   C22   A    
C7    C8    S    
H9    N2    S    
C26   H14   S    
C16   H11   S    
C4    C6    D    
H10   N1    S    
C8    N2    D    
C21   C24   A    
C12   H2    S    
C15   C17   A    
C11   H1    S    
C22   C23   A    
C17   C19   A    
O5    Zn1   S    
C9    O5    A    
C1    C3    S    
C28   H16   S    
N1    Zn2   S    
C7    N1    D    
C11   C21   A    
C13   H3    S    
C20   C24   A    
C26   O10   D    
C3    C5    D    
