data_mof_unit_30858.cif
_audit_creation_date              2013-03-05T15:48:17-0500
_audit_creation_method            fapswitch 2.2
_symmetry_space_group_name_H-M    P1
_symmetry_Int_Tables_number       1
_space_group_crystal_system       triclinic
_cell_length_a                    15.680507
_cell_length_b                    15.689489
_cell_length_c                    34.563898
_cell_angle_alpha                 90.140937
_cell_angle_beta                  89.802231
_cell_angle_gamma                 119.992057
_cell_volume                      7364.68638681

loop_
_atom_site_label
_atom_site_type_symbol
_atom_site_description
_atom_site_fract_x
_atom_site_fract_y
_atom_site_fract_z
_atom_type_partial_charge
O1    O     O_R   0.498680 0.159540 0.541860 -0.515393
O2    O     O_R   0.840460 0.339140 0.541860 -0.514196
O3    O     O_R   0.660860 0.501320 0.541860 -0.518066
O4    O     O_R   0.159540 0.498680 0.041860 -0.517990
O5    O     O_R   0.339140 0.840460 0.041860 -0.515175
O6    O     O_R   0.501320 0.660860 0.041860 -0.514775
O7    O     O_R   0.532760 0.358060 0.540030 -0.496490
O8    O     O_R   0.641940 0.174700 0.540030 -0.497696
O9    O     O_R   0.825300 0.467240 0.540030 -0.497932
O10   O     O_R   0.358060 0.532760 0.040030 -0.497595
O11   O     O_R   0.174700 0.641940 0.040030 -0.497592
O12   O     O_R   0.467240 0.825300 0.040030 -0.498847
C1    C     C_R   0.577988 0.442009 0.554835 0.558442
C2    C     C_R   0.558947 0.137787 0.555448 0.565510
C3    C     C_R   0.862900 0.421621 0.555205 0.568862
C4    C     C_R   0.441466 0.578486 0.055149 0.570364
C5    C     C_R   0.135979 0.558029 0.054819 0.556394
C6    C     C_R   0.421242 0.862348 0.055411 0.565468
O13   O     O_R   0.498590 0.161190 0.456930 -0.497877
O14   O     O_R   0.838810 0.337400 0.456930 -0.467617
O15   O     O_R   0.662600 0.501410 0.456930 -0.514907
O16   O     O_R   0.161190 0.498590 0.956930 -0.514781
O17   O     O_R   0.337400 0.838810 0.956930 -0.494614
O18   O     O_R   0.501410 0.662600 0.956930 -0.467211
O19   O     O_R   0.532680 0.359580 0.461300 -0.450147
O20   O     O_R   0.640420 0.173100 0.461300 -0.473916
O21   O     O_R   0.826900 0.467320 0.461300 -0.428225
O22   O     O_R   0.359580 0.532680 0.961300 -0.427758
O23   O     O_R   0.173100 0.640420 0.961300 -0.448629
O24   O     O_R   0.467320 0.826900 0.961300 -0.475065
C7    C     C_R   0.577718 0.442310 0.445557 0.567643
C8    C     C_R   0.557594 0.135318 0.445613 0.573132
C9    C     C_R   0.812542 0.393853 0.440370 0.556202
C10   C     C_R   0.418578 0.606130 0.940381 0.556586
C11   C     C_R   0.135627 0.557761 0.945370 0.564973
C12   C     C_R   0.422285 0.864660 0.945596 0.572863
Cr1   Cr    Cr6+3 0.522350 0.263930 0.500020 1.106316
Cr2   Cr    Cr6+3 0.736070 0.258420 0.500020 1.105061
Cr3   Cr    Cr6+3 0.741580 0.477650 0.500020 1.099632
Cr4   Cr    Cr6+3 0.263930 0.522350 0.000020 1.100305
Cr5   Cr    Cr6+3 0.258420 0.736070 0.000020 1.107403
Cr6   Cr    Cr6+3 0.477650 0.741580 0.000020 1.103966
O25   O     O_3   0.666667 0.333333 0.499990 -0.312225
O26   O     O_3   0.333333 0.666667 0.999990 -0.312293
N1    N     N_R   0.943550 0.449698 0.770556 -0.156783
N2    N     N_R   0.522728 0.606473 0.759768 -0.140155
N3    N     N_R   0.502956 0.081267 0.776661 -0.154900
N4    N     N_R   0.422807 0.920866 0.276660 -0.157238
N5    N     N_R   0.499340 0.563686 0.273541 -0.152627
N6    N     N_R   0.917481 0.393792 0.259816 -0.140643
N7    N     N_R   0.933104 0.446035 0.732347 -0.170030
N8    N     N_R   0.537174 0.591130 0.723106 -0.177737
N9    N     N_R   0.509201 0.094135 0.738571 -0.175406
N10   N     N_R   0.415590 0.906990 0.238621 -0.176861
N11   N     N_R   0.493223 0.569925 0.235465 -0.169159
N12   N     N_R   0.947243 0.409173 0.223158 -0.177622
C13   C     C_R   0.918836 0.458497 0.591762 -0.006767
C14   C     C_R   0.538943 0.466342 0.589595 0.000522
C15   C     C_R   0.544241 0.091616 0.594052 -0.005000
C16   C     C_R   0.452765 0.908539 0.094009 -0.004474
C17   C     C_R   0.459817 0.544330 0.092426 -0.007126
C18   C     C_R   0.072803 0.533842 0.089606 -0.000501
C19   C     C_R   0.961452 0.409593 0.611369 -0.024726
C20   C     C_R   0.573840 0.564600 0.601887 -0.016089
C21   C     C_R   0.459111 0.064250 0.616855 -0.029721
C22   C     C_R   0.394704 0.935240 0.116954 -0.030494
C23   C     C_R   0.546210 0.601849 0.114510 -0.027622
C24   C     C_R   0.008874 0.435596 0.101703 -0.019845
C25   C     C_R   0.995000 0.437687 0.649308 -0.103370
C26   C     C_R   0.543853 0.581576 0.637889 -0.107674
C27   C     C_R   0.462711 0.049356 0.656573 -0.104282
C28   C     C_R   0.413139 0.949631 0.156689 -0.104670
C29   C     C_R   0.546619 0.578886 0.153501 -0.103046
C30   C     C_R   0.962236 0.418593 0.137766 -0.110820
C31   C     C_R   0.987769 0.513173 0.667887 0.011573
C32   C     C_R   0.479902 0.503482 0.661791 0.008818
C33   C     C_R   0.548352 0.060496 0.673953 0.009279
C34   C     C_R   0.487761 0.938460 0.173940 0.009672
C35   C     C_R   0.464206 0.500012 0.170779 0.007547
C36   C     C_R   0.977208 0.496677 0.161889 0.009669
C37   C     C_R   0.952776 0.567256 0.647593 0.200997
C38   C     C_R   0.441376 0.405525 0.648894 0.208659
C39   C     C_R   0.630157 0.079321 0.650886 0.199867
C40   C     C_R   0.550983 0.920301 0.150734 0.200542
C41   C     C_R   0.381920 0.436813 0.148144 0.201282
C42   C     C_R   0.037190 0.594675 0.149189 0.209430
C43   C     C_R   0.919496 0.539557 0.609675 -0.111999
C44   C     C_R   0.470079 0.388415 0.612650 -0.111502
C45   C     C_R   0.626029 0.092127 0.611109 -0.112768
C46   C     C_R   0.534324 0.908373 0.110936 -0.113841
C47   C     C_R   0.381611 0.458893 0.109007 -0.111603
C48   C     C_R   0.082732 0.611810 0.112899 -0.111825
N13   N     N_R   0.077609 0.598575 0.726661 -0.127320
N14   N     N_R   0.368555 0.480970 0.716174 -0.143242
N15   N     N_R   0.584404 0.998056 0.733098 -0.114095
N16   N     N_R   0.587067 0.999874 0.232938 -0.112849
N17   N     N_R   0.443718 0.402920 0.229238 -0.128892
N18   N     N_R   0.888262 0.518879 0.216283 -0.141891
N19   N     N_R   0.087915 0.602458 0.764936 -0.155982
N20   N     N_R   0.354048 0.496729 0.752860 -0.175523
N21   N     N_R   0.578046 0.985091 0.771239 -0.112136
N22   N     N_R   0.594267 0.013776 0.271027 -0.117982
N23   N     N_R   0.450191 0.396742 0.267399 -0.160590
N24   N     N_R   0.858003 0.503058 0.252957 -0.172154
C49   C     C_R   0.020826 0.528207 0.787433 0.362203
C50   C     C_R   0.431166 0.558606 0.775464 0.373972
C51   C     C_R   0.536667 0.025986 0.793583 0.359519
C52   C     C_R   0.512221 0.975061 0.293436 0.360835
C53   C     C_R   0.478226 0.477130 0.290095 0.360075
C54   C     C_R   0.873506 0.441390 0.275531 0.374165
C55   C     C_R   0.999601 0.520528 0.709844 0.364237
C56   C     C_R   0.460712 0.526802 0.700890 0.361085
C57   C     C_R   0.549078 0.051965 0.716115 0.369252
C58   C     C_R   0.497458 0.947138 0.216079 0.370789
C59   C     C_R   0.465753 0.489900 0.212707 0.372075
C60   C     C_R   0.934806 0.473284 0.200977 0.361315
C61   C     C_R   0.053778 0.457595 0.845662 0.186025
C62   C     C_R   0.463760 0.662315 0.834350 0.200072
C63   C     C_R   0.412891 0.948370 0.845501 0.200052
C64   C     C_R   0.469379 0.057453 0.344642 0.200191
C65   C     C_R   0.591909 0.538832 0.345784 0.187935
C66   C     C_R   0.802343 0.337615 0.334345 0.200621
C67   C     C_R   0.074946 0.462488 0.884944 -0.144134
C68   C     C_R   0.465846 0.671403 0.874558 -0.153849
C69   C     C_R   0.387653 0.914316 0.883142 -0.139425
C70   C     C_R   0.476832 0.090185 0.382454 -0.141502
C71   C     C_R   0.612204 0.533607 0.384487 -0.146224
C72   C     C_R   0.794977 0.328564 0.374540 -0.153506
C73   C     C_R   0.058063 0.607533 0.892545 0.205728
C74   C     C_R   0.374079 0.493410 0.881713 0.216070
C75   C     C_R   0.558968 0.971276 0.898860 0.207852
C76   C     C_R   0.586202 0.027579 0.398964 0.213174
C77   C     C_R   0.445551 0.398511 0.395257 0.207803
C78   C     C_R   0.881297 0.506560 0.381807 0.215432
C79   C     C_R   0.033881 0.602344 0.852897 -0.058757
C80   C     C_R   0.373598 0.482671 0.841061 -0.056197
C81   C     C_R   0.586808 0.011105 0.861163 -0.033144
C82   C     C_R   0.574752 0.988451 0.361134 -0.030294
C83   C     C_R   0.422119 0.405578 0.356364 -0.054696
C84   C     C_R   0.891548 0.517288 0.341161 -0.054967
C85   C     C_R   0.035837 0.529402 0.829234 0.001888
C86   C     C_R   0.418467 0.567817 0.817293 0.005090
C87   C     C_R   0.512761 0.996438 0.834130 0.020217
C88   C     C_R   0.518756 0.006641 0.333727 0.019485
C89   C     C_R   0.496916 0.473698 0.331339 0.002239
C90   C     C_R   0.851498 0.432120 0.317346 0.006691
C91   C     C_R   0.083386 0.539821 0.908068 -0.039872
C92   C     C_R   0.421450 0.588628 0.898473 -0.042066
C93   C     C_R   0.458459 0.921271 0.909447 -0.044118
C94   C     C_R   0.537569 0.079634 0.409262 -0.043973
C95   C     C_R   0.542272 0.461008 0.408856 -0.039227
C96   C     C_R   0.833213 0.411345 0.398497 -0.042513
H1    H     H_    0.889148 0.579067 0.594792 0.173602
H2    H     H_    0.443460 0.313080 0.603661 0.155412
H3    H     H_    0.691396 0.111698 0.594066 0.167128
H4    H     H_    0.580530 0.889664 0.093740 0.163238
H5    H     H_    0.315770 0.413222 0.092333 0.172146
H6    H     H_    0.131908 0.687121 0.104046 0.155058
H7    H     H_    0.093382 0.409768 0.896644 0.216083
H8    H     H_    0.499639 0.744266 0.887327 0.168429
H9    H     H_    0.310274 0.874521 0.890823 0.210429
H10   H     H_    0.441088 0.131920 0.389946 0.204054
H11   H     H_    0.686627 0.581445 0.394578 0.214962
H12   H     H_    0.755815 0.255710 0.387269 0.170223
H13   H     H_    0.022249 0.396963 0.665409 0.170684
H14   H     H_    0.572102 0.656525 0.647866 0.162493
H15   H     H_    0.398869 0.031267 0.674431 0.179860
H16   H     H_    0.367289 0.967406 0.174640 0.179819
H17   H     H_    0.610661 0.624997 0.171086 0.179903
H18   H     H_    0.915101 0.343633 0.147603 0.161909
C97   C     C_3   0.968743 0.325550 0.593620 -0.318231
H19   H     H_    0.013645 0.304327 0.611671 0.161475
H20   H     H_    0.894282 0.259802 0.590929 0.181762
H21   H     H_    0.004584 0.347359 0.564770 0.167138
C98   C     C_3   0.642621 0.652258 0.577602 -0.324623
H22   H     H_    0.651218 0.721894 0.589584 0.151363
H23   H     H_    0.716791 0.659672 0.576742 0.186712
H24   H     H_    0.613100 0.643741 0.547810 0.160197
C99   C     C_3   0.365233 0.053274 0.600327 -0.320648
H25   H     H_    0.303211 0.017732 0.621241 0.167256
H26   H     H_    0.375122 0.126597 0.593207 0.174821
H27   H     H_    0.343889 0.006314 0.574034 0.165404
C100  C     C_3   0.311642 0.946116 0.100547 -0.318975
H28   H     H_    0.285041 0.981322 0.121588 0.169068
H29   H     H_    0.337162 0.993340 0.074355 0.166639
H30   H     H_    0.248303 0.872794 0.093293 0.174471
C101  C     C_3   0.637061 0.689542 0.098252 -0.313076
H31   H     H_    0.700412 0.716543 0.118412 0.168686
H32   H     H_    0.659179 0.668997 0.070794 0.167080
H33   H     H_    0.622876 0.751196 0.093292 0.177757
C102  C     C_3   0.989010 0.348005 0.077121 -0.327498
H34   H     H_    0.927542 0.278508 0.088964 0.151715
H35   H     H_    0.968142 0.357232 0.047407 0.161354
H36   H     H_    0.055294 0.339807 0.076081 0.183601
N25   N     N_R   0.943035 0.644727 0.665707 0.090117
O27   O     O_R   0.872026 0.660227 0.655612 -0.306235
O28   O     O_R   0.010971 0.707286 0.688779 -0.260768
N26   N     N_R   0.379816 0.322704 0.673134 0.096039
O29   O     O_R   0.310467 0.241961 0.657747 -0.304638
O30   O     O_R   0.403466 0.321365 0.709090 -0.283267
N27   N     N_R   0.720710 0.094443 0.667450 0.091184
O31   O     O_R   0.774712 0.066747 0.648589 -0.299803
O32   O     O_R   0.757503 0.150221 0.697796 -0.276741
N28   N     N_R   0.626345 0.904899 0.167155 0.088447
O33   O     O_R   0.708511 0.933794 0.148490 -0.304357
O34   O     O_R   0.606841 0.847650 0.197023 -0.284094
N29   N     N_R   0.295211 0.355457 0.164730 0.095752
O35   O     O_R   0.242596 0.276351 0.144343 -0.290580
O36   O     O_R   0.260158 0.365561 0.197516 -0.276673
N30   N     N_R   0.059201 0.677431 0.173651 0.096166
O37   O     O_R   0.071674 0.758739 0.158480 -0.304428
O38   O     O_R   0.083599 0.677948 0.209636 -0.284816
N31   N     N_R   0.057283 0.382903 0.822534 0.094871
O39   O     O_R   0.027963 0.296149 0.837103 -0.276801
O40   O     O_R   0.103021 0.405157 0.789399 -0.287340
N32   N     N_R   0.507508 0.750027 0.811155 0.096846
O41   O     O_R   0.587449 0.827814 0.822709 -0.307067
O42   O     O_R   0.463352 0.755378 0.780215 -0.265425
N33   N     N_R   0.335067 0.927226 0.818517 0.099243
O43   O     O_R   0.259028 0.933654 0.829525 -0.278094
O44   O     O_R   0.331664 0.885621 0.785490 -0.255980
N34   N     N_R   0.416326 0.082094 0.317154 0.101909
O45   O     O_R   0.336466 0.081837 0.327742 -0.276993
O46   O     O_R   0.455840 0.120459 0.283887 -0.253333
N35   N     N_R   0.671023 0.605923 0.321000 0.093940
O47   O     O_R   0.736025 0.692361 0.333853 -0.278862
O48   O     O_R   0.687907 0.575321 0.288381 -0.287141
N36   N     N_R   0.758793 0.249845 0.311120 0.096373
O49   O     O_R   0.760737 0.172102 0.322823 -0.305441
O50   O     O_R   0.709704 0.244326 0.280026 -0.263974
N37   N     N_R   0.055439 0.680320 0.917048 0.089098
O51   O     O_R   0.107701 0.773387 0.908634 -0.309539
O52   O     O_R   0.002862 0.653642 0.948573 -0.298611
N38   N     N_R   0.329629 0.407617 0.905806 0.089552
O53   O     O_R   0.384584 0.384500 0.926276 -0.276404
O54   O     O_R   0.234472 0.350538 0.906160 -0.304534
N39   N     N_R   0.632518 0.983493 0.926484 0.083605
O55   O     O_R   0.635067 0.020792 0.960417 -0.308034
O56   O     O_R   0.694811 0.954132 0.918367 -0.294191
N40   N     N_R   0.647777 0.015895 0.426560 0.079698
O57   O     O_R   0.740703 0.050305 0.419083 -0.289674
O58   O     O_R   0.612822 0.977274 0.460281 -0.309834
N41   N     N_R   0.371039 0.329124 0.420943 0.087489
O59   O     O_R   0.353032 0.358834 0.453539 -0.303862
O60   O     O_R   0.323325 0.235831 0.412462 -0.303091
N42   N     N_R   0.923134 0.592326 0.405980 0.089177
O61   O     O_R   0.001062 0.614892 0.426476 -0.278182
O62   O     O_R   0.885341 0.649632 0.406555 -0.305833
C103  C     C_3   0.004362 0.673516 0.836720 -0.289162
H37   H     H_    0.971116 0.652738 0.807531 0.157622
H38   H     H_    0.948195 0.675530 0.855755 0.186566
H39   H     H_    0.069925 0.748280 0.834899 0.227714
C104  C     C_3   0.330987 0.381083 0.823160 -0.283104
H40   H     H_    0.385914 0.378523 0.803554 0.167330
H41   H     H_    0.310957 0.321790 0.844657 0.209759
H42   H     H_    0.263557 0.363390 0.806634 0.218125
C105  C     C_3   0.695009 0.071008 0.850829 -0.277171
H43   H     H_    0.708566 0.112684 0.823490 0.153703
H44   H     H_    0.735179 0.126232 0.873819 0.176635
H45   H     H_    0.726558 0.021852 0.847856 0.230124
C106  C     C_3   0.618912 0.925283 0.349993 -0.290713
H46   H     H_    0.562143 0.856610 0.335857 0.140457
H47   H     H_    0.681121 0.965992 0.329599 0.216005
H48   H     H_    0.645952 0.902258 0.375214 0.202343
C107  C     C_3   0.317111 0.342081 0.342570 -0.291925
H49   H     H_    0.302664 0.366932 0.314624 0.157689
H50   H     H_    0.300326 0.264845 0.339222 0.223033
H51   H     H_    0.265282 0.344841 0.363831 0.184050
C108  C     C_3   0.950218 0.618892 0.323307 -0.283349
H52   H     H_    0.008054 0.621781 0.303815 0.166402
H53   H     H_    0.900310 0.636096 0.306663 0.219040
H54   H     H_    0.988968 0.678359 0.344823 0.209072

loop_
_geom_bond_atom_site_label_1
_geom_bond_atom_site_label_2
_geom_bond_distance
_ccdc_geom_bond_type
N21   C51   1.356260 A    
O7    C1    1.250981 A    
C22   C100  1.508267 S    
Cr6   O26   1.960435 S    
O20   C8    1.251291 A    
N25   O28   1.300301 A    
C35   C59   1.459841 S    
C103  H39   1.109558 S    
O18   Cr6   2.083541 S    
N27   O31   1.301347 A    
C77   C95   1.413667 A    
N6    C54   1.355900 A    
C39   N27   1.438186 S    
C46   H4    1.083139 S    
N36   O50   1.301393 A    
C28   H16   1.084507 S    
C98   H23   1.109754 S    
C42   C48   1.399667 A    
N4    C52   1.355089 A    
N31   O39   1.301450 A    
O21   C9    1.280715 A    
N4    N10   1.328088 A    
O16   C11   1.247859 A    
C68   C92   1.397127 A    
C103  H37   1.108155 S    
N11   C59   1.355545 A    
O8    Cr2   1.967968 S    
O10   Cr4   1.972219 S    
C64   C88   1.411012 A    
N32   O42   1.301435 A    
C73   N37   1.437055 S    
C38   N26   1.438057 S    
N16   N22   1.329827 A    
C100  H29   1.110419 S    
C78   C84   1.414364 A    
C106  H46   1.110642 S    
C33   C57   1.464345 S    
C12   C93   1.472629 S    
C45   H3    1.083486 S    
N33   O44   1.301523 A    
N1    N7    1.328893 A    
C24   C30   1.400015 A    
N41   O59   1.301235 A    
O17   C12   1.243828 A    
N2    N8    1.328935 A    
C78   C96   1.417062 A    
O9    Cr3   1.972427 S    
C65   N35   1.439590 S    
C84   C108  1.517594 S    
C48   H6    1.083339 S    
C105  H43   1.108314 S    
C15   C45   1.409732 A    
O2    Cr2   2.075925 S    
C101  H33   1.109395 S    
C80   C86   1.419941 A    
O13   Cr1   2.084932 S    
C71   C95   1.399616 A    
C73   C79   1.414397 A    
C10   C92   1.478363 S    
C72   C96   1.396992 A    
C22   C28   1.398830 A    
O4    Cr4   2.070567 S    
C23   C101  1.508935 S    
N41   O60   1.301041 A    
C18   C48   1.405153 A    
C3    C13   1.482334 S    
N15   N21   1.330164 A    
C36   C42   1.412806 A    
C43   H1    1.083283 S    
N22   C52   1.355799 A    
N26   O29   1.301391 A    
C23   C29   1.396747 A    
C20   C26   1.400021 A    
N17   C59   1.356201 A    
O6    C4    1.244743 A    
C107  H49   1.108160 S    
N13   N19   1.330870 A    
O3    C1    1.242895 A    
O1    Cr1   2.076488 S    
N3    N9    1.328266 A    
C99   H27   1.110414 S    
O19   Cr1   1.958256 S    
O12   C6    1.247297 A    
C40   N28   1.437976 S    
N5    C53   1.354335 A    
C83   C107  1.514622 S    
C16   C22   1.417042 A    
C30   C36   1.399983 A    
C108  H52   1.110519 S    
C99   H26   1.109426 S    
C82   C88   1.416834 A    
C63   N33   1.439009 S    
C31   C55   1.459610 S    
N27   O32   1.301431 A    
N16   C58   1.356262 A    
O1    C2    1.247562 A    
C34   C58   1.463876 S    
N38   O54   1.300978 A    
C79   C103  1.515049 S    
N19   C49   1.357210 A    
O13   C8    1.243378 A    
N15   C57   1.356421 A    
N13   C55   1.355532 A    
N36   O49   1.300797 A    
C107  H51   1.110528 S    
N1    C49   1.354605 A    
C13   C19   1.418736 A    
C98   H24   1.110517 S    
C25   H13   1.084836 S    
N31   O40   1.301478 A    
C72   H12   1.084445 S    
C14   C20   1.418275 A    
C63   C87   1.411407 A    
C39   C45   1.396343 A    
C97   H21   1.110353 S    
N42   O62   1.300950 A    
N17   N23   1.330736 A    
C103  H38   1.110499 S    
C47   H5    1.083496 S    
C79   C85   1.417708 A    
O12   Cr6   1.966793 S    
N29   O35   1.301376 A    
C19   C25   1.400256 A    
C80   C104  1.517552 S    
C73   C91   1.414271 A    
N32   O41   1.300715 A    
C16   C46   1.409390 A    
C100  H30   1.109375 S    
C32   C38   1.412794 A    
N33   O43   1.301347 A    
C106  H47   1.109486 S    
C19   C97   1.508083 S    
C31   C37   1.408623 A    
Cr3   O25   1.961526 S    
O5    C6    1.247423 A    
C21   C99   1.508247 S    
C24   C102  1.508526 S    
N34   O46   1.301528 A    
N5    N11   1.327282 A    
C74   C92   1.417207 A    
C74   C80   1.414335 A    
C33   C39   1.408404 A    
N6    N12   1.329019 A    
C13   C43   1.408515 A    
C71   H11   1.082901 S    
C105  H44   1.110554 S    
C44   H2    1.083365 S    
Cr1   O25   1.960392 S    
C61   C85   1.411361 A    
C100  H28   1.110979 S    
C102  H35   1.110518 S    
O22   Cr4   1.952191 S    
C75   C81   1.416362 A    
C30   H18   1.084542 S    
C5    C18   1.479611 S    
C37   N25   1.440110 S    
O14   Cr2   2.084646 S    
C17   C23   1.419057 A    
N9    C57   1.356071 A    
N18   C60   1.357102 A    
C98   H22   1.110972 S    
O15   Cr3   2.089957 S    
C82   C106  1.514061 S    
N14   N20   1.331700 A    
C32   C56   1.468197 S    
O16   Cr4   2.089482 S    
C54   C90   1.475305 S    
O15   C7    1.246515 A    
C76   N40   1.435203 S    
N40   O58   1.301161 A    
C7    C95   1.474411 S    
N12   C60   1.355908 A    
N37   O52   1.301227 A    
C11   C91   1.479047 S    
C20   C98   1.508540 S    
C61   N31   1.440432 S    
O2    C3    1.246653 A    
C107  H50   1.109836 S    
C97   H19   1.110997 S    
C37   C43   1.397858 A    
C64   C70   1.386796 A    
C69   C93   1.398791 A    
N7    C55   1.355966 A    
O4    C5    1.242934 A    
C63   C69   1.386804 A    
C6    C16   1.480206 S    
C52   C88   1.463639 S    
N28   O34   1.301447 A    
C77   C83   1.413980 A    
N30   O38   1.301362 A    
C108  H53   1.109650 S    
C26   C32   1.400083 A    
C76   C94   1.412307 A    
Cr5   O26   1.960707 S    
O8    C2    1.247479 A    
C75   C93   1.412293 A    
N38   O53   1.300997 A    
O14   C9    1.284783 A    
C25   C31   1.399250 A    
C84   C90   1.420112 A    
C41   C47   1.397831 A    
C62   C68   1.395517 A    
C27   C33   1.401846 A    
C41   N29   1.438640 S    
C104  H41   1.107157 S    
C40   C46   1.395628 A    
C102  H34   1.110976 S    
O5    Cr5   2.074693 S    
N42   O61   1.300986 A    
O11   C5    1.251080 A    
C50   C86   1.475319 S    
C64   N34   1.439795 S    
O23   Cr5   1.956601 S    
O9    C3    1.249358 A    
N20   C50   1.358040 A    
O19   C7    1.250592 A    
C69   H9    1.083385 S    
C42   N30   1.438207 S    
C67   C91   1.401388 A    
C62   C86   1.412793 A    
C9    C96   1.478111 S    
C14   C44   1.405291 A    
C106  H48   1.107876 S    
N26   O30   1.301382 A    
C66   C72   1.395411 A    
C65   C71   1.388184 A    
C1    C14   1.479987 S    
C53   C89   1.462881 S    
C81   C105  1.514187 S    
C97   H20   1.110022 S    
C29   C35   1.399106 A    
C78   N42   1.433474 S    
O23   C11   1.251869 A    
N3    C51   1.355283 A    
O17   Cr5   2.086511 S    
C18   C24   1.418147 A    
N23   C53   1.357400 A    
C105  H45   1.109409 S    
O20   Cr2   1.957120 S    
C104  H42   1.109618 S    
N39   O56   1.300914 A    
C61   C67   1.391617 A    
C102  H36   1.109723 S    
Cr2   O25   1.960771 S    
O24   C12   1.251693 A    
O10   C4    1.250227 A    
N25   O27   1.301713 A    
C77   N41   1.436794 S    
N24   C54   1.357985 A    
C70   C94   1.399095 A    
C29   H17   1.084869 S    
C104  H40   1.110445 S    
C67   H7    1.082951 S    
C75   N39   1.436734 S    
C38   C44   1.399694 A    
N10   C58   1.356054 A    
C27   H15   1.084546 S    
N14   C56   1.357234 A    
N40   O57   1.301188 A    
N35   O48   1.301559 A    
C35   C41   1.408595 A    
C74   N38   1.433418 S    
O11   Cr5   1.968780 S    
C65   C89   1.411784 A    
C21   C27   1.399192 A    
C66   C90   1.412938 A    
C81   C87   1.418967 A    
N34   O45   1.301478 A    
C51   C87   1.464699 S    
N39   O55   1.301229 A    
O21   Cr3   1.952067 S    
C101  H32   1.110353 S    
C26   H14   1.084534 S    
N2    C50   1.355842 A    
C68   H8    1.084418 S    
O22   C10   1.280726 A    
C99   H25   1.110983 S    
C34   C40   1.408210 A    
Cr4   O26   1.961544 S    
C8    C94   1.470904 S    
N28   O33   1.301334 A    
C101  H31   1.111026 S    
N30   O37   1.301425 A    
C4    C17   1.479943 S    
C108  H54   1.107101 S    
C28   C34   1.402046 A    
N37   O51   1.300913 A    
N29   O36   1.301293 A    
N8    C56   1.355920 A    
O18   C10   1.285022 A    
O24   Cr6   1.958655 S    
O7    Cr1   1.967395 S    
C62   N32   1.436987 S    
C49   C85   1.463231 S    
C66   N36   1.437097 S    
C36   C60   1.467760 S    
C2    C15   1.481183 S    
C70   H10   1.083994 S    
C76   C82   1.416428 A    
N18   N24   1.331619 A    
C15   C21   1.417333 A    
O3    Cr3   2.070272 S    
C17   C47   1.408767 A    
C83   C89   1.417880 A    
N35   O47   1.301408 A    
O6    Cr6   2.077425 S    
