data_mof_unit_15370.cif
_audit_creation_date              2012-10-26T20:44:06-0400
_audit_creation_method            fapswitch 2.2
_symmetry_space_group_name_H-M    P1
_symmetry_Int_Tables_number       1
_space_group_crystal_system       triclinic
_cell_length_a                    10.919163
_cell_length_b                    9.498115
_cell_length_c                    19.386703
_cell_angle_alpha                 89.719652
_cell_angle_beta                  90.151479
_cell_angle_gamma                 89.91694
_cell_volume                      2010.59014077

loop_
_atom_site_label
_atom_site_type_symbol
_atom_type_description
_atom_site_fract_x
_atom_site_fract_y
_atom_site_fract_z
_atom_type_partial_charge
C1    C     C_R   0.872367 0.500133 0.500451 -0.055345
C2    C     C_R   0.737996 0.499973 0.500183 0.515816
C3    C     C_R   0.498178 0.500064 0.367902 0.489628
C4    C     C_R   0.498436 0.499973 0.632091 0.487074
C5    C     C_R   0.065541 0.392865 0.536400 0.002658
C6    C     C_R   0.936601 0.609535 0.466002 0.007500
C7    C     C_R   0.937122 0.391213 0.535270 0.003000
C8    C     C_R   0.064835 0.606151 0.463399 -0.001904
C9    C     C_R   0.601481 0.486029 0.746773 -0.004586
C10   C     C_R   0.599240 0.525849 0.253447 0.018671
C11   C     C_R   0.379526 0.470898 0.258860 0.005400
C12   C     C_R   0.128800 0.499750 0.499990 -0.066924
C13   C     C_R   0.378367 0.518962 0.740831 0.010104
C14   C     C_R   0.593835 0.483305 0.818864 -0.010873
C15   C     C_R   0.591309 0.528239 0.181363 -0.009689
C16   C     C_R   0.375087 0.472763 0.186629 -0.001309
C17   C     C_R   0.374145 0.517151 0.813034 0.000527
C18   C     C_R   0.481023 0.498770 0.851648 0.067223
C19   C     C_R   0.480137 0.501649 0.148280 0.065128
C20   C     C_R   0.433157 0.075076 0.452400 0.063318
C21   C     C_R   0.566414 0.924923 0.547771 0.075295
C22   C     C_R   0.565890 0.073834 0.547984 0.037910
C23   C     C_R   0.471338 0.629494 0.962938 -0.026305
C24   C     C_R   0.433181 0.926119 0.452399 0.063905
C25   C     C_R   0.492699 0.500792 0.707492 -0.039766
C26   C     C_R   0.492236 0.499457 0.292477 -0.039648
C27   C     C_2   0.133975 0.283166 0.576428 0.346578
C28   C     C_2   0.871578 0.723644 0.428148 0.323838
C29   C     C_2   0.871901 0.277082 0.572876 0.301767
C30   C     C_2   0.132376 0.709936 0.419520 0.274011
C31   C     C_2   0.723588 0.478573 0.713336 0.298601
C32   C     C_2   0.720314 0.545340 0.287152 0.255546
C33   C     C_2   0.266289 0.438165 0.298303 0.234134
C34   C     C_R   0.477380 0.370553 0.036940 -0.025080
C35   C     C_2   0.263324 0.542240 0.701117 0.253682
C36   C     C_2   0.464367 0.766102 0.924488 0.224422
C37   C     C_2   0.477122 0.233776 0.075392 0.223001
C38   C     C_2   0.469467 0.767407 0.073109 0.224614
C39   C     C_2   0.483530 0.232661 0.926818 0.226535
C40   C     C_R   0.470370 0.630093 0.035766 -0.023711
C41   C     C_R   0.477110 0.369876 0.964109 -0.024574
C42   C     C_R   0.474848 0.500706 0.072396 0.011850
C43   C     C_R   0.475562 0.499374 0.927495 0.011165
C44   C     C_R   0.262456 0.499974 0.499938 0.481604
Cu1   Cu    Cu3+1 0.500000 0.640660 0.500000 0.997331
Cu2   Cu    Cu3+1 0.500000 0.359340 0.500000 0.964690
H1    H     H_    0.379438 0.131769 0.414382 0.139120
H2    H     H_    0.869504 0.723514 0.372288 0.141572
H3    H     H_    0.815468 0.203017 0.544870 0.140991
H4    H     H_    0.209367 0.675650 0.388602 0.106353
H5    H     H_    0.732080 0.486904 0.657779 0.123474
H6    H     H_    0.730340 0.531593 0.342391 0.094773
H7    H     H_    0.268465 0.428866 0.353984 0.106067
H8    H     H_    0.265385 0.555554 0.645638 0.110206
H9    H     H_    0.411674 0.853031 0.945212 0.119036
H10   H     H_    0.428387 0.143884 0.054654 0.114433
H11   H     H_    0.515720 0.858283 0.051327 0.111749
H12   H     H_    0.619852 0.868255 0.585915 0.146411
H13   H     H_    0.533562 0.144664 0.949081 0.115773
H14   H     H_    0.617873 0.129459 0.586739 0.129769
H15   H     H_    0.379775 0.870401 0.414273 0.138539
H16   H     H_    0.675815 0.471712 0.850042 0.171673
H17   H     H_    0.672057 0.548065 0.150413 0.172587
H18   H     H_    0.290100 0.451161 0.159701 0.175469
H19   H     H_    0.287887 0.530897 0.839731 0.175684
H20   H     H_    0.210284 0.312824 0.609129 0.120764
N1    N     N_R   0.500000 0.852070 0.500000 -0.228894
N2    N     N_R   0.500000 0.147930 0.500000 -0.237213
O1    O     O_R   0.319640 0.618740 0.500000 -0.499393
O2    O     O_2   0.828549 0.823600 0.459224 -0.441818
O3    O     O_2   0.885107 0.261991 0.635008 -0.434330
O4    O     O_2   0.105336 0.834738 0.419190 -0.451594
O5    O     O_2   0.816895 0.464648 0.747602 -0.411973
O6    O     O_2   0.811037 0.575394 0.253457 -0.473469
O7    O     O_2   0.168426 0.420778 0.268926 -0.460617
O8    O     O_2   0.164189 0.547460 0.730034 -0.439432
O9    O     O_2   0.519494 0.784569 0.870502 -0.467096
O10   O     O_2   0.533544 0.218648 0.129377 -0.468861
O11   O     O_2   0.414878 0.781674 0.127513 -0.469111
O12   O     O_R   0.680360 0.381260 0.500000 -0.526304
O13   O     O_2   0.430869 0.215061 0.871911 -0.462751
O14   O     O_R   0.680360 0.618740 0.500000 -0.460885
O15   O     O_R   0.319640 0.381260 0.500000 -0.513447
O16   O     O_R   0.500020 0.618830 0.400190 -0.508587
O17   O     O_R   0.499980 0.381170 0.599810 -0.503312
O18   O     O_R   0.499980 0.618830 0.599810 -0.503693
O19   O     O_R   0.500020 0.381170 0.400190 -0.499820
O20   O     O_2   0.108474 0.158520 0.571150 -0.428656

loop_
_geom_bond_atom_site_label_1
_geom_bond_atom_site_label_2
_ccdc_geom_bond_type
Cu2   O12   S    
C24   H15   S    
C7    C29   S    
C34   C37   S    
C14   C18   A    
Cu1   O14   S    
C34   C42   A    
C44   O15   A    
C4    C25   S    
C9    C25   A    
C39   C41   S    
C29   H3    S    
Cu1   Cu2   S    
C15   C19   A    
C13   C35   S    
C36   O9    D    
C22   H14   S    
C31   O5    D    
C4    O18   A    
C38   O11   D    
C23   C40   A    
C14   H16   S    
C23   C43   A    
C1    C2    S    
C32   H6    S    
C24   N1    A    
C5    C27   S    
C37   H10   S    
C33   O7    D    
C6    C28   S    
C20   C24   A    
Cu1   N1    S    
C19   C42   S    
Cu2   O17   S    
C10   C26   A    
C40   C42   A    
C30   H4    S    
C21   C22   A    
C21   N1    A    
C35   H8    S    
C41   C43   A    
C13   C25   A    
C34   C41   A    
C33   H7    S    
C35   O8    D    
Cu1   O1    S    
C1    C6    A    
C11   C33   S    
C39   O13   D    
C5    C12   A    
C5    C7    A    
C6    C8    A    
C4    O17   A    
C11   C26   A    
C3    O19   A    
C9    C14   A    
Cu2   N2    S    
C38   H11   S    
C11   C16   A    
C8    C12   A    
C39   H13   S    
C17   C18   A    
C44   O1    A    
C22   N2    A    
C2    O14   A    
Cu1   O16   S    
Cu2   O19   S    
C28   H2    S    
C32   O6    D    
C1    C7    A    
C20   N2    A    
C3    C26   S    
C28   O2    D    
C31   H5    S    
C30   O4    D    
C37   O10   D    
C17   H19   S    
C13   C17   A    
C10   C15   A    
C8    C30   S    
Cu1   O18   S    
C21   H12   S    
C12   C44   S    
C27   H20   S    
C18   C43   S    
C38   C40   S    
C16   C19   A    
C27   O20   D    
C20   H1    S    
C2    O12   A    
C9    C31   S    
Cu2   O15   S    
C10   C32   S    
C23   C36   S    
C3    O16   A    
C36   H9    S    
C15   H17   S    
C16   H18   S    
C29   O3    D    
