data_mof_unit_36333.cif
_audit_creation_date              2012-12-10T16:57:12-0500
_audit_creation_method            fapswitch 2.2
_symmetry_space_group_name_H-M    P1
_symmetry_Int_Tables_number       1
_space_group_crystal_system       triclinic
_cell_length_a                    15.883199
_cell_length_b                    10.945481
_cell_length_c                    9.819543
_cell_angle_alpha                 86.471706
_cell_angle_beta                  91.723063
_cell_angle_gamma                 90.40353
_cell_volume                      1703.09091871

loop_
_atom_site_label
_atom_site_type_symbol
_atom_type_description
_atom_site_fract_x
_atom_site_fract_y
_atom_site_fract_z
_atom_type_partial_charge
C1    C     C_R   0.502557 0.265607 0.505488 0.770660
C2    C     C_3   0.953640 0.362083 0.602382 0.459318
C3    C     C_3   0.915532 0.473089 0.501981 -0.232231
C4    C     C_3   0.952138 0.596434 0.558438 -0.516641
C5    C     C_3   0.050512 0.607615 0.552443 0.422028
C6    C     C_1   0.823724 0.480430 0.508164 0.206528
C7    C     C_1   0.175185 0.490871 0.490380 0.158111
C8    C     C_1   0.250812 0.495705 0.493400 0.044819
C9    C     C_2   0.442674 0.937504 0.453583 0.442987
C10   C     C_2   0.508916 0.864207 0.479607 -0.265285
C11   C     C_2   0.456463 0.069546 0.436364 -0.353771
C12   C     C_R   0.340507 0.499557 0.498144 0.852853
C13   C     C_2   0.502700 0.132951 0.525149 0.247918
C14   C     C_2   0.466878 0.416747 0.934002 0.418973
C15   C     C_2   0.494626 0.404280 0.081342 -0.022751
C16   C     C_R   0.501210 0.733551 0.495338 0.878726
C17   C     C_R   0.659334 0.498198 0.502001 0.792503
C18   C     C_3   0.053190 0.367523 0.583272 0.102125
C19   C     C_3   0.042083 0.484845 0.340701 -0.159747
C20   C     C_3   0.941652 0.470657 0.342995 0.543665
C21   C     C_1   0.748548 0.489428 0.507144 0.033897
C22   C     C_3   0.082410 0.485700 0.490608 -0.143631
Cu1   Cu    Cu3+1 0.500020 0.500020 0.638630 1.199847
Cu2   Cu    Cu3+1 0.499980 0.499980 0.361370 1.081597
H1    H     H_    0.080434 0.380307 0.685470 0.142910
H2    H     H_    0.923630 0.678487 0.509408 0.267512
H3    H     H_    0.572365 0.900523 0.474266 0.162223
H4    H     H_    0.421590 0.118075 0.352959 0.185813
H5    H     H_    0.505794 0.313826 0.129272 0.148583
H6    H     H_    0.465171 0.572235 0.111966 0.256171
H7    H     H_    0.055936 0.574370 0.288234 0.237563
H8    H     H_    0.928563 0.610759 0.659790 0.247079
N1    N     N_2   0.499090 0.498660 0.846910 -0.064139
N2    N     N_2   0.499070 0.498630 0.153040 -0.233829
O1    O     O_R   0.500010 0.321960 0.617040 -0.502802
O2    O     O_R   0.499990 0.321920 0.382900 -0.620879
O3    O     O_R   0.379450 0.500030 0.617120 -0.529830
O4    O     O_R   0.379420 0.499980 0.382980 -0.577902
O5    O     O_R   0.500010 0.678080 0.617100 -0.488999
O6    O     O_R   0.499990 0.678040 0.382960 -0.566542
O7    O     O_R   0.620580 0.500020 0.617020 -0.520491
O8    O     O_R   0.620550 0.499970 0.382880 -0.533614
S1    S     S_3+6 0.900704 0.210497 0.584169 0.168412
O9    O     O_2   0.807833 0.227560 0.557395 -0.256005
O10   O     O_2   0.934635 0.134632 0.477419 -0.151395
O11   O     O_3   0.909013 0.119902 0.728794 -0.386297
H9    H     H_    0.872197 0.048383 0.713018 0.387302
S2    S     S_3+6 0.933810 0.382740 0.785155 0.072409
O12   O     O_2   0.840509 0.376594 0.806694 -0.163321
O13   O     O_2   0.974892 0.279124 0.869876 -0.171430
O14   O     O_3   0.970424 0.510698 0.852920 -0.572570
H10   H     H_    0.014366 0.484229 0.921933 0.383416
S3    S     S_3+6 0.339013 0.881050 0.432999 0.068295
O15   O     O_2   0.335451 0.800616 0.314169 -0.272739
O16   O     O_2   0.315019 0.807135 0.560153 -0.223408
O17   O     O_3   0.271699 0.998522 0.403880 -0.504795
H11   H     H_    0.230962 0.972288 0.332986 0.412543
S4    S     S_3+6 0.549431 0.066557 0.682151 0.066282
O18   O     O_2   0.493390 0.967300 0.742412 -0.221039
O19   O     O_2   0.633717 0.013506 0.653997 -0.276322
O20   O     O_3   0.565519 0.170902 0.799305 -0.481075
H12   H     H_    0.586924 0.123709 0.882339 0.379998
S5    S     S_3+6 0.374202 0.333092 0.894233 0.071981
O21   O     O_2   0.304770 0.421299 0.852261 -0.234185
O22   O     O_2   0.386085 0.248681 0.781879 -0.230180
O23   O     O_3   0.344017 0.249209 0.033930 -0.495626
H13   H     H_    0.383288 0.179054 0.043030 0.355320
S6    S     S_3+6 0.580284 0.596676 0.902837 0.155187
O24   O     O_2   0.543468 0.700037 0.975133 -0.265383
O25   O     O_2   0.641913 0.526958 0.996960 -0.226981
O26   O     O_3   0.635403 0.664385 0.775594 -0.460094
H14   H     H_    0.679140 0.713899 0.821070 0.382235
S7    S     S_3+6 0.109041 0.225676 0.560010 0.102443
O27   O     O_2   0.077774 0.126344 0.658516 -0.169861
O28   O     O_2   0.100190 0.184755 0.417399 -0.183149
O29   O     O_3   0.212121 0.245187 0.597256 -0.511925
H15   H     H_    0.236600 0.162050 0.600599 0.417809
N3    N     N_3   0.083744 0.397004 0.258049 -0.417245
H16   H     H_    0.062626 0.412727 0.156632 0.270566
H17   H     H_    0.148186 0.416223 0.254790 0.247429
S8    S     S_3+6 0.905630 0.336375 0.250015 0.134957
O30   O     O_2   0.897353 0.373143 0.100393 -0.152926
O31   O     O_2   0.965814 0.231457 0.258869 -0.157238
O32   O     O_3   0.809832 0.288523 0.298525 -0.477600
H18   H     H_    0.794507 0.222085 0.238176 0.397785
S9    S     S_3+6 0.888837 0.596912 0.235798 0.076459
O33   O     O_2   0.805979 0.551883 0.178960 -0.179587
O34   O     O_2   0.867800 0.710616 0.304806 -0.260638
O35   O     O_3   0.950234 0.637471 0.103709 -0.491407
H19   H     H_    0.914064 0.689016 0.039820 0.411175
N4    N     N_3   0.089493 0.626217 0.688087 -0.486510
H20   H     H_    0.108106 0.549084 0.747607 0.225728
H21   H     H_    0.053514 0.683869 0.744076 0.296432
S10   S     S_3+6 0.080684 0.748809 0.454007 0.070910
O36   O     O_2   0.166021 0.735600 0.395383 -0.250309
O37   O     O_2   0.020057 0.785025 0.339076 -0.195613
O38   O     O_3   0.085108 0.863933 0.559829 -0.424811
H22   H     H_    0.110061 0.933526 0.505580 0.425267

loop_
_geom_bond_atom_site_label_1
_geom_bond_atom_site_label_2
_ccdc_geom_bond_type
C10   H3    S    
S5    O22   D    
C2    C18   S    
Cu2   O8    S    
S7    O27   D    
C19   C20   S    
C3    C6    S    
C19   H7    S    
C14   N1    D    
C5    S10   S    
C7    C8    T    
S3    O15   D    
Cu2   O2    S    
S9    O34   D    
S4    O19   D    
O38   H22   S    
C11   C13   D    
O17   H11   S    
C12   O3    A    
C17   O8    A    
S2    O14   S    
C5    C22   S    
S6    O24   D    
Cu1   N1    S    
C20   S9    S    
Cu2   O4    S    
Cu1   Cu2   S    
C9    C10   D    
C15   N2    D    
S4    O20   S    
S2    O13   D    
O23   H13   S    
S5    O23   S    
C20   S8    S    
S7    O28   D    
S10   O36   D    
C18   H1    S    
S8    O31   D    
C15   H5    S    
C17   O7    A    
S3    O16   D    
H6    N2    S    
O14   H10   S    
C19   C22   S    
O32   H18   S    
N4    H20   S    
S9    O33   D    
C13   S4    S    
S10   O38   S    
C2    S2    S    
S4    O18   D    
Cu1   O3    S    
C6    C21   T    
S8    O30   D    
C19   N3    S    
S1    O9    D    
N4    H21   S    
C9    C11   S    
C2    S1    S    
C8    C12   S    
C3    C20   S    
C4    H8    S    
O29   H15   S    
S10   O37   D    
S1    O10   D    
C5    N4    S    
C16   O6    A    
S2    O12   D    
C18   S7    S    
Cu1   O1    S    
S7    O29   S    
C9    S3    S    
C3    C4    S    
S8    O32   S    
C1    O1    A    
S3    O17   S    
O11   H9    S    
C18   C22   S    
C4    C5    S    
S9    O35   S    
C4    H2    S    
C7    C22   S    
Cu1   O7    S    
C2    C3    S    
O26   H14   S    
C10   C16   S    
N3    H16   S    
C11   H4    S    
S6    O26   S    
Cu1   O5    S    
C14   S5    S    
Cu2   O6    S    
N3    H17   S    
C12   O4    A    
O20   H12   S    
S1    O11   S    
Cu2   N2    S    
C16   O5    A    
S5    O21   D    
C1    C13   S    
C1    O2    A    
S6    O25   D    
C14   C15   S    
O35   H19   S    
N1    S6    S    
C17   C21   S    
