data_mof_unit_34424.cif
_audit_creation_date              2012-12-10T20:57:59-0500
_audit_creation_method            fapswitch 2.2
_symmetry_space_group_name_H-M    P1
_symmetry_Int_Tables_number       1
_space_group_crystal_system       triclinic
_cell_length_a                    18.196066
_cell_length_b                    18.252398
_cell_length_c                    18.381379
_cell_angle_alpha                 120.112774
_cell_angle_beta                  89.987463
_cell_angle_gamma                 119.865304
_cell_volume                      4318.6674699

loop_
_atom_site_label
_atom_site_type_symbol
_atom_type_description
_atom_site_fract_x
_atom_site_fract_y
_atom_site_fract_z
_atom_type_partial_charge
C1    C     C_R   0.360633 0.220088 0.361011 0.829613
C2    C     C_3   0.295530 0.595165 0.358399 -0.493984
C3    C     C_3   0.300922 0.501066 0.301599 0.140301
C4    C     C_3   0.198821 0.501350 0.200648 0.160103
C5    C     C_3   0.145526 0.398536 0.193026 -0.403440
C6    C     C_3   0.232727 0.592743 0.299993 -0.404278
C7    C     C_3   0.669472 0.941312 0.659170 -0.373421
C8    C     C_3   0.730015 0.061610 0.720052 -0.485300
C9    C     C_3   0.691346 0.937083 0.791820 -0.517697
C10   C     C_3   0.799669 0.939250 0.704631 0.259459
C11   C     C_3   0.699354 0.897331 0.697215 0.099849
C12   C     C_R   0.640956 0.780919 0.639018 0.792576
C13   C     C_3   0.800319 0.102560 0.803191 0.041647
C14   C     C_3   0.744852 0.056621 0.851587 -0.426568
C15   C     C_3   0.858599 0.059558 0.765708 0.288208
C16   C     C_3   0.640253 0.437068 0.202830 -0.399739
C17   C     C_3   0.699515 0.436692 0.143443 -0.385395
C18   C     C_3   0.770195 0.613115 0.332140 -0.405025
C19   C     C_3   0.745770 0.452404 0.306814 -0.399792
C20   C     C_3   0.697915 0.500810 0.301579 0.210275
C21   C     C_3   0.799243 0.500738 0.200076 0.211917
C22   C     C_3   0.829402 0.613045 0.271907 -0.396359
C23   C     C_R   0.359410 0.500768 0.640844 0.782884
C24   C     C_3   0.805675 0.452592 0.247197 -0.412440
C25   C     C_R   0.481637 0.189529 0.549921 -0.218188
C26   C     C_R   0.435895 0.143691 0.461706 0.465087
C27   C     C_R   0.343071 0.099373 0.434701 -0.078285
C28   C     C_R   0.296669 0.100117 0.496257 0.459823
C29   C     C_R   0.343043 0.143007 0.583422 -0.250106
C30   C     C_R   0.435107 0.188193 0.610111 -0.266788
C31   C     C_R   0.236889 0.943997 0.286165 -0.215945
C32   C     C_R   0.191828 0.892405 0.196397 -0.069841
C33   C     C_R   0.203060 0.949224 0.161026 -0.012283
C34   C     C_R   0.640625 0.500537 0.359318 0.748896
C35   C     C_R   0.260027 0.056224 0.216450 -0.283730
C36   C     C_R   0.305193 0.107756 0.306121 -0.028088
C37   C     C_R   0.294097 0.051040 0.341553 0.103434
C38   C     C_R   0.205988 0.902439 0.008526 -0.138730
C39   C     C_R   0.162619 0.855999 0.919682 -0.138657
C40   C     C_R   0.070295 0.808719 0.889278 -0.113961
C41   C     C_R   0.021121 0.807985 0.947690 -0.121910
C42   C     C_R   0.064186 0.854026 0.036583 -0.117837
C43   C     C_R   0.156867 0.900968 0.067306 0.159812
C44   C     C_R   0.905892 0.605992 0.554572 -0.290314
C45   C     C_R   0.641875 0.499868 0.639745 0.811285
C46   C     C_R   0.854726 0.552466 0.589463 -0.202001
C47   C     C_R   0.840459 0.603910 0.669155 0.166357
C48   C     C_R   0.877794 0.709550 0.713895 -0.217669
C49   C     C_R   0.929024 0.763277 0.679272 -0.225425
C50   C     C_R   0.944455 0.713330 0.599647 0.569074
C51   C     C_R   0.840275 0.545311 0.762641 -0.276819
C52   C     C_R   0.799278 0.497006 0.804532 -0.049372
C53   C     C_R   0.706304 0.448752 0.791013 -0.019735
C54   C     C_R   0.657210 0.452008 0.737073 -0.276154
C55   C     C_R   0.698280 0.500853 0.695645 -0.048696
C56   C     C_R   0.358412 0.500592 0.359340 0.742864
C57   C     C_R   0.791185 0.548845 0.708885 -0.000943
C58   C     C_R   0.628111 0.294656 0.796810 -0.105001
C59   C     C_R   0.580203 0.245492 0.836055 -0.129979
C60   C     C_R   0.560389 0.297645 0.910870 -0.115611
C61   C     C_R   0.588453 0.398994 0.946469 -0.157126
C62   C     C_R   0.637099 0.448728 0.908022 -0.163585
C63   C     C_R   0.657654 0.397055 0.833333 0.152635
C64   C     C_R   0.408168 0.811901 0.732048 -0.132751
C65   C     C_R   0.384078 0.742465 0.754937 -0.118231
C66   C     C_R   0.301061 0.645124 0.705339 0.155941
C67   C     C_3   0.340028 0.507704 0.227711 0.397892
C68   C     C_R   0.242033 0.618610 0.633572 -0.139795
C69   C     C_R   0.266349 0.688319 0.610990 -0.140450
C70   C     C_R   0.349448 0.784751 0.660020 -0.102219
C71   C     C_R   0.222474 0.567346 0.781372 -0.261193
C72   C     C_R   0.195838 0.499032 0.806035 -0.056245
C73   C     C_R   0.223751 0.431806 0.776101 -0.009068
C74   C     C_R   0.276634 0.434330 0.722004 -0.270754
C75   C     C_R   0.303488 0.502740 0.697664 -0.051374
C76   C     C_R   0.276120 0.570475 0.727942 -0.014243
C77   C     C_R   0.249926 0.390757 0.880268 -0.107975
C78   C     C_3   0.282168 0.514010 0.172011 -0.448956
C79   C     C_R   0.233658 0.318546 0.897524 -0.159316
C80   C     C_R   0.168665 0.213005 0.833263 -0.065298
C81   C     C_R   0.119153 0.179552 0.752037 -0.080955
C82   C     C_R   0.134803 0.251395 0.734639 -0.185685
C83   C     C_R   0.200465 0.357413 0.798599 0.163266
C84   C     C_R   0.856990 0.500476 0.142781 0.741358
C85   C     C_R   0.138738 0.499656 0.861734 0.783482
C86   C     C_R   0.857036 0.219000 0.862474 0.760481
C87   C     C_R   0.136957 0.779970 0.141273 0.786929
C88   C     C_R   0.855848 0.499681 0.861998 0.793006
C89   C     C_3   0.203965 0.400824 0.256298 -0.370919
C90   C     C_R   0.140249 0.500485 0.142929 0.757879
H1    H     H_    0.174650 0.584497 0.323896 0.187457
H2    H     H_    0.173620 0.397585 0.308107 0.144822
H3    H     H_    0.083530 0.386054 0.210105 0.145779
H4    H     H_    0.598423 0.913446 0.654556 0.180980
H5    H     H_    0.672420 0.912991 0.590476 0.192303
H6    H     H_    0.764533 0.091258 0.681417 0.159106
H7    H     H_    0.686954 0.090181 0.741041 0.199465
H8    H     H_    0.619609 0.903212 0.787298 0.198596
H9    H     H_    0.696550 0.078248 0.866419 0.195642
H10   H     H_    0.820227 0.908795 0.733950 0.071670
H11   H     H_    0.409610 0.580623 0.262118 -0.007164
H12   H     H_    0.716094 0.911167 0.822880 0.149106
H13   H     H_    0.786555 0.089180 0.917408 0.135731
H14   H     H_    0.605821 0.471046 0.197288 0.163794
H15   H     H_    0.587449 0.355731 0.178431 0.183566
H16   H     H_    0.675084 0.355252 0.091098 0.181183
H17   H     H_    0.693391 0.470312 0.109353 0.175699
H18   H     H_    0.323471 0.589874 0.181243 0.107534
H19   H     H_    0.824353 0.648558 0.239250 0.153018
H20   H     H_    0.787734 0.496852 0.376852 0.174548
H21   H     H_    0.695100 0.371548 0.284899 0.159789
H22   H     H_    0.783869 0.371782 0.196593 0.152604
H23   H     H_    0.876502 0.497044 0.288548 0.160426
H24   H     H_    0.813564 0.660532 0.402429 0.199687
H25   H     H_    0.900898 0.661711 0.313810 0.189052
H26   H     H_    0.470363 0.222326 0.677695 0.179891
H27   H     H_    0.553263 0.225727 0.571565 0.153707
H28   H     H_    0.260444 0.453028 0.099823 0.197343
H29   H     H_    0.307689 0.141394 0.630558 0.154356
H30   H     H_    0.267622 0.099428 0.189276 0.174508
H31   H     H_    0.277543 0.938617 0.031367 0.121491
H32   H     H_    0.200551 0.856518 0.874358 0.131060
H33   H     H_    0.949631 0.771469 0.924023 0.123056
H34   H     H_    0.025532 0.852708 0.081280 0.101481
H35   H     H_    0.204584 0.330881 0.217996 0.205230
H36   H     H_    0.914753 0.562365 0.492905 0.108701
H37   H     H_    0.826732 0.470927 0.554667 0.141066
H38   H     H_    0.868048 0.750541 0.776143 0.134807
H39   H     H_    0.957816 0.845101 0.715278 0.131886
H40   H     H_    0.586205 0.416613 0.728271 0.180961
H41   H     H_    0.642467 0.253407 0.738365 0.108241
H42   H     H_    0.558151 0.166892 0.808275 0.113517
H43   H     H_    0.523212 0.259508 0.941143 0.120180
H44   H     H_    0.572969 0.439460 0.004102 0.116051
H45   H     H_    0.124262 0.332206 0.123164 0.188201
H46   H     H_    0.658530 0.527245 0.936148 0.117092
H47   H     H_    0.368271 0.838491 0.642299 0.114005
H48   H     H_    0.472343 0.886708 0.770044 0.110241
H49   H     H_    0.430202 0.763915 0.810513 0.105167
H50   H     H_    0.177748 0.543843 0.594874 0.113547
H51   H     H_    0.220860 0.667526 0.555396 0.112987
H52   H     H_    0.297222 0.382155 0.699162 0.164499
H53   H     H_    0.301833 0.472161 0.929654 0.104246
H54   H     H_    0.272462 0.344115 0.959985 0.131915
H55   H     H_    0.269758 0.594019 0.413011 0.205890
H56   H     H_    0.157282 0.157046 0.846014 0.126848
H57   H     H_    0.069761 0.097892 0.701978 0.138272
H58   H     H_    0.097139 0.224432 0.670839 0.121954
H59   H     H_    0.363760 0.668723 0.389935 0.170031
H60   H     H_    0.269373 0.667656 0.307321 0.173859
O1    O     O_3   0.500000 0.500000 0.500000 -0.477964
O2    O     O_R   0.383400 0.560740 0.616060 -0.632105
O3    O     O_R   0.555060 0.439270 0.322940 -0.651496
O4    O     O_R   0.383950 0.268380 0.445700 -0.653313
O5    O     O_R   0.677590 0.731610 0.615290 -0.639381
O6    O     O_3   0.997750 0.500010 0.002220 -0.477631
O7    O     O_R   0.942690 0.560750 0.179280 -0.649536
O8    O     O_R   0.114340 0.439270 0.886160 -0.632912
O9    O     O_R   0.820160 0.268410 0.886930 -0.649469
O10   O     O_R   0.113800 0.731630 0.056520 -0.632200
O11   O     O_R   0.819390 0.439310 0.886160 -0.638433
O12   O     O_R   0.383400 0.268380 0.323710 -0.649705
O13   O     O_R   0.115110 0.560720 0.179280 -0.655059
O14   O     O_R   0.941380 0.560750 0.885620 -0.643963
O15   O     O_R   0.115110 0.439270 0.057830 -0.641511
O16   O     O_R   0.942690 0.268390 0.886930 -0.600695
O17   O     O_R   0.114340 0.731630 0.178520 -0.647455
O18   O     O_R   0.820160 0.439310 0.057830 -0.643201
O19   O     O_R   0.113800 0.560730 0.885620 -0.646787
O20   O     O_R   0.555060 0.731630 0.615290 -0.650101
O21   O     O_R   0.383950 0.439280 0.616600 -0.662507
O22   O     O_R   0.677590 0.560710 0.444390 -0.642125
O23   O     O_R   0.556370 0.439260 0.616600 -0.640692
O24   O     O_R   0.382640 0.439290 0.322940 -0.605164
O25   O     O_R   0.678360 0.560700 0.616060 -0.640881
O26   O     O_R   0.382640 0.560750 0.444390 -0.651822
Zn1   Zn    Zn3+2 0.456040 0.586770 0.543190 0.957020
Zn2   Zn    Zn3+2 0.456820 0.413240 0.543960 0.963922
Zn3   Zn    Zn3+2 0.631110 0.586750 0.543190 0.968620
Zn4   Zn    Zn3+2 0.456040 0.413240 0.369660 0.969218
Zn5   Zn    Zn3+2 0.041710 0.413240 0.959030 0.982492
Zn6   Zn    Zn3+2 0.866640 0.413270 0.959030 0.953698
Zn7   Zn    Zn3+2 0.040930 0.586780 0.958260 0.966000
Zn8   Zn    Zn3+2 0.041710 0.586770 0.132560 0.939952
O27   O     O_3   0.338085 0.417574 0.170542 -0.591478
C91   C     C_3   0.414463 0.441238 0.143258 0.107635
H61   H     H_    0.476861 0.495434 0.201831 0.131488
H62   H     H_    0.418237 0.475969 0.106766 0.112703
C92   C     C_3   0.407680 0.341697 0.081433 -0.824542
H63   H     H_    0.346687 0.286251 0.021473 0.246154
H64   H     H_    0.467689 0.358621 0.060111 0.187565
H65   H     H_    0.403918 0.305856 0.116712 0.269131
O28   O     O_3   0.806555 0.904473 0.617945 -0.638780
C93   C     C_3   0.876157 0.889915 0.609247 0.144021
H66   H     H_    0.849525 0.810573 0.589209 0.189839
H67   H     H_    0.934878 0.947379 0.671915 0.145491
C94   C     C_3   0.908529 0.901083 0.536913 -0.865268
H68   H     H_    0.935060 0.979967 0.555766 0.243071
H69   H     H_    0.962797 0.889037 0.528685 0.244936
H70   H     H_    0.852209 0.843133 0.472635 0.253058
H71   H     H_    0.881960 0.084314 0.720978 0.146599
O29   O     O_3   0.941018 0.103412 0.826225 -0.608704
C95   C     C_3   0.932847 0.095780 0.898906 0.131240
H72   H     H_    0.872281 0.021334 0.880725 0.111120
H73   H     H_    0.933295 0.161668 0.953454 0.151170
C96   C     C_3   0.014063 0.104298 0.934781 -0.864778
H74   H     H_    0.076470 0.180588 0.958698 0.266391
H75   H     H_    0.008173 0.097293 0.991463 0.204098
H76   H     H_    0.018095 0.041521 0.881559 0.244309
H77   H     H_    0.737335 0.649766 0.329481 0.149663
O30   O     O_3   0.482838 0.147907 0.403237 -0.618365
C97   C     C_3   0.492559 0.065591 0.365974 0.080154
H78   H     H_    0.426178 0.989609 0.334631 0.130115
H79   H     H_    0.537288 0.077266 0.417843 0.133309
C98   C     C_3   0.534716 0.062087 0.293887 -0.834070
H80   H     H_    0.601658 0.136242 0.322965 0.252240
H81   H     H_    0.543012 0.997745 0.264084 0.198204
H82   H     H_    0.490829 0.049310 0.240691 0.256406
O31   O     O_3   0.205169 0.054191 0.469073 -0.614472
C99   C     C_3   0.189147 0.131590 0.512065 0.112504
H83   H     H_    0.232535 0.196425 0.505725 0.156210
H84   H     H_    0.200971 0.162703 0.583875 0.138010
C100  C     C_3   0.091702 0.084386 0.468841 -0.858997
H85   H     H_    0.046438 0.019839 0.474430 0.261140
H86   H     H_    0.077800 0.144102 0.502623 0.200777
H87   H     H_    0.078250 0.054214 0.397245 0.258374
H88   H     H_    0.229703 0.900819 0.313246 0.165925
H89   H     H_    0.037044 0.772630 0.820431 0.135057
O32   O     O_3   0.995643 0.773924 0.570310 -0.641980
C101  C     C_3   0.022011 0.725168 0.499043 0.044664
H90   H     H_    0.962517 0.659354 0.437596 0.144100
H91   H     H_    0.057995 0.698419 0.516275 0.140623
C102  C     C_3   0.086039 0.802262 0.480118 -0.781377
H92   H     H_    0.145586 0.870848 0.540797 0.257205
H93   H     H_    0.108886 0.765178 0.425640 0.209136
H94   H     H_    0.051642 0.827854 0.459081 0.256532
H95   H     H_    0.911369 0.581099 0.771807 0.177120
H96   H     H_    0.201666 0.619275 0.803849 0.175140

loop_
_geom_bond_atom_site_label_1
_geom_bond_atom_site_label_2
_ccdc_geom_bond_type
C66   C68   A    
C95   H72   S    
O4    Zn2   S    
C9    H8    S    
C31   H88   S    
C92   H65   S    
C41   C42   A    
C93   H67   S    
C35   C36   A    
C8    H6    S    
C98   H80   S    
C18   H24   S    
C99   H84   S    
C72   C85   S    
O6    Zn8   S    
C100  H87   S    
C42   H34   S    
C7    C8    S    
C30   H26   S    
C53   C54   A    
C2    H55   S    
C7    C11   S    
C95   H73   S    
C44   H36   S    
C26   C27   A    
O32   C101  S    
C39   H32   S    
C101  C102  S    
C36   C37   A    
C78   H28   S    
C39   C40   A    
C10   C15   S    
C45   O25   A    
C71   C76   A    
C96   H75   S    
O1    Zn1   S    
C93   C94   S    
C47   C57   S    
C77   C83   A    
C69   H51   S    
C6    H1    S    
C11   C12   S    
O2    Zn1   S    
C87   O10   A    
C50   O32   S    
C78   H18   S    
C73   C74   A    
C62   H46   S    
O11   Zn6   S    
C94   H69   S    
O19   Zn7   S    
C54   C55   A    
C16   H14   S    
C87   O17   A    
C100  H85   S    
C44   C46   A    
C16   C17   S    
C81   H57   S    
C24   H22   S    
C13   C86   S    
C47   C48   A    
C21   C84   S    
O21   Zn2   S    
O26   Zn1   S    
C26   O30   S    
C51   C57   A    
O7    Zn8   S    
C64   C70   A    
C94   H68   S    
C86   O9    A    
O10   Zn7   S    
O12   Zn4   S    
C98   H81   S    
O28   C93   S    
C72   C73   A    
C20   C34   S    
C5    H3    S    
C2    H59   S    
C80   H56   S    
C93   H66   S    
C74   H52   S    
O3    Zn4   S    
C24   H23   S    
C1    O4    A    
C21   C22   S    
C35   H30   S    
C61   C62   A    
C67   C78   S    
C86   O16   A    
C99   H83   S    
C15   H71   S    
O6    Zn7   S    
O5    Zn3   S    
C61   H44   S    
C81   C82   A    
C4    C90   S    
C77   C79   A    
C1    C36   S    
C54   H40   S    
C95   C96   S    
C59   H42   S    
C74   C75   A    
O20   Zn1   S    
C51   C52   A    
C33   C43   S    
C71   H96   S    
C46   H37   S    
C52   C88   S    
C4    C6    S    
O29   C95   S    
C98   H82   S    
O31   C99   S    
C9    C14   S    
O6    Zn6   S    
C96   H74   S    
C68   C69   A    
O1    Zn2   S    
C12   O20   A    
C58   C59   A    
C88   O14   A    
C32   C87   S    
C49   H39   S    
C85   O19   A    
C2    C6    S    
C56   O24   A    
C60   C61   A    
C6    H60   S    
C40   H89   S    
C94   H70   S    
C101  H91   S    
C75   C76   A    
C77   H53   S    
O30   C97   S    
C4    C78   S    
C29   C30   A    
C84   O18   A    
C45   O23   A    
C48   H38   S    
C29   H29   S    
C3    C56   S    
C67   O27   S    
O1    Zn3   S    
C31   C32   A    
C97   C98   S    
O16   Zn5   S    
C58   H41   S    
C16   C20   S    
C22   H19   S    
C66   C76   S    
C62   C63   A    
C3    C89   S    
C23   O21   A    
C92   H63   S    
C51   H95   S    
C89   H2    S    
C10   H10   S    
C9    C11   S    
C9    H12   S    
C16   H15   S    
C79   H54   S    
C99   C100  S    
O22   Zn3   S    
C40   C41   A    
C97   H79   S    
C1    O12   A    
C82   C83   A    
C28   O31   S    
O18   Zn6   S    
C55   C57   A    
C90   O15   A    
O25   Zn3   S    
C38   C43   A    
C10   O28   S    
C42   C43   A    
C12   O5    A    
C91   H62   S    
O24   Zn4   S    
C64   H48   S    
C15   O29   S    
C34   O22   A    
C52   C53   A    
C67   H11   S    
C102  H92   S    
C19   H20   S    
C44   C50   A    
C25   C30   A    
C5    H45   S    
C7    H4    S    
C46   C47   A    
C28   C29   A    
C18   H77   S    
O13   Zn8   S    
C18   C22   S    
C3    C67   S    
C58   C63   A    
C23   C75   S    
C80   C81   A    
C25   H27   S    
C82   H58   S    
C84   O7    A    
C100  H86   S    
C19   H21   S    
C56   O26   A    
C7    H5    S    
C19   C20   S    
C23   O2    A    
C17   H17   S    
C90   O13   A    
C89   H35   S    
O15   Zn5   S    
C32   C33   A    
C41   H33   S    
C91   C92   S    
C13   C15   S    
C19   C24   S    
C25   C26   A    
C101  H90   S    
O14   Zn7   S    
C17   H16   S    
C64   C65   A    
C53   C63   S    
C96   H76   S    
C14   H9    S    
O27   C91   S    
C38   C39   A    
C22   H25   S    
O23   Zn2   S    
C27   C37   S    
C8    H7    S    
C48   C49   A    
C4    C5    S    
C33   C35   A    
C2    C3    S    
C18   C20   S    
C65   C66   A    
O9    Zn6   S    
C69   C70   A    
C102  H94   S    
C17   C21   S    
C34   O3    A    
C38   H31   S    
C68   H50   S    
C10   C11   S    
O1    Zn4   S    
C79   C80   A    
C65   H49   S    
C8    C13   S    
C31   C37   A    
C59   C60   A    
C71   C72   A    
C97   H78   S    
C45   C55   S    
C70   H47   S    
C49   C50   A    
C85   O8    A    
C21   C24   S    
C102  H93   S    
C27   C28   A    
C14   H13   S    
C92   H64   S    
C91   H61   S    
C13   C14   S    
C60   H43   S    
C73   C83   S    
O17   Zn8   S    
C5    C89   S    
C88   O11   A    
O6    Zn5   S    
O8    Zn5   S    
