data_mof_unit_35286.cif
_audit_creation_date              2013-03-05T16:03:02-0500
_audit_creation_method            fapswitch 2.2
_symmetry_space_group_name_H-M    P1
_symmetry_Int_Tables_number       1
_space_group_crystal_system       triclinic
_cell_length_a                    6.945896
_cell_length_b                    18.329599
_cell_length_c                    20.128769
_cell_angle_alpha                 68.344498
_cell_angle_beta                  90.7402
_cell_angle_gamma                 90.638475
_cell_volume                      2381.572183

loop_
_atom_site_label
_atom_site_type_symbol
_atom_site_description
_atom_site_fract_x
_atom_site_fract_y
_atom_site_fract_z
_atom_type_partial_charge
O1    O     O_R   0.488990 0.443920 0.942160 -0.558648
O2    O     O_R   0.823840 0.406530 0.087600 -0.599445
O3    O     O_R   0.999650 0.556080 0.057840 -0.605364
C1    C     C_R   0.655438 0.383634 0.115156 0.915290
O4    O     O_R   0.818390 0.434590 0.944530 -0.556732
O5    O     O_R   0.994160 0.584350 0.913750 -0.563731
C2    C     C_R   0.648883 0.419898 0.924610 1.013102
O6    O     O_R   0.494480 0.415650 0.086250 -0.596693
O7    O     O_3   0.662600 0.549100 0.990070 -0.284321
V1    V     V_3+5 0.935320 0.490890 0.001840 1.225456
O8    O     O_R   0.324240 0.593470 0.912400 -0.599439
C3    C     C_R   0.154657 0.614894 0.883779 1.013384
O9    O     O_R   0.329690 0.565410 0.055470 -0.597396
C4    C     C_R   0.162084 0.579464 0.075951 0.957863
V2    V     V_3+5 0.435990 0.509110 0.998160 1.206552
O10   O     O_3   0.158840 0.450900 0.009930 -0.254245
C5    C     C_3   0.012784 0.665664 0.272845 -0.430112
C6    C     C_3   0.349204 0.716295 0.238473 -0.136633
C7    C     C_3   0.338871 0.765875 0.287172 -0.377109
H1    H     H_    0.068761 0.605585 0.302570 0.188954
H2    H     H_    0.398224 0.656365 0.272697 0.098774
H3    H     H_    0.400464 0.731675 0.340765 0.173825
H4    H     H_    0.428958 0.820002 0.265877 0.177575
C8    C     C_1   0.111116 0.874365 0.378857 -0.277729
C9    C     C_3   0.144918 0.708169 0.208053 0.299718
C10   C     C_3   0.997679 0.714035 0.322408 -0.163150
C11   C     C_3   0.127692 0.789351 0.294010 0.304089
C12   C     C_3   0.055267 0.839263 0.217451 -0.394641
C13   C     C_3   0.060530 0.791242 0.167883 -0.345541
C14   C     C_1   0.118135 0.836181 0.340799 -0.101936
C15   C     C_1   0.150799 0.662479 0.160178 -0.100515
C16   C     C_1   0.155911 0.624955 0.121504 -0.272759
H5    H     H_    0.912221 0.785819 0.148735 0.174934
H6    H     H_    0.146372 0.823497 0.119534 0.194792
H7    H     H_    0.905455 0.859218 0.219534 0.173831
H8    H     H_    0.866244 0.657610 0.253526 0.137316
H9    H     H_    0.845539 0.733643 0.319923 0.078745
H10   H     H_    0.146346 0.892901 0.194361 0.176240
H11   H     H_    0.333727 0.540005 0.676971 0.166761
C17   C     C_R   0.031216 0.766669 0.877767 -0.161277
C18   C     C_R   0.969142 0.838987 0.877068 -0.107714
C19   C     C_R   0.954438 0.902746 0.812900 -0.098995
C20   C     C_R   0.002903 0.894766 0.749009 -0.165416
C21   C     C_R   0.066231 0.822001 0.747993 0.113151
C22   C     C_R   0.079314 0.756355 0.813590 0.119702
C23   C     C_R   0.122058 0.814779 0.683321 -0.282269
C24   C     C_R   0.190071 0.741813 0.684056 0.110301
C25   C     C_R   0.185145 0.673714 0.748340 -0.036714
C26   C     C_R   0.139692 0.682262 0.814179 -0.297629
C27   C     C_R   0.258956 0.735056 0.620739 -0.172795
C28   C     C_R   0.319863 0.663506 0.620023 -0.158701
C29   C     C_R   0.300693 0.596067 0.680526 -0.156748
C30   C     C_R   0.225286 0.599377 0.743548 0.312056
H12   H     H_    0.041038 0.719209 0.929255 0.096104
H13   H     H_    0.932606 0.845583 0.926670 0.121855
H14   H     H_    0.906629 0.958890 0.812631 0.120214
H15   H     H_    0.991852 0.946502 0.700669 0.130316
H16   H     H_    0.267125 0.784876 0.570875 0.122170
H17   H     H_    0.373311 0.659724 0.571106 0.160570
H18   H     H_    0.933136 0.454331 0.308745 0.124333
C31   C     C_R   0.491872 0.234450 0.123123 -0.150573
C32   C     C_R   0.409275 0.163638 0.124858 0.034355
C33   C     C_R   0.396206 0.100532 0.189986 -0.244330
C34   C     C_R   0.464912 0.107490 0.252715 -0.144813
C35   C     C_R   0.547451 0.178532 0.252372 0.121243
C36   C     C_R   0.560762 0.243403 0.186238 0.075301
C37   C     C_R   0.619897 0.185036 0.316260 -0.308010
C38   C     C_R   0.705323 0.256638 0.313869 0.107943
C39   C     C_R   0.718358 0.321622 0.247716 0.123563
C40   C     C_R   0.645774 0.315095 0.183891 -0.291944
C41   C     C_R   0.775183 0.265571 0.376859 -0.149961
C42   C     C_R   0.857327 0.336123 0.374638 -0.070361
C43   C     C_R   0.870273 0.399466 0.310127 -0.126829
C44   C     C_R   0.801027 0.392761 0.247347 -0.176647
H19   H     H_    0.503429 0.282082 0.071841 0.136586
H20   H     H_    0.333710 0.045190 0.192357 0.121859
H21   H     H_    0.453586 0.056134 0.301298 0.123593
H22   H     H_    0.765710 0.218574 0.428610 0.121987
H23   H     H_    0.910053 0.341809 0.423362 0.167894
H24   H     H_    0.812047 0.444197 0.198818 0.120247
O11   O     O_R   0.770890 0.084490 0.414040 -0.590976
O12   O     O_R   0.445980 0.065450 0.555510 -0.577939
O13   O     O_R   0.270670 0.915620 0.586180 -0.592032
C45   C     C_R   0.615367 0.079525 0.576161 0.958788
O14   O     O_R   0.441480 0.093500 0.412450 -0.591502
O15   O     O_R   0.266140 0.943870 0.442100 -0.600273
C46   C     C_R   0.610022 0.116550 0.385064 0.933864
O16   O     O_R   0.775410 0.056240 0.558120 -0.583536
O17   O     O_3   0.602660 0.950990 0.510100 -0.278006
V3    V     V_3+5 0.329740 0.009100 0.498130 1.184213
O18   O     O_R   0.936120 0.934420 0.444240 -0.593510
C47   C     C_R   0.103976 0.920359 0.423940 0.970519
O19   O     O_R   0.940610 0.906370 0.587310 -0.592014
C48   C     C_R   0.110090 0.883627 0.614927 0.933678
V4    V     V_3+5 0.829110 0.990690 0.501470 1.176189
O20   O     O_3   0.106080 0.049010 0.489880 -0.260776
C49   C     C_3   0.852997 0.237966 0.715738 0.299686
C50   C     C_3   0.511388 0.283363 0.676192 -0.324005
C51   C     C_3   0.520545 0.332816 0.724446 -0.353477
H25   H     H_    0.922751 0.338287 0.752396 0.237926
H26   H     H_    0.359767 0.265120 0.672268 0.222609
H27   H     H_    0.555738 0.320314 0.621000 0.198788
H28   H     H_    0.586266 0.391180 0.694262 0.195146
H29   H     H_    0.371685 0.343325 0.738583 0.190972
C52   C     C_1   0.640147 0.373750 0.879648 -0.108150
C53   C     C_3   0.641247 0.209631 0.707146 0.155385
C54   C     C_3   0.849245 0.280296 0.771821 -0.556474
C55   C     C_3   0.639996 0.290393 0.793365 0.305120
C56   C     C_3   0.552701 0.207468 0.831361 -0.355914
C57   C     C_3   0.559768 0.159324 0.782110 -0.492387
C58   C     C_1   0.638339 0.335910 0.841221 0.028380
C59   C     C_1   0.632041 0.163152 0.659853 0.085150
C60   C     C_1   0.625303 0.125191 0.621533 -0.201013
H30   H     H_    0.647972 0.105864 0.807937 0.155941
H31   H     H_    0.412237 0.138237 0.776404 0.224999
H32   H     H_    0.633161 0.175901 0.881857 0.174155
H33   H     H_    0.930801 0.246110 0.821383 0.146182
H34   H     H_    0.400695 0.212445 0.845977 0.193421
C61   C     C_2   0.037381 0.664177 0.399993 0.524284
H35   H     H_    0.940374 0.666920 0.440833 0.016434
O21   O     O_2   0.179232 0.622382 0.417872 -0.583261
N1    N     N_R   0.160689 0.526971 0.796338 0.217644
O22   O     O_R   0.267986 0.464952 0.813177 -0.433183
O23   O     O_R   0.977363 0.517513 0.809333 -0.419389
C62   C     C_2   0.337193 0.154417 0.058875 0.480287
H36   H     H_    0.274381 0.098923 0.061506 0.010964
O24   O     O_2   0.346835 0.208356 0.000928 -0.605518
C63   C     C_2   0.498182 0.748122 0.180412 0.462447
H37   H     H_    0.589779 0.707539 0.167771 0.005261
O25   O     O_2   0.512471 0.818341 0.145498 -0.602885
N2    N     N_R   0.924396 0.291845 0.645113 0.244169
O26   O     O_R   0.941183 0.267128 0.592552 -0.387314
O27   O     O_R   0.964031 0.365307 0.632540 -0.413094
C64   C     C_2   0.986365 0.167340 0.744518 0.381888
H38   H     H_    0.986958 0.131075 0.801053 0.002098
O28   O     O_2   0.090149 0.148666 0.704980 -0.564639

loop_
_geom_bond_atom_site_label_1
_geom_bond_atom_site_label_2
_geom_bond_distance
_ccdc_geom_bond_type
C9    C15   1.493026 S    
C51   H28   1.112903 S    
C18   C19   1.389144 A    
C45   C60   1.449410 S    
C6    H2    1.113974 S    
C34   H21   1.081455 S    
O2    C1    1.298469 A    
V4    O20   2.163301 S    
C1    O6    1.295626 A    
C63   H37   1.085023 S    
C1    C40   1.488178 S    
C3    C26   1.490173 S    
C53   C59   1.493950 S    
C31   H19   1.081514 S    
C51   C55   1.551138 S    
C10   C11   1.565629 S    
O19   C48   1.300605 A    
C5    C10   1.565260 S    
C12   C13   1.556096 S    
C42   H23   1.082666 S    
C30   N1    1.431800 S    
O5    C3    1.293966 A    
O11   V4    1.995152 S    
C33   H20   1.083843 S    
V2    O10   2.163291 S    
C13   H5    1.111456 S    
H18   C43   1.082867 S    
C5    H1    1.113161 S    
C55   C56   1.548027 S    
C6    C7    1.566110 S    
C43   C44   1.393194 A    
C18   H13   1.082673 S    
C56   H32   1.112981 S    
C19   H14   1.082954 S    
O8    V2    1.998872 S    
C31   C36   1.416424 A    
C15   C16   1.215220 T    
C12   H7    1.113230 S    
C38   C39   1.424857 A    
C35   C37   1.419957 A    
C54   C55   1.554431 S    
C2    C52   1.449388 S    
O1    V2    1.961772 S    
C5    H8    1.112578 S    
C12   H10   1.113249 S    
C7    C11   1.555210 S    
O7    V1    2.151684 S    
C57   H30   1.111286 S    
C6    C63   1.513791 S    
O14   C46   1.298697 A    
C51   H29   1.113406 S    
C52   C58   1.214510 T    
O16   V4    1.978676 S    
O19   V4    1.998790 S    
C44   H24   1.081455 S    
O9    C4    1.299647 A    
C11   C14   1.492584 S    
C17   C22   1.417361 A    
C6    C9    1.565464 S    
C49   C64   1.526099 S    
C8    C47   1.450315 S    
C59   C60   1.214792 T    
C21   C23   1.415571 A    
C56   H34   1.113384 S    
C24   C27   1.414985 A    
C8    C14   1.215114 T    
C61   O21   1.221215 D    
C9    C13   1.554007 S    
C25   C30   1.431706 A    
C37   C38   1.419025 A    
C27   H16   1.080914 S    
C7    H3    1.111151 S    
C10   C61   1.513674 S    
C49   N2    1.487731 S    
O15   V3    1.966535 S    
O17   V3    2.151727 S    
O18   C47   1.299793 A    
O4    C2    1.296118 A    
C64   O28   1.221293 D    
C50   H27   1.112053 S    
O13   C48   1.293994 A    
C13   H6    1.111151 S    
C28   C29   1.385060 A    
O17   V4    1.709377 S    
C7    H4    1.113031 S    
C20   C21   1.416428 A    
C32   C33   1.395120 A    
C24   C25   1.428876 A    
C23   C48   1.487241 S    
C22   C26   1.421651 A    
O14   V3    2.002171 S    
C27   C28   1.387668 A    
C39   C44   1.416446 A    
O12   V3    1.972432 S    
O11   C46   1.295705 A    
O3    C4    1.297490 A    
C49   C53   1.582907 S    
C17   C18   1.393570 A    
C35   C36   1.423719 A    
O6    V2    1.999696 S    
C17   H12   1.081486 S    
O9    V2    1.964290 S    
C62   H36   1.085706 S    
C28   H17   1.082846 S    
C19   C20   1.392740 A    
N1    O23   1.300057 A    
N2    O26   1.302413 A    
O2    V1    2.002075 S    
C29   C30   1.400683 A    
C53   C57   1.559167 S    
O13   V3    2.001807 S    
C23   C24   1.418248 A    
C25   C26   1.430289 A    
H25   C54   1.108933 S    
O1    C2    1.299204 A    
C37   C46   1.488631 S    
C21   C22   1.423464 A    
C45   O16   1.298152 A    
C4    C16   1.450505 S    
C42   C43   1.389340 A    
N2    O27   1.301920 A    
C63   O25   1.221346 D    
O5    V1    2.001746 S    
C32   C62   1.479814 S    
C61   H35   1.085313 S    
C10   H9    1.114541 S    
V3    O20   1.704449 S    
C64   H38   1.085601 S    
C50   H26   1.112050 S    
O12   C45   1.297444 A    
C50   C53   1.555455 S    
C55   C58   1.489207 S    
C5    C9    1.554109 S    
C34   C35   1.414630 A    
O7    V2    1.712930 S    
C41   C42   1.393352 A    
O3    V1    1.966531 S    
V1    O10   1.704389 S    
C56   C57   1.553001 S    
C36   C40   1.419637 A    
C38   C41   1.416133 A    
H11   C29   1.083353 S    
C31   C32   1.401979 A    
C39   C40   1.419261 A    
C20   H15   1.081945 S    
O18   V4    1.964542 S    
C33   C34   1.392924 A    
C49   C54   1.588922 S    
O4    V1    1.972573 S    
C50   C51   1.554365 S    
C11   C12   1.553869 S    
C62   O24   1.221429 D    
O15   C47   1.297252 A    
N1    O22   1.300214 A    
C57   H31   1.110663 S    
C54   H33   1.113883 S    
C41   H22   1.081543 S    
O8    C3    1.303595 A    
