data_mof_unit_17893.cif
_audit_creation_date              2012-12-10T21:12:22-0500
_audit_creation_method            fapswitch 2.2
_symmetry_space_group_name_H-M    P1
_symmetry_Int_Tables_number       1
_space_group_crystal_system       triclinic
_cell_length_a                    13.059594
_cell_length_b                    16.869802
_cell_length_c                    17.395196
_cell_angle_alpha                 89.486547
_cell_angle_beta                  92.475279
_cell_angle_gamma                 69.231288
_cell_volume                      3578.80084088

loop_
_atom_site_label
_atom_site_type_symbol
_atom_type_description
_atom_site_fract_x
_atom_site_fract_y
_atom_site_fract_z
_atom_type_partial_charge
C1    C     C_R   0.505114 0.498269 0.647254 0.934303
C2    C     C_R   0.989760 0.447756 0.475270 -0.030646
C3    C     C_R   0.877444 0.467777 0.457063 -0.060583
C4    C     C_R   0.031895 0.514229 0.465406 -0.131550
C5    C     C_R   0.972305 0.586475 0.416722 -0.246968
C6    C     C_R   0.867596 0.594624 0.384441 0.576882
C7    C     C_R   0.820749 0.536563 0.407449 -0.145222
C8    C     C_R   0.124635 0.515784 0.509019 0.505867
C9    C     C_R   0.110463 0.648568 0.448629 0.334714
C10   C     C_R   0.823392 0.418057 0.488662 -0.140421
C11   C     C_R   0.655926 0.433726 0.171620 0.395152
C12   C     C_R   0.704841 0.452415 0.496836 0.902361
C13   C     C_R   0.631451 0.436305 0.250160 0.310106
C14   C     C_R   0.528923 0.493060 0.272542 -0.385159
C15   C     C_R   0.453303 0.547402 0.218659 0.326841
C16   C     C_R   0.471444 0.536480 0.140408 0.360844
C17   C     C_R   0.574308 0.483969 0.117774 -0.242455
C18   C     C_1   0.591432 0.484050 0.037916 0.125249
C19   C     C_1   0.590758 0.486308 0.969566 0.100817
C20   C     C_R   0.599315 0.412467 0.849912 0.362497
C21   C     C_R   0.582174 0.414371 0.769327 0.399923
C22   C     C_R   0.525569 0.492947 0.730813 -0.266297
C23   C     C_R   0.504613 0.499094 0.353435 1.043729
C24   C     C_R   0.498093 0.568508 0.771252 -0.421073
C25   C     C_R   0.522629 0.566920 0.850104 0.461893
C26   C     C_R   0.575859 0.488874 0.888367 -0.163352
C27   C     C_R   0.551193 0.155306 0.564676 0.409250
C28   C     C_R   0.546323 0.240410 0.561994 -0.264480
C29   C     C_R   0.454940 0.263094 0.438736 0.534340
C30   C     C_R   0.454539 0.178735 0.439893 0.323029
C31   C     C_R   0.503172 0.123783 0.503830 -0.184914
C32   C     C_1   0.507288 0.035043 0.505716 0.096580
C33   C     C_1   0.507272 0.962295 0.506335 0.046998
C34   C     C_R   0.293860 0.547049 0.500323 0.941597
C35   C     C_R   0.598396 0.805304 0.519326 -0.403296
C36   C     C_R   0.594496 0.722599 0.521954 0.519271
C37   C     C_R   0.406438 0.776255 0.482861 0.439734
C38   C     C_R   0.404155 0.861066 0.495407 0.314206
C39   C     C_R   0.503363 0.875765 0.506459 -0.101618
C40   C     C_R   0.015937 0.651554 0.406023 0.403068
C41   C     C_R   0.173337 0.574702 0.490131 -0.422336
C42   C     C_R   0.883771 0.335848 0.515064 -0.382632
C43   C     C_R   0.997775 0.305477 0.515220 0.396986
C44   C     C_R   0.053083 0.362790 0.501641 0.487917
H1    H     H_    0.458028 0.629166 0.741642 0.192440
H2    H     H_    0.582332 0.263944 0.609343 0.233370
H3    H     H_    0.675902 0.814106 0.530669 0.199098
H4    H     H_    0.842559 0.294729 0.535229 0.191258
H5    H     H_    0.738433 0.545663 0.386054 0.175603
N1    N     N_R   0.499970 0.292770 0.499970 -0.182160
N2    N     N_R   0.499980 0.707230 0.499990 -0.185040
O1    O     O_R   0.500000 0.433430 0.610870 -0.568591
O2    O     O_R   0.500010 0.566520 0.610900 -0.642979
O3    O     O_R   0.653610 0.400420 0.499960 -0.632373
O4    O     O_R   0.653620 0.533500 0.499990 -0.565867
O5    O     O_R   0.499990 0.433480 0.389100 -0.582933
O6    O     O_R   0.500000 0.566570 0.389130 -0.608344
O7    O     O_R   0.346380 0.466500 0.500010 -0.583959
O8    O     O_R   0.346390 0.599580 0.500040 -0.538067
Zn1   Zn    Zn3+2 0.500000 0.411140 0.499980 0.973309
Zn2   Zn    Zn3+2 0.500000 0.588860 0.500020 0.998096
O9    O     O_3   0.134091 0.721610 0.454245 -0.580565
C45   C     C_3   0.101761 0.758493 0.526456 0.163693
H6    H     H_    0.140424 0.806395 0.535481 0.184118
H7    H     H_    0.132773 0.711733 0.575437 0.103591
C46   C     C_3   0.976815 0.803705 0.528121 -0.359115
H8    H     H_    0.947254 0.848733 0.478073 0.255175
H9    H     H_    0.935472 0.756469 0.524556 0.229878
C47   C     C_3   0.944546 0.852057 0.602239 -1.028101
H10   H     H_    0.977322 0.808879 0.653197 0.270391
H11   H     H_    0.853798 0.878862 0.603665 0.272124
H12   H     H_    0.976235 0.904953 0.605111 0.269877
O10   O     O_3   0.712026 0.397265 0.307496 -0.633726
C48   C     C_3   0.752182 0.307554 0.303499 0.094568
H13   H     H_    0.824872 0.282952 0.344286 0.156877
H14   H     H_    0.781976 0.284557 0.246581 0.175065
C49   C     C_3   0.667860 0.269400 0.327639 -0.336728
H15   H     H_    0.646862 0.286996 0.387704 0.268081
H16   H     H_    0.593112 0.294465 0.288839 0.256537
C50   C     C_3   0.712134 0.172982 0.323880 -0.974742
H17   H     H_    0.739415 0.152670 0.265300 0.264479
H18   H     H_    0.646804 0.148131 0.337810 0.302134
H19   H     H_    0.781648 0.145925 0.366562 0.266980
O11   O     O_3   0.361968 0.612131 0.242195 -0.604586
C51   C     C_3   0.381705 0.689076 0.235632 -0.263577
H20   H     H_    0.302751 0.742614 0.236750 0.158129
H21   H     H_    0.417579 0.697044 0.180450 0.180126
H22   H     H_    0.436201 0.694507 0.284547 0.174334
O12   O     O_3   0.394576 0.586801 0.085914 -0.638649
C52   C     C_3   0.305522 0.557909 0.076739 0.111738
H23   H     H_    0.233777 0.612184 0.053436 0.161415
H24   H     H_    0.281316 0.537450 0.132106 0.158662
C53   C     C_3   0.330123 0.486507 0.018701 -0.410805
H25   H     H_    0.353623 0.508074 0.963845 0.223518
H26   H     H_    0.399466 0.430268 0.041802 0.216004
C54   C     C_3   0.230708 0.460684 0.002542 -0.958088
H27   H     H_    0.206449 0.437855 0.056460 0.268987
H28   H     H_    0.251398 0.408714 0.960651 0.264324
H29   H     H_    0.160644 0.515328 0.977714 0.264978
O13   O     O_3   0.642089 0.336532 0.891504 -0.625888
C55   C     C_3   0.559092 0.301869 0.897938 -0.321085
H30   H     H_    0.536235 0.281407 0.841194 0.207762
H31   H     H_    0.485298 0.347239 0.923902 0.151590
H32   H     H_    0.590871 0.244878 0.936598 0.188504
O14   O     O_3   0.619689 0.340833 0.727331 -0.641423
C56   C     C_3   0.735788 0.302072 0.734345 0.110352
H33   H     H_    0.758926 0.245991 0.697043 0.145401
H34   H     H_    0.765273 0.276756 0.793424 0.197676
C57   C     C_3   0.795636 0.360491 0.707678 -0.426877
H35   H     H_    0.764921 0.384730 0.648589 0.222739
H36   H     H_    0.779034 0.415516 0.745953 0.221869
C58   C     C_3   0.919427 0.313652 0.709216 -0.923678
H37   H     H_    0.951692 0.293654 0.769156 0.262773
H38   H     H_    0.959791 0.356354 0.686599 0.266852
H39   H     H_    0.939820 0.256697 0.673083 0.281379
O15   O     O_3   0.497900 0.641684 0.889848 -0.624280
C59   C     C_3   0.382862 0.681571 0.894332 0.095568
H40   H     H_    0.363503 0.683074 0.955955 0.200550
H41   H     H_    0.333085 0.648442 0.863765 0.112874
C60   C     C_3   0.347607 0.772713 0.862818 -0.341791
H42   H     H_    0.393383 0.806968 0.895482 0.235995
H43   H     H_    0.367465 0.772334 0.801302 0.215495
C61   C     C_3   0.224838 0.819594 0.869621 -0.975270
H44   H     H_    0.177344 0.788827 0.834226 0.263140
H45   H     H_    0.202567 0.886233 0.848780 0.271496
H46   H     H_    0.202741 0.819874 0.930606 0.267229
O16   O     O_3   0.600946 0.103758 0.627899 -0.582169
C62   C     C_3   0.715179 0.072235 0.619138 -0.309476
H47   H     H_    0.748975 0.124206 0.618734 0.144736
H48   H     H_    0.736447 0.034853 0.565906 0.168385
H49   H     H_    0.755375 0.029167 0.668849 0.194567
O17   O     O_3   0.427608 0.310118 0.370527 -0.596832
C63   C     C_3   0.313190 0.350429 0.360608 -0.200151
H50   H     H_    0.275977 0.382944 0.412878 0.212081
H51   H     H_    0.273737 0.305307 0.341337 0.178223
H52   H     H_    0.295808 0.399960 0.314501 0.152729
O18   O     O_3   0.804040 0.667225 0.342361 -0.571313
C64   C     C_3   0.754519 0.646903 0.275135 -0.367352
H53   H     H_    0.674917 0.640885 0.287803 0.178254
H54   H     H_    0.808952 0.588595 0.247668 0.164387
H55   H     H_    0.736461 0.699961 0.232507 0.190337
O19   O     O_3   0.420453 0.148194 0.373657 -0.566680
C65   C     C_3   0.318325 0.139427 0.384229 -0.331679
H56   H     H_    0.261012 0.193098 0.415356 0.167146
H57   H     H_    0.329123 0.078619 0.414331 0.194045
H58   H     H_    0.278699 0.138193 0.326788 0.188788
O20   O     O_3   0.690374 0.656940 0.542601 -0.599364
C66   C     C_3   0.709887 0.655606 0.623142 0.086216
H59   H     H_    0.638725 0.651206 0.653773 0.149189
H60   H     H_    0.725816 0.713532 0.641207 0.128568
C67   C     C_3   0.811062 0.578064 0.645785 -0.307684
H61   H     H_    0.795421 0.519683 0.630022 0.221481
H62   H     H_    0.881604 0.580234 0.613502 0.224861
C68   C     C_3   0.839926 0.574367 0.731956 -0.988664
H63   H     H_    0.859204 0.631078 0.748769 0.266939
H64   H     H_    0.912942 0.516796 0.746310 0.268483
H65   H     H_    0.770485 0.571410 0.765138 0.275888
O21   O     O_3   0.313906 0.761618 0.456522 -0.557733
C69   C     C_3   0.267768 0.810303 0.388727 -0.152228
H66   H     H_    0.328483 0.825116 0.353599 0.096337
H67   H     H_    0.200675 0.869349 0.402911 0.188735
H68   H     H_    0.229952 0.773852 0.352555 0.191029
O22   O     O_3   0.305027 0.928551 0.492885 -0.666866
C70   C     C_3   0.283592 0.964300 0.566776 0.080438
H69   H     H_    0.242195 0.033874 0.558523 0.172206
H70   H     H_    0.358234 0.954918 0.604699 0.136695
C71   C     C_3   0.207847 0.928919 0.608396 -0.364865
H71   H     H_    0.132302 0.940041 0.571761 0.230654
H72   H     H_    0.249926 0.859598 0.618933 0.212490
C72   C     C_3   0.176102 0.971379 0.685244 -0.974491
H73   H     H_    0.250200 0.959116 0.724049 0.270357
H74   H     H_    0.119538 0.945199 0.713036 0.266999
H75   H     H_    0.133821 0.040895 0.676349 0.271991
O23   O     O_3   0.961218 0.723839 0.361262 -0.582847
C73   C     C_3   0.978776 0.706462 0.282335 0.173241
H76   H     H_    0.903862 0.747305 0.248983 0.182052
H77   H     H_    0.990651 0.639566 0.267597 0.111323
C74   C     C_3   0.075669 0.728640 0.256282 -0.384061
H78   H     H_    0.065105 0.794435 0.272873 0.228348
H79   H     H_    0.152337 0.684021 0.284856 0.258450
C75   C     C_3   0.083903 0.721973 0.169158 -0.958398
H80   H     H_    0.092529 0.656973 0.151328 0.256487
H81   H     H_    0.156274 0.736032 0.151223 0.281477
H82   H     H_    0.009411 0.768239 0.139434 0.258836
O24   O     O_3   0.164600 0.462359 0.572971 -0.563863
C76   C     C_3   0.153232 0.510222 0.640365 -0.347923
H83   H     H_    0.070855 0.560860 0.642138 0.152131
H84   H     H_    0.218342 0.538203 0.646323 0.154451
H85   H     H_    0.163118 0.467064 0.690855 0.188703
O25   O     O_3   0.166643 0.333257 0.498245 -0.643193
C77   C     C_3   0.220583 0.284913 0.564847 -0.145008
H86   H     H_    0.244581 0.216145 0.554031 0.156988
H87   H     H_    0.171841 0.301755 0.617262 0.167642
H88   H     H_    0.297632 0.297078 0.577253 0.186157
O26   O     O_3   0.055138 0.220906 0.533571 -0.671429
C78   C     C_3   0.045898 0.169528 0.471572 0.090409
H89   H     H_    0.129871 0.126224 0.460164 0.161389
H90   H     H_    0.011672 0.205081 0.416187 0.111638
C79   C     C_3   0.977425 0.116355 0.493798 -0.356839
H91   H     H_    0.002412 0.089652 0.553157 0.236497
H92   H     H_    0.889333 0.156929 0.492595 0.202415
C80   C     C_3   0.992192 0.043735 0.438648 -0.986134
H93   H     H_    0.971321 0.068357 0.378407 0.263800
H94   H     H_    0.938208 0.008496 0.454071 0.268375
H95   H     H_    0.078436 0.999477 0.442552 0.285424
O27   O     O_3   0.762841 0.391937 0.150685 -0.588607
C81   C     C_3   0.768388 0.325439 0.100012 -0.315776
H96   H     H_    0.771572 0.346108 0.039747 0.214917
H97   H     H_    0.700287 0.300532 0.104983 0.141970
H98   H     H_    0.846182 0.271774 0.113574 0.175203

loop_
_geom_bond_atom_site_label_1
_geom_bond_atom_site_label_2
_ccdc_geom_bond_type
C37   O21   S    
C65   H58   S    
C46   H9    S    
C45   H7    S    
C53   H25   S    
C10   C42   A    
C59   H40   S    
C11   C13   A    
O10   C48   S    
C2    C4    A    
O22   C70   S    
N2    Zn2   S    
C66   C67   S    
C4    C8    A    
C35   H3    S    
C62   H47   S    
C58   H38   S    
C74   H78   S    
C52   H23   S    
C61   H44   S    
C73   H77   S    
O3    Zn1   S    
C49   H15   S    
C8    C41   A    
C28   H2    S    
C33   C39   S    
C80   H94   S    
C24   H1    S    
C70   H69   S    
C37   C38   A    
C66   H60   S    
C3    C7    A    
C59   H41   S    
C51   H20   S    
C5    C6    A    
C37   N2    A    
C61   H45   S    
C46   C47   S    
C72   H73   S    
O7    Zn1   S    
C65   H56   S    
C54   H29   S    
O15   C59   S    
C43   O26   S    
C18   C19   T    
C67   C68   S    
C47   H11   S    
C19   C26   S    
C1    O2    A    
O23   C73   S    
O1    Zn1   S    
O20   C66   S    
C44   O25   S    
C27   O16   S    
C31   C32   S    
C2    C44   A    
C16   C17   A    
C80   H95   S    
C54   H28   S    
C81   H98   S    
C67   H61   S    
C69   H67   S    
C11   O27   S    
C71   C72   S    
C68   H64   S    
C60   C61   S    
C56   H34   S    
C75   H81   S    
C46   H8    S    
C45   C46   S    
C16   O12   S    
C55   H31   S    
C21   C22   A    
C59   C60   S    
C63   H51   S    
C34   C41   S    
C28   N1    A    
C50   H19   S    
C58   H37   S    
C60   H43   S    
C73   C74   S    
C29   N1    A    
C51   H21   S    
C38   C39   A    
O8    Zn2   S    
C80   H93   S    
C27   C31   A    
C9    O9    S    
C12   O4    A    
C55   H30   S    
C23   O5    A    
C49   H16   S    
C24   C25   A    
C7    H5    S    
C68   H65   S    
C71   H72   S    
C48   H13   S    
C57   C58   S    
C71   H71   S    
O27   C81   S    
C50   H17   S    
C61   H46   S    
O26   C78   S    
C25   C26   A    
C75   H80   S    
C48   C49   S    
C9    C40   A    
C81   H96   S    
C35   C36   A    
C14   C23   S    
C47   H12   S    
C35   C39   A    
C43   C44   A    
C77   H87   S    
O25   C77   S    
C29   C30   A    
C79   C80   S    
C36   O20   S    
C52   H24   S    
C69   H66   S    
C20   O13   S    
C30   C31   A    
C54   H27   S    
O9    C45   S    
C17   C18   S    
C69   H68   S    
C42   H4    S    
O11   C51   S    
C68   H63   S    
C15   O11   S    
C36   N2    A    
C10   C12   S    
C63   H52   S    
C23   O6    A    
C78   H90   S    
C38   O22   S    
C13   O10   S    
C53   C54   S    
O21   C69   S    
C22   C24   A    
C25   O15   S    
C42   C43   A    
C48   H14   S    
O2    Zn2   S    
O16   C62   S    
C62   H49   S    
C60   H42   S    
C52   C53   S    
C79   H92   S    
O18   C64   S    
C51   H22   S    
C77   H86   S    
C65   H57   S    
C11   C17   A    
C75   H82   S    
C78   C79   S    
C14   C15   A    
C34   O8    A    
C70   C71   S    
C81   H97   S    
C78   H89   S    
C64   H55   S    
C62   H48   S    
C74   H79   S    
O6    Zn2   S    
C6    C7    A    
C64   H54   S    
C8    O24   S    
C55   H32   S    
O14   C56   S    
C9    C41   A    
C1    C22   S    
C30   O19   S    
N1    Zn1   S    
C32   C33   T    
C76   H85   S    
C57   H36   S    
C2    C3    A    
O12   C52   S    
C77   H88   S    
C73   H76   S    
C57   H35   S    
C40   O23   S    
C49   C50   S    
O24   C76   S    
C63   H50   S    
C20   C26   A    
C6    O18   S    
C3    C10   A    
C4    C5    A    
O4    Zn2   S    
C70   H70   S    
O13   C55   S    
C50   H18   S    
O17   C63   S    
C66   H59   S    
C67   H62   S    
C47   H10   S    
C1    O1    A    
C12   O3    A    
C74   C75   S    
C64   H53   S    
C45   H6    S    
C29   O17   S    
O5    Zn1   S    
C79   H91   S    
C20   C21   A    
C53   H26   S    
C56   H33   S    
C5    C40   A    
C27   C28   A    
C34   O7    A    
O19   C65   S    
C72   H74   S    
C76   H83   S    
C13   C14   A    
C76   H84   S    
C56   C57   S    
C58   H39   S    
C21   O14   S    
C15   C16   A    
C72   H75   S    
