data_mof_unit_6814.cif
_audit_creation_date              2012-12-10T20:55:50-0500
_audit_creation_method            fapswitch 2.2
_symmetry_space_group_name_H-M    P1
_symmetry_Int_Tables_number       1
_space_group_crystal_system       triclinic
_cell_length_a                    15.847569
_cell_length_b                    15.053314
_cell_length_c                    10.383539
_cell_angle_alpha                 90.280134
_cell_angle_beta                  90.07554
_cell_angle_gamma                 89.968895
_cell_volume                      2477.04866915

loop_
_atom_site_label
_atom_site_type_symbol
_atom_type_description
_atom_site_fract_x
_atom_site_fract_y
_atom_site_fract_z
_atom_type_partial_charge
C1    C     C_1   0.250470 0.500091 0.499204 -0.185644
C2    C     C_R   0.423781 0.047600 0.476454 0.160417
C3    C     C_R   0.956339 0.571825 0.554399 -0.186980
C4    C     C_R   0.043664 0.428277 0.445008 -0.186983
C5    C     C_R   0.043838 0.571985 0.553623 -0.184191
C6    C     C_R   0.956164 0.428117 0.445784 -0.184131
C7    C     C_R   0.338831 0.500024 0.499963 0.903551
C8    C     C_R   0.661167 0.499976 0.500057 0.904866
C9    C     C_R   0.484937 0.499771 0.259541 0.908207
C10   C     C_R   0.514142 0.500187 0.740966 0.906705
C11   C     C_R   0.913145 0.499883 0.500499 0.173587
C12   C     C_1   0.749531 0.499917 0.500615 -0.185667
C13   C     C_R   0.086858 0.500209 0.498939 0.173672
C14   C     C_1   0.499805 0.806972 0.498476 0.097298
C15   C     C_1   0.500015 0.193016 0.499307 0.091952
C16   C     C_1   0.824363 0.499878 0.500789 -0.074683
C17   C     C_1   0.175639 0.500160 0.498836 -0.074763
C18   C     C_R   0.435475 0.661137 0.101581 0.184617
C19   C     C_R   0.561932 0.338250 0.899733 0.184826
C20   C     C_R   0.557823 0.663473 0.903800 0.186070
C21   C     C_R   0.440531 0.336297 0.098831 0.186782
C22   C     C_R   0.464345 0.743667 0.052972 0.182817
C23   C     C_R   0.532554 0.500500 0.879191 -0.177696
C24   C     C_R   0.533595 0.255818 0.949613 0.180976
C25   C     C_R   0.527838 0.744848 0.956594 0.180608
C26   C     C_R   0.471119 0.254816 0.047546 0.182421
C27   C     C_R   0.522125 0.581941 0.945730 -0.018242
C28   C     C_R   0.475443 0.417785 0.055335 -0.018437
C29   C     C_R   0.472737 0.580937 0.056484 -0.018424
C30   C     C_R   0.524616 0.418625 0.944308 -0.017998
C31   C     C_3   0.439489 0.166130 0.097699 -0.894369
C32   C     C_3   0.561359 0.833708 0.910210 -0.893111
C33   C     C_3   0.567701 0.168180 0.898012 -0.891640
C34   C     C_R   0.465268 0.499230 0.121744 -0.177935
C35   C     C_3   0.430091 0.831198 0.104779 -0.895035
C36   C     C_3   0.341516 0.096982 0.453084 -0.900035
C37   C     C_3   0.656787 0.898772 0.530782 -0.889411
C38   C     C_3   0.658315 0.096542 0.542521 -0.910376
C39   C     C_3   0.340889 0.903704 0.454382 -0.900023
C40   C     C_3   0.359796 0.658015 0.190984 -0.842098
C41   C     C_3   0.637838 0.341085 0.810732 -0.840360
C42   C     C_3   0.633823 0.663039 0.814865 -0.842797
C43   C     C_3   0.364787 0.336783 0.188287 -0.842802
C44   C     C_R   0.499524 0.905009 0.496574 -0.038817
C45   C     C_R   0.500016 0.095046 0.498246 -0.029942
C46   C     C_R   0.423465 0.952779 0.476427 0.163782
C47   C     C_R   0.576269 0.047150 0.518119 0.170384
C48   C     C_R   0.576015 0.952175 0.515334 0.158949
H1    H     H_    0.077828 0.627573 0.595390 0.141789
H2    H     H_    0.591530 0.869882 0.991453 0.240781
H3    H     H_    0.612462 0.175047 0.817153 0.245582
H4    H     H_    0.601006 0.132069 0.975929 0.239893
H5    H     H_    0.515042 0.126638 0.861095 0.246615
H6    H     H_    0.383213 0.824101 0.182703 0.245151
H7    H     H_    0.482324 0.871594 0.145607 0.246525
H8    H     H_    0.399097 0.868634 0.025977 0.239768
H9    H     H_    0.315605 0.078564 0.357285 0.240069
H10   H     H_    0.295086 0.079632 0.528794 0.245885
H11   H     H_    0.347767 0.170224 0.454192 0.236395
H12   H     H_    0.922173 0.372520 0.404045 0.141899
H13   H     H_    0.714422 0.939044 0.544377 0.247245
H14   H     H_    0.651404 0.854580 0.615488 0.229558
H15   H     H_    0.666816 0.857151 0.443525 0.240296
H16   H     H_    0.703822 0.081529 0.464173 0.245346
H17   H     H_    0.651585 0.169699 0.546667 0.237510
H18   H     H_    0.685211 0.076021 0.636591 0.241832
H19   H     H_    0.295244 0.921449 0.531282 0.244946
H20   H     H_    0.314082 0.921966 0.359354 0.240969
H21   H     H_    0.347093 0.830440 0.454715 0.236026
H22   H     H_    0.305978 0.693945 0.146639 0.228449
H23   H     H_    0.922485 0.627331 0.596631 0.141063
H24   H     H_    0.337296 0.589414 0.208741 0.213005
H25   H     H_    0.375547 0.689060 0.285152 0.257328
H26   H     H_    0.691397 0.304847 0.855285 0.228596
H27   H     H_    0.622229 0.310184 0.716417 0.257029
H28   H     H_    0.660682 0.409601 0.793290 0.213112
H29   H     H_    0.686927 0.699155 0.861270 0.226663
H30   H     H_    0.657615 0.595180 0.794111 0.214564
H31   H     H_    0.617816 0.695246 0.722054 0.255587
H32   H     H_    0.312123 0.299082 0.143381 0.227556
H33   H     H_    0.381448 0.306205 0.281981 0.256754
H34   H     H_    0.077519 0.372762 0.402803 0.141003
H35   H     H_    0.340152 0.404583 0.207109 0.213790
H36   H     H_    0.394582 0.171548 0.178701 0.245576
H37   H     H_    0.407184 0.129136 0.019190 0.239515
H38   H     H_    0.493295 0.126127 0.133893 0.246461
H39   H     H_    0.608851 0.828659 0.832882 0.239280
H40   H     H_    0.508873 0.874306 0.871025 0.245580
N1    N     N_1   0.500000 0.270550 0.500000 -0.104797
N2    N     N_1   0.500000 0.729450 0.500000 -0.101910
O1    O     O_R   0.378020 0.573650 0.500040 -0.615626
O2    O     O_R   0.621980 0.426350 0.499960 -0.614653
O3    O     O_R   0.621980 0.573650 0.499960 -0.611822
O4    O     O_R   0.378020 0.426350 0.500040 -0.614129
O5    O     O_R   0.499990 0.573670 0.316780 -0.597490
O6    O     O_R   0.500010 0.426330 0.683220 -0.596976
O7    O     O_R   0.500010 0.573670 0.683220 -0.597669
O8    O     O_R   0.499990 0.426330 0.316780 -0.597871
Zn1   Zn    Zn3+2 0.500000 0.598370 0.500000 0.954383
Zn2   Zn    Zn3+2 0.500000 0.401630 0.500000 0.953673

loop_
_geom_bond_atom_site_label_1
_geom_bond_atom_site_label_2
_ccdc_geom_bond_type
C21   C26   A    
C9    O8    A    
C31   H37   S    
C27   C29   A    
C43   H35   S    
C39   H20   S    
O4    Zn2   S    
C36   H11   S    
C37   H14   S    
C2    C46   A    
C33   H4    S    
C22   C35   S    
C38   H18   S    
C40   H22   S    
C24   C26   A    
C36   H10   S    
O5    Zn1   S    
C41   H27   S    
C20   C25   A    
C32   H40   S    
C40   H25   S    
C4    C13   A    
C18   C40   S    
C14   N2    T    
O7    Zn1   S    
C41   H26   S    
C21   C43   S    
C12   C16   T    
C22   C25   A    
C8    O2    A    
C23   C27   A    
C9    O5    A    
C5    C13   A    
C25   C32   S    
C28   C34   A    
C26   C31   S    
C31   H38   S    
C1    C7    S    
C35   H6    S    
C5    H1    S    
C37   H15   S    
C44   C46   A    
C38   H16   S    
C45   C47   A    
C2    C45   A    
C33   H5    S    
N1    Zn2   S    
C35   H7    S    
C23   C30   A    
C6    H12   S    
C4    C6    A    
C36   H9    S    
C6    C11   A    
C43   H32   S    
C32   H39   S    
C29   C34   A    
C31   H36   S    
C10   O7    A    
C3    H23   S    
C15   N1    T    
C11   C16   S    
C37   H13   S    
C47   C48   A    
C38   H17   S    
C10   O6    A    
C8    C12   S    
C7    O1    A    
C39   H21   S    
C18   C29   A    
C37   C48   S    
C32   H2    S    
C38   C47   S    
C39   C46   S    
C21   C28   A    
C42   H30   S    
O8    Zn2   S    
C9    C34   S    
C43   H33   S    
C15   C45   S    
N2    Zn1   S    
O2    Zn2   S    
C14   C44   S    
C2    C36   S    
C7    O4    A    
O3    Zn1   S    
C40   H24   S    
C35   H8    S    
C18   C22   A    
C39   H19   S    
C8    O3    A    
C3    C5    A    
C20   C42   S    
C20   C27   A    
C10   C23   S    
C33   H3    S    
C1    C17   T    
C24   C33   S    
C13   C17   S    
C28   C30   A    
C19   C24   A    
C41   H28   S    
O6    Zn2   S    
C3    C11   A    
C19   C41   S    
C42   H31   S    
C4    H34   S    
C42   H29   S    
O1    Zn1   S    
C19   C30   A    
C44   C48   A    
