data_mof_unit_41597.cif
_audit_creation_date              2012-12-11T14:23:17-0500
_audit_creation_method            fapswitch 2.2
_symmetry_space_group_name_H-M    P1
_symmetry_Int_Tables_number       1
_space_group_crystal_system       triclinic
_cell_length_a                    11.056031
_cell_length_b                    11.064822
_cell_length_c                    18.758548
_cell_angle_alpha                 89.529016
_cell_angle_beta                  89.075104
_cell_angle_gamma                 60.048388
_cell_volume                      1988.0554211

loop_
_atom_site_label
_atom_site_type_symbol
_atom_type_description
_atom_site_fract_x
_atom_site_fract_y
_atom_site_fract_z
_atom_type_partial_charge
Br1   Br    Br    0.272740 0.356179 0.934829 -0.528944
Br2   Br    Br    0.255281 0.176125 0.661602 -0.537245
Br3   Br    Br    0.985440 0.318429 0.359039 -0.486871
Br4   Br    Br    0.880570 0.798286 0.771795 -0.505551
C1    C     C_R   0.246213 0.641185 0.612813 0.527920
C2    C     C_R   0.542818 0.247368 0.725080 -0.130089
C3    C     C_R   0.561453 0.235351 0.797387 -0.141778
C4    C     C_R   0.654027 0.622158 0.600270 0.537713
C5    C     C_R   0.943833 0.097367 0.804499 -0.116832
C6    C     C_R   0.054821 0.057934 0.756129 -0.024531
C7    C     C_R   0.038223 0.041339 0.683817 0.270893
C8    C     C_R   0.907520 0.074625 0.659234 -0.066995
C9    C     C_R   0.656298 0.190820 0.678161 0.025885
C10   C     C_R   0.209713 0.643617 0.842480 0.036169
C11   C     C_R   0.205290 0.535174 0.804211 0.001725
C12   C     C_3   0.674808 0.558101 0.800621 -0.326412
C13   C     C_R   0.194269 0.547057 0.728320 -0.034046
C14   C     C_R   0.257429 0.726674 0.732549 -0.079026
C15   C     C_R   0.253462 0.726494 0.806533 0.189858
C16   C     C_R   0.625460 0.231697 0.603610 0.519309
C17   C     C_R   0.212116 0.415074 0.837878 0.120224
C18   C     C_R   0.209444 0.312601 0.795967 -0.105549
C19   C     C_R   0.190853 0.331260 0.722919 0.095360
C20   C     C_R   0.166903 0.454041 0.691264 -0.095267
C21   C     C_R   0.219482 0.645534 0.691627 -0.016212
C22   C     C_R   0.650413 0.670591 0.167654 0.013877
C23   C     C_3   0.703404 0.680043 0.810123 0.095128
C24   C     C_R   0.701905 0.535517 0.194814 0.000267
C25   C     C_R   0.736842 0.511288 0.267891 0.021673
C26   C     C_R   0.603251 0.764590 0.287225 -0.136353
C27   C     C_R   0.606638 0.782163 0.214636 -0.133795
C28   C     C_R   0.219234 0.654200 0.402317 0.514932
C29   C     C_R   0.739417 0.423137 0.148018 -0.091272
C30   C     C_R   0.833870 0.288777 0.168746 -0.146331
C31   C     C_R   0.890260 0.264305 0.236017 -0.095352
C32   C     C_R   0.846239 0.371938 0.285830 0.200492
C33   C     C_R   0.667358 0.630780 0.315136 0.039105
C34   C     C_3   0.672326 0.648903 0.674915 -0.008863
C35   C     C_R   0.679593 0.062593 0.186282 -0.050545
C36   C     C_R   0.542842 0.137293 0.215745 0.013987
C37   C     C_R   0.525866 0.213775 0.277070 -0.009649
C38   C     C_R   0.777410 0.073351 0.299069 0.211332
C39   C     C_R   0.795360 0.025713 0.229260 -0.095793
C40   C     C_R   0.642746 0.615570 0.390393 0.562683
C41   C     C_R   0.421399 0.144312 0.185532 -0.081742
C42   C     C_R   0.289246 0.233271 0.212267 -0.120867
C43   C     C_R   0.274277 0.321315 0.266916 -0.090369
C44   C     C_R   0.390095 0.322389 0.293301 -0.077106
C45   C     C_3   0.822350 0.618739 0.687469 -0.223815
C46   C     C_R   0.642540 0.176254 0.321769 0.005764
C47   C     C_R   0.138562 0.671860 0.185994 0.001997
C48   C     C_R   0.214923 0.730290 0.213586 -0.048237
C49   C     C_R   0.194862 0.768360 0.285153 0.015035
C50   C     C_R   0.070989 0.641603 0.306842 0.185744
C51   C     C_R   0.062134 0.631913 0.232302 0.235876
C52   C     C_R   0.614311 0.234040 0.393602 0.514466
C53   C     C_R   0.288510 0.775264 0.168759 -0.072140
C54   C     C_R   0.304724 0.886218 0.189282 -0.116676
C55   C     C_R   0.264668 0.941184 0.257496 -0.143564
C56   C     C_3   0.646566 0.546564 0.721864 -0.254169
C57   C     C_R   0.211627 0.882439 0.305401 -0.018441
C58   C     C_R   0.152049 0.695399 0.332669 -0.012294
C59   C     C_R   0.704039 0.103024 0.896426 0.607414
C60   C     C_R   0.727729 0.691457 0.886713 0.582044
C61   C     C_R   0.124525 0.701295 0.908213 0.596428
C62   C     C_R   0.701594 0.037137 0.110063 0.556200
C63   C     C_R   0.693906 0.689203 0.096443 0.527661
C64   C     C_3   0.575394 0.815415 0.779062 0.128908
C65   C     C_R   0.090865 0.709049 0.113110 0.558496
C66   C     C_3   0.570007 0.801529 0.697670 -0.193512
C67   C     C_R   0.693668 0.168116 0.826177 0.026694
C68   C     C_3   0.837619 0.647750 0.766106 0.051146
C69   C     C_R   0.810492 0.131642 0.780046 0.028369
C70   C     C_R   0.791524 0.131706 0.705328 0.011241
Cr1   Cr    Cr6+3 0.392940 0.397950 0.502230 1.067024
Cr2   Cr    Cr6+3 0.398400 0.708500 0.501260 1.045295
Cr3   Cr    Cr6+3 0.708640 0.393530 0.496460 1.074830
Cr4   Cr    Cr6+3 0.937880 0.938320 0.007620 1.016495
Cr5   Cr    Cr6+3 0.625560 0.937220 0.994510 1.064499
Cr6   Cr    Cr6+3 0.938080 0.625010 0.001190 1.104470
H1    H     H_    0.715785 0.436751 0.704389 0.157066
H2    H     H_    0.479717 0.824779 0.803340 0.173382
H3    H     H_    0.233625 0.213366 0.819336 0.155004
H4    H     H_    0.139255 0.467285 0.635843 0.180732
H5    H     H_    0.557015 0.855230 0.321775 0.134931
H6    H     H_    0.704798 0.440624 0.093262 0.126219
H7    H     H_    0.578007 0.883010 0.194844 0.119336
H8    H     H_    0.874133 0.205314 0.130417 0.161495
H9    H     H_    0.975261 0.160945 0.247972 0.174713
H10   H     H_    0.461260 0.835944 0.682505 0.162274
H11   H     H_    0.424169 0.077095 0.143858 0.144282
H12   H     H_    0.928589 0.553310 0.788141 0.146915
H13   H     H_    0.900095 0.959968 0.208463 0.156726
H14   H     H_    0.198793 0.233452 0.190762 0.140798
H15   H     H_    0.173223 0.385386 0.289789 0.211542
H16   H     H_    0.374027 0.404630 0.328130 0.158882
H17   H     H_    0.318901 0.735873 0.114875 0.124127
H18   H     H_    0.599470 0.872314 0.669514 0.191251
H19   H     H_    0.346057 0.930136 0.151316 0.106986
H20   H     H_    0.275933 0.027933 0.274222 0.137141
H21   H     H_    0.175190 0.934527 0.356203 0.194604
H22   H     H_    0.847946 0.682462 0.650705 0.152088
H23   H     H_    0.897400 0.507315 0.675390 0.144045
H24   H     H_    0.766273 0.458346 0.818272 0.134821
H25   H     H_    0.583331 0.574826 0.833804 0.121885
H26   H     H_    0.537597 0.568958 0.715880 0.121204
H27   H     H_    0.484539 0.017036 0.785479 0.340574
H28   H     H_    0.117770 0.005110 0.587893 0.346954
H29   H     H_    0.321030 0.773644 0.890291 0.327518
H30   H     H_    0.864587 0.036626 0.392155 0.340630
H31   H     H_    0.998601 0.633329 0.401317 0.343932
H32   H     H_    0.943351 0.549669 0.241409 0.372261
H33   H     H_    0.438534 0.302945 0.705487 0.174817
H34   H     H_    0.962250 0.108566 0.859734 0.156389
H35   H     H_    0.472427 0.270038 0.831431 0.174795
H36   H     H_    0.154799 0.038551 0.775027 0.190603
H37   H     H_    0.897200 0.057262 0.603526 0.112919
H38   H     H_    0.295124 0.788888 0.707154 0.192547
O1    O     O_R   0.507340 0.255690 0.581430 -0.479679
O2    O     O_R   0.837290 0.593240 0.915240 -0.529409
O3    O     O_R   0.065320 0.635310 0.931580 -0.452726
O4    O     O_R   0.280360 0.527380 0.578910 -0.512077
O5    O     O_R   0.068470 0.828620 0.091850 -0.558295
O6    O     O_R   0.799150 0.057200 0.079350 -0.524915
O7    O     O_R   0.585220 0.080180 0.076770 -0.508756
O8    O     O_R   0.627170 0.809480 0.067050 -0.551716
O9    O     O_R   0.816200 0.596410 0.076500 -0.470150
O10   O     O_R   0.045770 0.638240 0.081070 -0.423372
O11   O     O_3   0.833840 0.833520 0.001110 -0.287510
O12   O     O_R   0.524510 0.695820 0.424050 -0.508787
O13   O     O_R   0.260600 0.739610 0.584580 -0.491273
O14   O     O_R   0.532370 0.695050 0.573830 -0.497867
O15   O     O_R   0.744850 0.503430 0.576380 -0.505050
O16   O     O_R   0.699080 0.276500 0.571950 -0.521116
O17   O     O_R   0.498860 0.256520 0.419860 -0.512204
O18   O     O_R   0.272490 0.528150 0.429140 -0.501618
O19   O     O_R   0.252110 0.740440 0.423010 -0.531770
O20   O     O_3   0.579119 0.937260 0.794941 -0.622245
O21   O     O_3   0.150622 0.993836 0.637714 -0.655723
O22   O     O_3   0.286530 0.813842 0.842437 -0.753898
O23   O     O_R   0.736370 0.504260 0.414810 -0.449456
O24   O     O_3   0.893779 0.020751 0.341433 -0.717155
O25   O     O_3   0.997501 0.601536 0.352231 -0.691660
O26   O     O_3   0.979239 0.585057 0.203161 -0.669709
O27   O     O_R   0.691220 0.277270 0.422180 -0.486795
O28   O     O_3   0.499990 0.499990 0.499980 -0.282110
O29   O     O_R   0.089570 0.825450 0.930590 -0.493548
O30   O     O_R   0.818700 0.054260 0.929860 -0.510890
O31   O     O_R   0.606310 0.077010 0.915520 -0.438554
O32   O     O_R   0.646730 0.806540 0.917560 -0.454753

loop_
_geom_bond_atom_site_label_1
_geom_bond_atom_site_label_2
_ccdc_geom_bond_type
C34   C66   S    
Br1   C17   S    
C8    C70   A    
Cr1   O4    S    
C69   C70   A    
C37   C46   A    
C64   O20   S    
C31   C32   A    
Cr6   O2    S    
C56   H26   S    
C34   C45   S    
Cr2   O19   S    
C45   H23   S    
C25   C32   A    
C4    C34   S    
H29   O22   S    
C5    H34   S    
C24   C25   A    
Cr4   O11   S    
C30   C31   A    
C3    C67   A    
C26   C27   A    
C68   H12   S    
Cr2   O13   S    
Cr1   O17   S    
C65   O5    A    
C40   O12   A    
Cr5   O11   S    
C14   C15   A    
C12   C56   S    
C3    H35   S    
C52   O27   A    
H30   O24   S    
C7    O21   S    
C59   O31   A    
C23   C64   S    
C42   C43   A    
C49   C57   A    
C12   H24   S    
C65   O10   A    
C40   O23   A    
C45   C68   S    
C4    O14   A    
C19   C20   A    
Cr6   O11   S    
C61   O3    A    
C61   O29   A    
Cr4   O6    S    
C5    C6    A    
C14   H38   S    
Cr2   O12   S    
Cr4   O30   S    
Cr5   O31   S    
C12   C23   S    
C50   O25   S    
Cr5   O7    S    
Cr2   O28   S    
C22   C27   A    
C17   C18   A    
C55   H20   S    
C66   H10   S    
C14   C21   A    
Cr3   O15   S    
Cr6   O3    S    
Cr1   O28   S    
C36   C41   A    
C55   C57   A    
C13   C20   A    
C27   H7    S    
C47   C48   A    
Cr1   O1    S    
C23   C60   S    
C63   O8    A    
C45   H22   S    
C67   C69   A    
Cr1   O18   S    
C15   O22   S    
C35   C39   A    
C50   C58   A    
C54   C55   A    
C41   C42   A    
C1    O4    A    
C46   C52   S    
C26   C33   A    
C60   O32   A    
C57   H21   S    
C29   H6    S    
C2    H33   S    
C38   O24   S    
C63   O9    A    
C56   H1    S    
C43   C44   A    
C42   H14   S    
C11   C17   A    
C53   H17   S    
C29   C30   A    
C30   H8    S    
C26   H5    S    
Cr4   O5    S    
C12   H25   S    
C38   C46   A    
Cr5   O32   S    
C34   C56   S    
Cr4   O29   S    
C36   C37   A    
Cr5   O8    S    
C59   C67   S    
C24   C29   A    
C6    C7    A    
C35   C62   S    
C62   O6    A    
Cr3   O16   S    
C22   C63   S    
C31   H9    S    
C59   O30   A    
Br4   C68   S    
C52   O17   A    
C6    H36   S    
C48   C49   A    
C28   O18   A    
C11   C13   A    
C10   C61   S    
C50   C51   A    
C51   O26   S    
C44   H16   S    
C9    C16   S    
C4    O15   A    
C18   C19   A    
C10   C15   A    
C5    C69   A    
C54   H19   S    
C1    C21   S    
H28   O21   S    
C7    C8    A    
C2    C3    A    
Cr6   O9    S    
H31   O25   S    
Cr6   O10   S    
C22   C24   A    
C60   O2    A    
C62   O7    A    
C64   H2    S    
C18   H3    S    
H32   O26   S    
H27   O20   S    
C20   H4    S    
C13   C21   A    
C28   O19   A    
C2    C9    A    
Cr2   O14   S    
C53   C54   A    
Cr3   O27   S    
Br3   C32   S    
C33   C40   S    
C39   H13   S    
C37   C44   A    
C47   C51   A    
C41   H11   S    
Cr3   O23   S    
C48   C53   A    
C28   C58   S    
C8    H37   S    
C35   C36   A    
C1    O13   A    
C9    C70   A    
C49   C58   A    
C64   C66   S    
C38   C39   A    
C25   C33   A    
Br2   C19   S    
C43   H15   S    
C10   C11   A    
C47   C65   S    
C16   O16   A    
Cr3   O28   S    
C16   O1    A    
C23   C68   S    
C66   H18   S    
