data_mof_unit_21135.cif
_audit_creation_date              2012-12-10T16:51:10-0500
_audit_creation_method            fapswitch 2.2
_symmetry_space_group_name_H-M    P1
_symmetry_Int_Tables_number       1
_space_group_crystal_system       triclinic
_cell_length_a                    27.758129
_cell_length_b                    8.661443
_cell_length_c                    7.43101
_cell_angle_alpha                 103.23362
_cell_angle_beta                  93.944877
_cell_angle_gamma                 92.449294
_cell_volume                      1731.89049283

loop_
_atom_site_label
_atom_site_type_symbol
_atom_type_description
_atom_site_fract_x
_atom_site_fract_y
_atom_site_fract_z
_atom_type_partial_charge
C1    C     C_R   0.498441 0.199510 0.452969 0.879197
C2    C     C_R   0.501522 0.800489 0.547036 0.881818
C3    C     C_R   0.100044 0.511678 0.436965 -0.097506
C4    C     C_R   0.895100 0.513627 0.389806 -0.094109
C5    C     C_R   0.122353 0.365804 0.398357 -0.003804
C6    C     C_R   0.872656 0.656829 0.453313 -0.005364
C7    C     C_R   0.094031 0.223798 0.339835 -0.087578
C8    C     C_R   0.900563 0.799964 0.506780 -0.083141
C9    C     C_R   0.129168 0.654972 0.496118 -0.097857
C10   C     C_R   0.866189 0.369871 0.326172 -0.106349
C11   C     C_R   0.354283 0.500838 0.507595 -0.119794
C12   C     C_R   0.645224 0.503107 0.486981 -0.115196
C13   C     C_R   0.968938 0.369815 0.334969 -0.006302
C14   C     C_R   0.026262 0.659713 0.466223 -0.002866
C15   C     C_R   0.974827 0.660483 0.454919 0.069525
C16   C     C_R   0.020196 0.367996 0.355011 0.071476
C17   C     C_R   0.946461 0.514683 0.392462 0.075987
C18   C     C_R   0.048662 0.513343 0.418500 0.076832
C19   C     C_R   0.939245 0.230724 0.257824 -0.249916
C20   C     C_R   0.056227 0.800267 0.532032 -0.255656
C21   C     C_R   0.889055 0.228845 0.253167 0.306730
C22   C     C_R   0.106414 0.799296 0.549047 0.310079
C23   C     C_R   0.407434 0.501362 0.503340 0.818274
C24   C     C_R   0.592451 0.498960 0.496896 0.818302
C25   C     C_R   0.044096 0.224372 0.319603 -0.211343
C26   C     C_R   0.950458 0.802395 0.505588 -0.206634
C27   C     C_2   0.497700 0.031386 0.426577 -0.374866
C28   C     C_2   0.502269 0.968612 0.573447 -0.383505
C29   C     C_R   0.172776 0.364314 0.422695 0.546152
C30   C     C_R   0.822591 0.653897 0.465578 0.547431
C31   C     C_R   0.179982 0.647317 0.500639 0.614764
C32   C     C_R   0.815674 0.373943 0.340205 0.606580
C33   C     C_R   0.279805 0.574808 0.655770 0.282086
C34   C     C_R   0.726694 0.435638 0.575777 0.270589
C35   C     C_R   0.330860 0.577413 0.665402 0.142841
C36   C     C_R   0.676556 0.430130 0.597405 0.146115
C37   C     C_R   0.326139 0.423523 0.345297 -0.257192
C38   C     C_R   0.664410 0.578623 0.357423 -0.264640
C39   C     C_R   0.276090 0.422419 0.336724 -0.167757
C40   C     C_R   0.713668 0.583391 0.336606 -0.150458
C41   C     C_R   0.252534 0.499506 0.489066 0.268502
C42   C     C_R   0.744905 0.511488 0.443412 0.273884
Cu1   Cu    Cu3+1 0.505380 0.517380 0.684380 0.939470
Cu2   Cu    Cu3+1 0.494620 0.482620 0.315620 0.944742
H1    H     H_    0.342916 0.362787 0.223473 0.175503
H2    H     H_    0.641100 0.635175 0.271981 0.165661
H3    H     H_    0.462042 0.378182 0.948423 0.221427
H4    H     H_    0.537949 0.621854 0.051577 0.222755
H5    H     H_    0.255291 0.361198 0.210231 0.177244
H6    H     H_    0.727673 0.642827 0.236259 0.170068
H7    H     H_    0.110370 0.110276 0.309945 0.209507
H8    H     H_    0.883925 0.911827 0.551693 0.208011
H9    H     H_    0.953963 0.119841 0.196009 0.169498
H10   H     H_    0.041955 0.914907 0.576792 0.165842
H11   H     H_    0.025369 0.108766 0.281111 0.142373
H12   H     H_    0.968567 0.918679 0.547701 0.143059
H13   H     H_    0.493405 0.959044 0.285361 0.179518
H14   H     H_    0.506574 0.040955 0.714656 0.180690
N1    N     N_R   0.200586 0.503737 0.471957 -0.467021
N2    N     N_R   0.795544 0.513346 0.414694 -0.463176
N3    N     N_2   0.486510 0.456430 0.038510 -0.220055
N4    N     N_2   0.513490 0.543570 0.961490 -0.217638
O1    O     O_R   0.503500 0.286120 0.619780 -0.581650
O2    O     O_R   0.496500 0.713880 0.380220 -0.581027
O3    O     O_R   0.494410 0.256780 0.308360 -0.584746
O4    O     O_R   0.505590 0.743220 0.691640 -0.587004
O5    O     O_R   0.434810 0.514700 0.655690 -0.592383
O6    O     O_R   0.565190 0.485300 0.344310 -0.586729
O7    O     O_R   0.425720 0.485350 0.344280 -0.582777
O8    O     O_R   0.574280 0.514650 0.655720 -0.585490
O9    O     O_2   0.193922 0.224299 0.398009 -0.486322
O10   O     O_2   0.801148 0.789986 0.532487 -0.501567
O11   O     O_2   0.786565 0.240714 0.282933 -0.466029
O12   O     O_2   0.208838 0.781054 0.528041 -0.461255
N5    N     N_2   0.658720 0.349657 0.728521 -0.437742
H15   H     H_    0.638290 0.416008 0.824916 0.280023
C43   C     C_3   0.638473 0.189711 0.650276 -0.632288
H16   H     H_    0.605364 0.191187 0.558135 0.215536
H17   H     H_    0.628791 0.133118 0.763751 0.231613
H18   H     H_    0.665318 0.117408 0.569820 0.241067
N6    N     N_2   0.357351 0.656758 0.834593 -0.438657
H19   H     H_    0.380965 0.588989 0.891372 0.279675
C44   C     C_3   0.376153 0.816240 0.839866 -0.635772
H20   H     H_    0.403715 0.814339 0.738117 0.224587
H21   H     H_    0.393238 0.871429 0.980776 0.224553
H22   H     H_    0.346390 0.890062 0.808093 0.235537
N7    N     N_2   0.759063 0.363280 0.684531 -0.401453
H23   H     H_    0.745021 0.260822 0.714585 0.303247
C45   C     C_3   0.783216 0.471537 0.846136 -0.600333
H24   H     H_    0.809160 0.406768 0.917577 0.237151
H25   H     H_    0.756328 0.521903 0.943779 0.219634
H26   H     H_    0.803695 0.569533 0.805858 0.246495
N8    N     N_2   0.255513 0.645460 0.814322 -0.391960
H27   H     H_    0.273746 0.743503 0.901359 0.296205
C46   C     C_3   0.237308 0.532938 0.913483 -0.630550
H28   H     H_    0.219560 0.596601 0.036262 0.238651
H29   H     H_    0.267705 0.468651 0.960301 0.216565
H30   H     H_    0.210211 0.446029 0.823317 0.253451
Br1   Br    Br    0.855949 0.025450 0.141325 -0.450443
Br2   Br    Br    0.139840 0.000473 0.667987 -0.440621

loop_
_geom_bond_atom_site_label_1
_geom_bond_atom_site_label_2
_ccdc_geom_bond_type
N7    H23   S    
N8    H27   S    
C8    C26   A    
C14   C18   A    
C46   H28   S    
C34   C42   A    
Cu1   Cu2   S    
N6    H19   S    
C35   N6    S    
C46   H30   S    
Cu1   O1    S    
C39   C41   A    
C43   H16   S    
Cu2   O2    S    
C19   C21   A    
C21   Br1   S    
C9    C22   A    
C23   O5    A    
C3    C18   A    
C31   N1    A    
C11   C37   A    
C23   O7    A    
C29   N1    A    
C30   N2    A    
C1    O3    A    
C12   C36   A    
C8    H8    S    
C19   H9    S    
C40   C42   A    
N8    C46   S    
Cu2   O3    S    
C1    O1    A    
N6    C44   S    
C2    O2    A    
C5    C29   A    
C43   H17   S    
C10   C21   A    
C22   Br2   S    
C13   C19   A    
C24   O8    A    
C14   C20   A    
C41   N1    S    
C20   H10   S    
C27   H13   S    
C42   N2    S    
C32   O11   S    
C5    C7    A    
C9    C31   A    
C15   C26   A    
C6    C8    A    
C3    C5    A    
C6    C30   A    
C33   N8    S    
N5    H15   S    
C3    C9    A    
C36   N5    S    
H4    N4    S    
C44   H20   S    
Cu2   O7    S    
C16   C18   A    
C45   H26   S    
N5    C43   S    
C4    C17   A    
C4    C6    A    
C39   H5    S    
C20   C22   A    
Cu1   O8    S    
N7    C45   S    
Cu2   O6    S    
C45   H25   S    
C32   N2    A    
C37   H1    S    
C43   H18   S    
C16   C25   A    
C15   C17   A    
C44   H21   S    
C25   H11   S    
C2    O4    A    
C26   H12   S    
H3    N3    S    
C30   O10   S    
C46   H29   S    
C28   H14   S    
Cu2   N3    S    
C12   C24   S    
C7    C25   A    
C13   C17   A    
C33   C41   A    
C11   C35   A    
C7    H7    S    
C37   C39   A    
C38   C40   A    
Cu1   O4    S    
C40   H6    S    
C11   C23   S    
C33   C35   A    
C34   C36   A    
C34   N7    S    
C12   C38   A    
N3    N4    D    
C31   O12   S    
C38   H2    S    
C24   O6    A    
C10   C32   A    
C44   H22   S    
Cu1   O5    S    
C13   C16   A    
C27   C28   D    
C1    C27   S    
C14   C15   A    
C2    C28   S    
C45   H24   S    
C4    C10   A    
Cu1   N4    S    
C29   O9    S    
