data_mof_unit_46328.cif
_audit_creation_date              2013-03-05T15:40:31-0500
_audit_creation_method            fapswitch 2.2
_symmetry_space_group_name_H-M    P1
_symmetry_Int_Tables_number       1
_space_group_crystal_system       triclinic
_cell_length_a                    12.154773
_cell_length_b                    12.294763
_cell_length_c                    23.026758
_cell_angle_alpha                 90.521652
_cell_angle_beta                  90.167549
_cell_angle_gamma                 90.339595
_cell_volume                      3440.90162052

loop_
_atom_site_label
_atom_site_type_symbol
_atom_site_description
_atom_site_fract_x
_atom_site_fract_y
_atom_site_fract_z
_atom_type_partial_charge
O1    O     O_R   0.621380 0.090460 0.561410 -0.622860
O2    O     O_R   0.378620 0.909540 0.438590 -0.622861
O3    O     O_R   0.617150 0.909540 0.438590 -0.627230
O4    O     O_R   0.382850 0.090460 0.561410 -0.627233
O5    O     O_R   0.619720 0.093230 0.440890 -0.601031
O6    O     O_R   0.380280 0.906770 0.559110 -0.601022
O7    O     O_R   0.618800 0.906770 0.559110 -0.577940
O8    O     O_R   0.381200 0.093230 0.440890 -0.577949
C1    C     C_R   0.653819 0.997753 0.580462 0.905295
C2    C     C_R   0.346179 0.002247 0.419539 0.905276
C3    C     C_R   0.653873 0.001758 0.420373 0.905172
C4    C     C_R   0.346126 0.998241 0.579626 0.905181
Zn1   Zn    Zn3+2 0.501730 0.123520 0.501540 1.091238
Zn2   Zn    Zn3+2 0.498270 0.876480 0.498460 1.091237
C5    C     C_R   0.179387 0.087767 0.291029 -0.074651
C6    C     C_R   0.820584 0.912262 0.708990 -0.074597
C7    C     C_R   0.265073 0.085693 0.331196 0.332913
C8    C     C_R   0.734902 0.914331 0.668819 0.332930
C9    C     C_R   0.832716 0.915708 0.297655 -0.203767
C10   C     C_R   0.167306 0.084276 0.702355 -0.203738
C11   C     C_R   0.751453 0.913940 0.339431 -0.137866
C12   C     C_R   0.248568 0.086045 0.660578 -0.137866
H1    H     H_    0.700898 0.841604 0.343794 0.187554
H2    H     H_    0.299143 0.158370 0.656226 0.187552
C13   C     C_R   0.085431 0.109701 0.166602 -0.231994
C14   C     C_R   0.914608 0.890357 0.833429 -0.231946
C15   C     C_R   0.085044 0.189042 0.124289 0.290097
C16   C     C_R   0.915014 0.811051 0.875765 0.290053
C17   C     C_R   0.906580 0.891001 0.171848 -0.187899
C18   C     C_R   0.093418 0.108989 0.828158 -0.187862
C19   C     C_R   0.901464 0.810047 0.129704 -0.110366
C20   C     C_R   0.098532 0.189940 0.870305 -0.110500
H3    H     H_    0.829517 0.803545 0.101993 0.209054
H4    H     H_    0.170469 0.196428 0.898024 0.209025
C21   C     C_R   0.090617 0.831784 0.199828 0.316571
C22   C     C_R   0.909399 0.168237 0.800163 0.316541
C23   C     C_R   0.082847 0.750884 0.157875 -0.184097
C24   C     C_R   0.917170 0.249136 0.842116 -0.183978
H5    H     H_    0.152343 0.696991 0.152035 0.203914
H6    H     H_    0.847680 0.303039 0.847951 0.203895
C25   C     C_R   0.907460 0.168230 0.200319 -0.143678
C26   C     C_R   0.092495 0.831708 0.799651 -0.143619
C27   C     C_R   0.909800 0.255236 0.162392 0.292319
C28   C     C_R   0.090140 0.744703 0.837579 0.292224
C29   C     C_R   0.102143 0.923598 0.332747 -0.086797
C30   C     C_R   0.897864 0.076393 0.667247 -0.086786
C31   C     C_R   0.184392 0.922987 0.373825 -0.153297
C32   C     C_R   0.815617 0.077001 0.626169 -0.153282
H7    H     H_    0.183821 0.859828 0.406362 0.178786
H8    H     H_    0.816200 0.140145 0.593624 0.178769
C33   C     C_R   0.886962 0.098067 0.329793 0.323491
C34   C     C_R   0.113011 0.901948 0.670190 0.323445
C35   C     C_R   0.803737 0.095297 0.370581 -0.183369
C36   C     C_R   0.196238 0.904717 0.629403 -0.183383
H9    H     H_    0.794661 0.163903 0.400069 0.194492
H10   H     H_    0.205295 0.836124 0.599904 0.194480
C37   C     C_3   0.000143 0.004651 0.249022 -0.038690
C38   C     C_3   0.999857 0.995350 0.750978 -0.038675
C39   C     C_R   0.098064 0.005531 0.290377 0.073280
C40   C     C_R   0.901930 0.994475 0.709627 0.073304
C41   C     C_R   0.265242 0.003752 0.373676 -0.142045
C42   C     C_R   0.734753 0.996251 0.626327 -0.142007
C43   C     C_R   0.901070 0.008217 0.290620 -0.048786
C44   C     C_R   0.098928 0.991780 0.709378 -0.048776
C45   C     C_R   0.736987 0.003627 0.375803 -0.083587
C46   C     C_R   0.263011 0.996372 0.624195 -0.083564
C47   C     C_R   0.999169 0.100082 0.206693 0.003526
C48   C     C_R   0.000825 0.899915 0.793307 0.003405
C49   C     C_R   0.998754 0.265411 0.123454 -0.284068
C50   C     C_R   0.001241 0.734603 0.876557 -0.284089
C51   C     C_R   0.999786 0.903826 0.208573 -0.039028
C52   C     C_R   0.000222 0.096180 0.791425 -0.039078
C53   C     C_R   0.990647 0.741272 0.122092 -0.089573
C54   C     C_R   0.009358 0.258729 0.877908 -0.089533
H11   H     H_    0.177358 0.154839 0.261283 0.185520
H12   H     H_    0.822591 0.845216 0.738754 0.185469
H13   H     H_    0.844403 0.841145 0.273465 0.185554
H14   H     H_    0.155640 0.158832 0.726554 0.185570
H15   H     H_    0.152092 0.052199 0.166965 0.223780
H16   H     H_    0.847995 0.947914 0.833083 0.223870
H17   H     H_    0.837419 0.945786 0.175486 0.185495
H18   H     H_    0.162569 0.054191 0.824526 0.185504
H19   H     H_    0.834135 0.157462 0.225989 0.191741
H20   H     H_    0.165798 0.842426 0.773959 0.191777
H21   H     H_    0.041153 0.859111 0.333685 0.159243
H22   H     H_    0.958868 0.140867 0.666301 0.159243
O9    O     O_R   0.087590 0.627480 0.058790 -0.634955
O10   O     O_R   0.912410 0.372520 0.941210 -0.634938
O11   O     O_R   0.905660 0.383870 0.059980 -0.585101
O12   O     O_R   0.094340 0.616130 0.940020 -0.585128
O13   O     O_R   0.092570 0.390420 0.063230 -0.584302
O14   O     O_R   0.907430 0.609580 0.936770 -0.584351
O15   O     O_R   0.900680 0.620930 0.055550 -0.578509
O16   O     O_R   0.099320 0.379070 0.944450 -0.578554
C55   C     C_R   0.992246 0.660473 0.076027 0.917157
C56   C     C_R   0.007755 0.339524 0.923974 0.916972
C57   C     C_R   0.999042 0.351565 0.080615 0.943331
C58   C     C_R   0.000956 0.648440 0.919389 0.943668
Zn3   Zn    Zn3+2 0.125690 0.504390 0.002180 1.135740
Zn4   Zn    Zn3+2 0.874310 0.495610 0.997820 1.135690
N1    N     N_R   0.352209 0.164901 0.327137 0.222980
O17   O     O_R   0.330591 0.263766 0.311135 -0.310127
O18   O     O_R   0.454406 0.134439 0.330252 -0.353791
N2    N     N_R   0.647751 0.835141 0.672887 0.222960
O19   O     O_R   0.669345 0.736285 0.688912 -0.310182
O20   O     O_R   0.545560 0.865617 0.669753 -0.353845
N3    N     N_R   0.194479 0.840908 0.229069 0.186414
O21   O     O_R   0.267929 0.908681 0.209674 -0.368217
O22   O     O_R   0.227235 0.760400 0.260960 -0.350995
N4    N     N_R   0.805538 0.159118 0.770921 0.186403
O23   O     O_R   0.732080 0.091358 0.790321 -0.368173
O24   O     O_R   0.772790 0.239622 0.739025 -0.351001
N5    N     N_R   0.960861 0.189302 0.332207 0.186948
O25   O     O_R   0.032343 0.193613 0.374338 -0.381283
O26   O     O_R   0.930387 0.280452 0.309086 -0.339033
N6    N     N_R   0.039086 0.810733 0.667761 0.186955
O27   O     O_R   0.967596 0.806472 0.625633 -0.381308
O28   O     O_R   0.069539 0.719557 0.690861 -0.339026
N7    N     N_R   0.169530 0.186707 0.080796 0.234409
O29   O     O_R   0.142634 0.183339 0.026063 -0.392587
O30   O     O_R   0.270919 0.167302 0.095599 -0.309166
N8    N     N_R   0.830661 0.813536 0.919335 0.234426
O31   O     O_R   0.857733 0.816502 0.974045 -0.392782
O32   O     O_R   0.729374 0.833668 0.904665 -0.309379
N9    N     N_R   0.823253 0.334285 0.165620 0.240869
O33   O     O_R   0.722021 0.302933 0.173633 -0.315411
O34   O     O_R   0.847507 0.437166 0.170910 -0.350449
N10   N     N_R   0.176621 0.665587 0.834318 0.240858
O35   O     O_R   0.277861 0.696857 0.826249 -0.315450
O36   O     O_R   0.152282 0.562719 0.829062 -0.350557

loop_
_geom_bond_atom_site_label_1
_geom_bond_atom_site_label_2
_geom_bond_distance
_ccdc_geom_bond_type
C5    H11   1.077128 S    
C3    C45   1.442437 S    
O10   C56   1.292461 A    
C10   C44   1.415307 A    
N1    O17   1.301410 A    
N3    O22   1.301438 A    
C35   H9    1.084352 S    
C13   C47   1.404184 A    
O3    C3    1.290139 A    
N10   O35   1.301398 A    
C27   N9    1.438042 S    
N2    O20   1.301503 A    
C30   H22   1.082628 S    
O14   C58   1.296327 A    
C31   H7    1.083936 S    
C33   N5    1.433449 S    
C9    C11   1.381005 A    
O5    C3    1.287362 A    
C34   N6    1.433453 S    
O6    C4    1.287355 A    
C16   N8    1.436843 S    
C19   C53   1.389258 A    
C38   C40   1.522032 S    
C25   H19   1.079055 S    
N6    O27   1.300950 A    
C5    C7    1.391382 A    
C6    C40   1.409728 A    
C29   C31   1.374362 A    
O4    Zn1   2.041711 S    
C9    H13   1.078685 S    
C7    N1    1.438350 S    
N4    O23   1.300429 A    
C12   C46   1.390895 A    
C7    C41   1.410582 A    
O7    Zn2   2.051212 S    
C29   C39   1.409719 A    
O1    C1    1.288609 A    
C9    C43   1.415301 A    
O9    C55   1.292454 A    
N3    O21   1.300423 A    
C19   H3    1.083184 S    
C28   C50   1.412330 A    
O4    C4    1.290137 A    
C35   C45   1.391104 A    
O5    Zn1   2.038245 S    
C15   C49   1.412068 A    
C11   C45   1.390903 A    
C32   H8    1.083936 S    
C21   C51   1.433050 A    
N1    O18   1.301503 A    
C24   H6    1.084591 S    
C13   H15   1.078538 S    
C26   C48   1.406570 A    
C25   C27   1.387309 A    
C26   C28   1.387304 A    
C37   C47   1.532228 S    
N2    O19   1.301408 A    
O13   C57   1.296344 A    
C34   C36   1.382866 A    
C37   C43   1.541476 S    
C30   C32   1.374358 A    
N7    O30   1.301671 A    
C38   C44   1.541491 S    
C23   H5    1.084590 S    
C36   H10   1.084351 S    
O11   Zn4   2.029814 S    
C1    C42   1.441517 S    
C21   N3    1.432354 S    
C54   C56   1.446899 S    
C26   H20   1.079042 S    
C25   C47   1.406584 A    
C34   C44   1.431238 A    
C8    C42   1.410592 A    
C4    C46   1.442422 S    
C14   H16   1.078534 S    
O11   C57   1.295171 A    
C33   C35   1.382867 A    
C20   H4    1.083184 S    
C18   H18   1.083277 S    
C29   H21   1.082628 S    
C17   H17   1.083274 S    
O6    Zn2   2.038245 S    
C32   C42   1.392932 A    
C38   C48   1.532265 S    
C33   C43   1.431228 A    
C8    N2    1.438350 S    
C37   C51   1.543725 S    
O16   C56   1.297574 A    
O15   Zn4   2.048959 S    
O10   Zn4   2.044474 S    
O3    Zn2   2.041711 S    
O8    C2    1.287369 A    
C10   C12   1.381000 A    
C11   H1    1.083576 S    
C22   N4    1.432350 S    
N9    O33   1.301401 A    
C12   H2    1.083577 S    
C2    C41   1.441508 S    
O1    Zn1   2.046049 S    
C53   C55   1.446908 S    
N8    O32   1.301444 A    
O2    C2    1.288608 A    
O12   Zn3   2.029814 S    
O14   Zn4   2.033280 S    
N5    O25   1.300953 A    
C24   C54   1.392846 A    
C21   C23   1.382861 A    
O7    C1    1.287372 A    
C23   C53   1.392858 A    
C28   N10   1.438049 S    
C20   C54   1.389259 A    
C30   C40   1.409725 A    
C6    H12   1.077134 S    
C5    C39   1.409728 A    
C16   C50   1.412123 A    
C17   C51   1.418908 A    
N10   O36   1.301644 A    
C31   C41   1.392937 A    
C18   C52   1.418909 A    
N7    O29   1.301328 A    
C36   C46   1.391099 A    
C15   N7    1.436732 S    
C13   C15   1.385012 A    
C14   C16   1.385085 A    
C10   H14   1.078680 S    
C14   C48   1.404190 A    
C22   C24   1.382856 A    
C17   C19   1.384770 A    
C18   C20   1.384774 A    
C38   C52   1.543748 S    
O15   C55   1.297584 A    
O16   Zn3   2.048959 S    
N6    O28   1.300462 A    
O8    Zn1   2.051211 S    
O2    Zn2   2.046047 S    
N4    O24   1.301437 A    
C37   C39   1.522037 S    
O9    Zn3   2.044473 S    
C22   C52   1.433060 A    
C6    C8    1.391403 A    
N9    O34   1.301646 A    
O13   Zn3   2.033280 S    
N8    O31   1.301247 A    
C27   C49   1.412341 A    
O12   C58   1.295174 A    
C50   C58   1.453959 S    
N5    O26   1.300462 A    
C49   C57   1.453979 S    
