data_mof_unit_39322.cif
_audit_creation_date              2012-12-11T15:35:54-0500
_audit_creation_method            fapswitch 2.2
_symmetry_space_group_name_H-M    P1
_symmetry_Int_Tables_number       1
_space_group_crystal_system       triclinic
_cell_length_a                    7.160012
_cell_length_b                    12.175456
_cell_length_c                    35.390108
_cell_angle_alpha                 90.000515
_cell_angle_beta                  91.937155
_cell_angle_gamma                 89.998653
_cell_volume                      3083.41943658

loop_
_atom_site_label
_atom_site_type_symbol
_atom_type_description
_atom_site_fract_x
_atom_site_fract_y
_atom_site_fract_z
_atom_type_partial_charge
O1    O     O_R   0.379730 0.148600 0.662710 -0.536939
O2    O     O_R   0.620270 0.851400 0.337290 -0.540551
O3    O     O_R   0.120270 0.648600 0.337290 -0.536975
O4    O     O_R   0.879730 0.351400 0.662710 -0.540539
O5    O     O_R   0.722480 0.134490 0.741330 -0.535825
O6    O     O_R   0.277520 0.865510 0.258670 -0.536514
O7    O     O_R   0.777520 0.634490 0.258670 -0.535821
O8    O     O_R   0.222480 0.365510 0.741330 -0.536523
O9    O     O_R   0.892880 0.345890 0.741600 -0.532937
O10   O     O_R   0.107120 0.654110 0.258400 -0.532849
O11   O     O_R   0.607120 0.845890 0.258400 -0.532924
O12   O     O_R   0.392880 0.154110 0.741600 -0.532852
C1    C     C_R   0.553830 0.109154 0.753205 0.685223
C2    C     C_R   0.446167 0.890838 0.246791 0.681647
C3    C     C_R   0.946172 0.609155 0.246795 0.685206
C4    C     C_R   0.053829 0.390840 0.753208 0.681609
O13   O     O_R   0.709490 0.135560 0.662990 -0.542360
O14   O     O_R   0.290510 0.864440 0.337010 -0.540469
O15   O     O_R   0.790510 0.635560 0.337010 -0.542364
O16   O     O_R   0.209490 0.364440 0.662990 -0.540457
C5    C     C_R   0.538829 0.109674 0.650809 0.693914
C6    C     C_R   0.461263 0.894625 0.347448 0.698877
C7    C     C_R   0.961167 0.609660 0.349183 0.693877
C8    C     C_R   0.038728 0.394662 0.652567 0.698821
O17   O     O_3   0.552800 0.316610 0.702160 -0.370733
O18   O     O_3   0.447200 0.683390 0.297840 -0.371370
O19   O     O_3   0.947200 0.816610 0.297840 -0.370725
O20   O     O_3   0.052800 0.183390 0.702160 -0.371365
V1    V     V_3+5 0.827630 0.234380 0.702160 1.435834
V2    V     V_3+5 0.172370 0.765620 0.297840 1.440837
V3    V     V_3+5 0.672370 0.734380 0.297840 1.435818
V4    V     V_3+5 0.327630 0.265620 0.702160 1.440885
C9    C     C_R   0.076356 0.679893 0.907552 0.559082
C10   C     C_R   0.923604 0.320113 0.092435 0.559043
C11   C     C_R   0.423610 0.179968 0.092462 0.559055
C12   C     C_R   0.576367 0.820185 0.907581 0.559072
O21   O     O_2   0.108029 0.571494 0.911884 -0.528342
O22   O     O_2   0.891941 0.428510 0.088097 -0.528355
O23   O     O_2   0.391950 0.071571 0.088123 -0.528371
O24   O     O_2   0.608052 0.928582 0.911913 -0.528324
N1    N     N_R   0.047679 0.720620 0.871718 -0.558332
N2    N     N_R   0.952332 0.279405 0.128271 -0.558386
N3    N     N_R   0.452328 0.220674 0.128298 -0.558323
N4    N     N_R   0.547673 0.779458 0.871747 -0.558394
C13   C     C_R   0.029976 0.832046 0.866540 0.565607
C14   C     C_R   0.970072 0.167983 0.133454 0.565716
C15   C     C_R   0.470053 0.332096 0.133482 0.565616
C16   C     C_R   0.529948 0.668034 0.866569 0.565708
C17   C     C_R   0.141895 0.658454 0.807225 -0.041419
C18   C     C_R   0.858127 0.341566 0.192763 -0.040923
C19   C     C_R   0.358122 0.158479 0.192789 -0.041452
C20   C     C_R   0.641912 0.841591 0.807255 -0.040909
C21   C     C_R   0.148851 0.576285 0.779294 -0.155663
C22   C     C_R   0.851147 0.423731 0.220693 -0.154841
C23   C     C_R   0.351136 0.076290 0.220711 -0.155516
C24   C     C_R   0.648893 0.923744 0.779320 -0.154916
C25   C     C_R   0.930399 0.466611 0.813409 -0.177848
C26   C     C_R   0.069553 0.533431 0.186579 -0.178595
C27   C     C_R   0.569597 0.966630 0.186591 -0.177913
C28   C     C_R   0.430427 0.033449 0.813421 -0.178532
C29   C     C_R   0.928417 0.546800 0.841805 -0.043570
C30   C     C_R   0.071532 0.453251 0.158179 -0.043258
C31   C     C_R   0.571582 0.046832 0.158200 -0.043593
C32   C     C_R   0.428456 0.953287 0.841826 -0.043230
C33   C     C_R   0.036582 0.643538 0.839779 0.304498
C34   C     C_R   0.963414 0.356496 0.160206 0.304261
C35   C     C_R   0.463429 0.143576 0.160232 0.304523
C36   C     C_R   0.536596 0.856534 0.839807 0.304242
C37   C     C_R   0.043548 0.862769 0.935084 -0.127686
C38   C     C_R   0.956375 0.137219 0.064913 -0.127570
C39   C     C_R   0.456398 0.362859 0.064941 -0.127581
C40   C     C_R   0.543558 0.637310 0.935113 -0.127680
C41   C     C_R   0.076589 0.749694 0.939800 -0.054916
C42   C     C_R   0.923303 0.250290 0.060192 -0.054892
C43   C     C_R   0.423314 0.249790 0.060219 -0.054933
C44   C     C_R   0.576601 0.750383 0.939829 -0.054881
C45   C     C_R   0.106674 0.708852 0.976741 0.231390
C46   C     C_R   0.893108 0.291105 0.023251 0.231387
C47   C     C_R   0.393112 0.208977 0.023277 0.231382
C48   C     C_R   0.606687 0.791224 0.976769 0.231389
C49   C     C_R   0.021174 0.905085 0.898002 -0.000136
C50   C     C_R   0.978845 0.094927 0.101997 -0.000162
C51   C     C_R   0.478862 0.405150 0.102025 -0.000132
C52   C     C_R   0.521172 0.594994 0.898030 -0.000192
C53   C     C_R   0.044340 0.478964 0.782298 -0.063584
C54   C     C_R   0.955644 0.521056 0.217694 -0.065659
C55   C     C_R   0.455644 0.978967 0.217702 -0.063577
C56   C     C_R   0.544360 0.021064 0.782310 -0.065713
H1    H     H_    0.847915 0.392799 0.816466 0.122959
H2    H     H_    0.152026 0.607245 0.183523 0.122965
H3    H     H_    0.652102 0.892826 0.183532 0.122955
H4    H     H_    0.347943 0.107268 0.816470 0.122979
H5    H     H_    0.845476 0.531492 0.866107 0.139179
H6    H     H_    0.154448 0.468576 0.133874 0.139107
H7    H     H_    0.654521 0.031531 0.133896 0.139117
H8    H     H_    0.345531 0.968621 0.866129 0.139160
C57   C     C_R   0.021034 0.955704 0.037269 0.063664
C58   C     C_R   0.978887 0.044272 0.962733 0.063815
C59   C     C_R   0.478886 0.455810 0.962761 0.063788
C60   C     C_R   0.521059 0.544374 0.037298 0.063692
C61   C     C_R   0.948371 0.111084 0.995308 0.019736
C62   C     C_R   0.051463 0.888875 0.004692 0.019675
C63   C     C_R   0.551478 0.611204 0.004721 0.019666
C64   C     C_R   0.448380 0.388998 0.995336 0.019715
C65   C     C_R   0.973022 0.067450 0.032448 0.093897
C66   C     C_R   0.026864 0.932522 0.967553 0.093882
C67   C     C_R   0.526876 0.567558 0.967581 0.093856
C68   C     C_R   0.473045 0.432629 0.032476 0.093902
C69   C     C_R   0.032940 0.914155 0.074655 -0.201151
C70   C     C_R   0.967146 0.085853 0.925351 -0.201128
C71   C     C_R   0.467124 0.414231 0.925379 -0.201117
C72   C     C_R   0.532979 0.585921 0.074683 -0.201089
C73   C     C_R   0.013339 0.981277 0.106416 0.254633
C74   C     C_R   0.986772 0.018746 0.893587 0.254610
C75   C     C_R   0.486762 0.481335 0.893614 0.254644
C76   C     C_R   0.513369 0.518798 0.106445 0.254602
O25   O     O_2   0.979652 0.127528 0.168840 -0.526077
O26   O     O_2   0.020460 0.872519 0.831156 -0.526392
O27   O     O_2   0.520378 0.627561 0.831184 -0.526076
O28   O     O_2   0.479577 0.372554 0.168869 -0.526383
C77   C     C_R   0.102265 0.778235 0.008039 -0.209138
C78   C     C_R   0.897430 0.221698 0.991958 -0.209188
C79   C     C_R   0.397438 0.278385 0.991986 -0.209169
C80   C     C_R   0.602274 0.721843 0.008068 -0.209150
H9    H     H_    0.763705 0.411211 0.244700 0.125017
H10   H     H_    0.236292 0.588795 0.755286 0.125114
H11   H     H_    0.736369 0.911215 0.755319 0.125047
H12   H     H_    0.263691 0.088789 0.244720 0.125090
H13   H     H_    0.773066 0.268986 0.195836 0.162281
H14   H     H_    0.226999 0.731022 0.804153 0.162182
H15   H     H_    0.727002 0.769013 0.804188 0.162299
H16   H     H_    0.273055 0.231057 0.195867 0.162148
H17   H     H_    0.057487 0.828781 0.080790 0.105992
H18   H     H_    0.942786 0.171252 0.919224 0.105980
H19   H     H_    0.442736 0.328837 0.919251 0.105982
H20   H     H_    0.557531 0.671294 0.080820 0.105974
H21   H     H_    0.134186 0.741280 0.035035 0.122231
H22   H     H_    0.865311 0.258607 0.964962 0.122242
H23   H     H_    0.365320 0.241477 0.964989 0.122245
H24   H     H_    0.634184 0.758800 0.035064 0.122226
C81   C     C_R   0.975300 0.532860 0.380774 -0.079511
C82   C     C_R   0.025973 0.476758 0.622981 -0.050976
C83   C     C_R   0.524608 0.032905 0.619204 -0.079549
C84   C     C_R   0.473939 0.976790 0.377014 -0.050916
C85   C     C_R   0.983613 0.346705 0.404270 0.233645
C86   C     C_R   0.057296 0.663801 0.601359 0.209029
C87   C     C_R   0.515181 0.846764 0.595689 0.233513
C88   C     C_R   0.441552 0.163807 0.398608 0.209002
C89   C     C_R   0.976895 0.420834 0.374290 -0.185120
C90   C     C_R   0.062140 0.586475 0.630601 -0.241048
C91   C     C_R   0.522215 0.920876 0.625675 -0.185177
C92   C     C_R   0.437084 0.086429 0.369378 -0.240879
C93   C     C_R   0.980921 0.573386 0.417432 -0.203954
C94   C     C_R   0.986988 0.442115 0.586512 -0.207598
C95   C     C_R   0.519266 0.073454 0.582547 -0.204129
C96   C     C_R   0.513068 0.942276 0.413490 -0.208082
C97   C     C_R   0.989844 0.502735 0.449147 0.012758
C98   C     C_R   0.003977 0.513647 0.555625 -0.003344
C99   C     C_R   0.509436 0.002831 0.550828 0.012731
C100  C     C_R   0.495241 0.013781 0.444360 -0.003449
C101  C     C_R   0.994294 0.385897 0.442562 0.068180
C102  C     C_R   0.029863 0.628455 0.562991 0.081202
C103  C     C_R   0.504567 0.885984 0.557400 0.068078
C104  C     C_R   0.469053 0.128546 0.436982 0.081260
C105  C     C_R   0.993012 0.545761 0.486984 0.027601
C106  C     C_R   0.995539 0.472333 0.517882 0.030052
C107  C     C_R   0.505996 0.045890 0.512994 0.027583
C108  C     C_R   0.503382 0.972479 0.482095 0.030094
C109  C     C_R   0.000778 0.358516 0.510600 -0.296146
C110  C     C_R   0.996887 0.660057 0.494995 -0.322081
C111  C     C_R   0.497701 0.858676 0.489355 -0.296169
C112  C     C_R   0.501829 0.160191 0.504986 -0.321836
C113  C     C_R   0.001280 0.314114 0.474298 0.276821
C114  C     C_R   0.021397 0.702229 0.531867 0.288073
C115  C     C_R   0.497321 0.814227 0.525651 0.276969
C116  C     C_R   0.477346 0.202341 0.468104 0.288028
H25   H     H_    0.944657 0.357575 0.583434 0.109137
H26   H     H_    0.974929 0.661318 0.419763 0.104288
H27   H     H_    0.556137 0.857861 0.416617 0.109377
H28   H     H_    0.526251 0.161365 0.580210 0.104390
H29   H     H_    0.089632 0.612759 0.659530 0.111166
H30   H     H_    0.966871 0.390357 0.345495 0.119277
H31   H     H_    0.409397 0.112616 0.340444 0.111128
H32   H     H_    0.531995 0.890361 0.654467 0.119322
H33   H     H_    0.023349 0.299602 0.532921 0.135430
H34   H     H_    0.994819 0.720951 0.473041 0.134934
H35   H     H_    0.474598 0.799885 0.467005 0.135364
H36   H     H_    0.503378 0.221058 0.526949 0.134905
N5    N     N_3   0.958850 0.233759 0.394002 -0.684728
H37   H     H_    0.830592 0.206670 0.403317 0.237330
H38   H     H_    0.068628 0.185398 0.404476 0.290303
N6    N     N_3   0.077886 0.777062 0.611544 -0.628318
H39   H     H_    0.195500 0.785277 0.629541 0.244263
H40   H     H_    0.963329 0.798631 0.627546 0.219251
N7    N     N_3   0.539570 0.733784 0.605950 -0.684708
H41   H     H_    0.667837 0.706579 0.596672 0.237344
H42   H     H_    0.429743 0.685527 0.595443 0.290371
N8    N     N_3   0.420521 0.277026 0.388403 -0.628173
H43   H     H_    0.302969 0.285031 0.370377 0.244149
H44   H     H_    0.535058 0.298733 0.372418 0.219259
N9    N     N_3   0.129225 0.594228 0.982986 -0.618734
H45   H     H_    0.997935 0.561519 0.976726 0.246936
H46   H     H_    0.162973 0.578587 0.011353 0.209014
N10   N     N_3   0.870548 0.405726 0.016996 -0.618733
H47   H     H_    0.001840 0.438435 0.023252 0.246954
H48   H     H_    0.836841 0.421344 0.988626 0.208995
N11   N     N_3   0.370513 0.094359 0.017022 -0.618743
H49   H     H_    0.501783 0.061623 0.023282 0.246970
H50   H     H_    0.336820 0.078742 0.988652 0.208992
N12   N     N_3   0.629222 0.905849 0.983015 -0.618736
H51   H     H_    0.497922 0.938549 0.976756 0.246920
H52   H     H_    0.662963 0.921487 0.011382 0.209015
N13   N     N_3   0.036171 0.932624 0.143192 -0.604955
H53   H     H_    0.170238 0.898696 0.145596 0.237201
H54   H     H_    0.939577 0.868672 0.145208 0.196903
N14   N     N_3   0.964133 0.067434 0.856813 -0.605122
H55   H     H_    0.830103 0.101404 0.854391 0.237224
H56   H     H_    0.060801 0.131357 0.854819 0.196899
N15   N     N_3   0.464113 0.432648 0.856841 -0.605010
H57   H     H_    0.330070 0.398699 0.854418 0.237235
H58   H     H_    0.560759 0.368711 0.854848 0.196889
N16   N     N_3   0.536176 0.567450 0.143222 -0.605056
H59   H     H_    0.670227 0.601394 0.145627 0.237188
H60   H     H_    0.439560 0.631394 0.145237 0.196915
N17   N     N_2   0.057183 0.201833 0.471444 -0.515417
H61   H     H_    0.161743 0.184921 0.490909 0.272627
C117  C     C_3   0.919679 0.118976 0.477811 -0.595065
H62   H     H_    0.984431 0.036609 0.474908 0.204764
H63   H     H_    0.808751 0.124371 0.456250 0.221263
H64   H     H_    0.866310 0.126670 0.506750 0.207502
N18   N     N_2   0.076942 0.814709 0.535719 -0.471136
H65   H     H_    0.147342 0.843056 0.512806 0.251258
C118  C     C_3   0.934024 0.893133 0.543626 -0.504755
H66   H     H_    0.999823 0.973245 0.550999 0.201251
H67   H     H_    0.853843 0.866282 0.567839 0.223775
H68   H     H_    0.842579 0.904524 0.518171 0.182880
N19   N     N_2   0.441514 0.701926 0.528495 -0.515442
H69   H     H_    0.337012 0.684982 0.509021 0.272586
C119  C     C_3   0.579126 0.619111 0.522138 -0.594858
H70   H     H_    0.514429 0.536725 0.525028 0.204731
H71   H     H_    0.690024 0.624505 0.543709 0.221158
H72   H     H_    0.632552 0.626829 0.493204 0.207511
N20   N     N_2   0.421744 0.314805 0.464233 -0.471127
H73   H     H_    0.351311 0.343184 0.487138 0.251268
C120  C     C_3   0.564631 0.393225 0.456294 -0.504663
H74   H     H_    0.498793 0.473313 0.448901 0.201263
H75   H     H_    0.644821 0.366323 0.432086 0.223568
H76   H     H_    0.656102 0.404692 0.481742 0.182864

loop_
_geom_bond_atom_site_label_1
_geom_bond_atom_site_label_2
_ccdc_geom_bond_type
C13   O26   S    
C26   C30   A    
O1    C5    A    
C105  C106  A    
C58   C70   A    
C31   H7    S    
C23   H12   S    
O13   V1    S    
N9    H45   S    
O3    C7    A    
C119  H70   S    
C10   N2    A    
C73   N13   S    
C40   C44   A    
C103  C115  A    
C28   C56   A    
C81   C89   A    
C91   H32   S    
C64   C79   A    
N13   H53   S    
C112  C116  A    
C86   C102  A    
C11   C43   A    
C18   C22   A    
C17   C33   A    
C100  C104  A    
O20   V1    S    
O9    C4    A    
N14   H56   S    
C2    C55   S    
C94   C98   A    
O10   C3    A    
N4    C36   S    
O16   V4    S    
O4    C8    A    
C96   H27   S    
C47   N11   S    
C24   C56   A    
C72   C76   A    
N15   H58   S    
N20   H73   S    
N19   C119  S    
C79   H23   S    
C105  C110  A    
C57   C69   A    
N11   H50   S    
C5    C83   S    
N2    C14   A    
C24   H11   S    
C77   H21   S    
N5    H38   S    
C12   C44   A    
N17   C117  S    
C86   C90   A    
C71   H19   S    
C108  C111  A    
C109  C113  A    
O16   C8    A    
C8    C82   S    
N20   C120  S    
C49   C74   A    
C38   C42   A    
C37   C41   A    
N8    H43   S    
O14   V2    S    
C15   C51   A    
C90   H29   S    
C62   C77   A    
C11   N3    A    
C118  H66   S    
C70   C74   A    
O5    C1    A    
C57   C62   A    
C20   C36   A    
C120  H76   S    
O9    V1    S    
C57   C65   A    
O17   V4    S    
C83   C91   A    
C59   C64   A    
O15   V3    S    
O18   V3    S    
O8    C4    A    
C14   C50   A    
N19   H69   S    
O12   V4    S    
O19   V2    S    
C93   C97   A    
C21   C53   A    
N9    H46   S    
C86   N6    S    
N16   H59   S    
C72   H20   S    
C46   C78   A    
C63   C80   A    
C26   C54   A    
C26   H2    S    
C28   C32   A    
C16   O27   S    
O5    V1    S    
C28   H4    S    
O17   V1    S    
N8    H44   S    
O14   C6    A    
C22   H9    S    
C31   C35   A    
C88   C92   A    
C60   C68   A    
C61   C65   A    
O7    V3    S    
C30   C34   A    
C95   C99   A    
N11   H49   S    
C88   C104  A    
C74   N14   S    
C12   O24   S    
C37   C49   A    
N14   H55   S    
C78   H22   S    
C119  H71   S    
C97   C105  A    
C107  C108  A    
C22   C54   A    
O15   C7    A    
C19   C35   A    
C110  C114  A    
C115  N19   S    
C47   C79   A    
O6    V2    S    
C60   C63   A    
O13   C5    A    
C16   C52   A    
C14   O25   S    
O2    V3    S    
N6    H40   S    
C84   C96   A    
O3    V2    S    
C11   O23   S    
C88   N8    S    
O2    C6    A    
C18   H13   S    
C29   C33   A    
O6    C2    A    
C101  C113  A    
O10   V2    S    
C83   C95   A    
C117  H62   S    
C40   C67   A    
O20   V4    S    
C19   H16   S    
C59   C71   A    
C110  H34   S    
N17   H61   S    
N18   C118  S    
C27   H3    S    
O12   C1    A    
C92   H31   S    
C87   N7    S    
C113  N17   S    
C118  H67   S    
C32   H8    S    
C40   C52   A    
C25   H1    S    
C10   C42   A    
C3    C54   S    
C9    C41   A    
C15   O28   S    
C117  H63   S    
N10   H48   S    
C60   C72   A    
C52   C75   A    
N12   H52   S    
C120  H75   S    
O19   V3    S    
C4    C53   S    
C99   C103  A    
C12   N4    A    
C44   C48   A    
O1    V4    S    
C32   C36   A    
C64   C68   A    
C114  N18   S    
C95   H28   S    
C98   C106  A    
C48   N12   S    
C48   C80   A    
C116  N20   S    
N15   H57   S    
C70   H18   S    
C93   H26   S    
N16   H60   S    
N1    C13   A    
C85   N5    S    
C10   O22   S    
C20   H15   S    
C51   C76   A    
C80   H24   S    
C76   N16   S    
C13   C49   A    
O4    V1    S    
C50   C73   A    
C46   N10   S    
C97   C101  A    
C38   C65   A    
C45   N9    S    
C71   C75   A    
C37   C66   A    
C18   C34   A    
C25   C29   A    
C107  C112  A    
C102  C114  A    
C96   C100  A    
C69   C73   A    
C75   N15   S    
C58   C61   A    
C59   C67   A    
C17   H14   S    
C104  C116  A    
C27   C31   A    
C61   C78   A    
C58   C66   A    
C111  H35   S    
C85   C101  A    
C63   C67   A    
C9    N1    A    
N6    H39   S    
C82   C90   A    
C30   H6    S    
N13   H54   S    
C109  H33   S    
N1    C33   S    
C84   C92   A    
C87   C103  A    
C39   C43   A    
C81   C93   A    
C89   H30   S    
O8    V4    S    
C111  C115  A    
C112  H36   S    
C17   C21   A    
C87   C91   A    
C1    C56   S    
O7    C3    A    
O11   C2    A    
C99   C107  A    
C9    O21   S    
C62   C66   A    
C119  H72   S    
C19   C23   A    
C100  C108  A    
C69   H17   S    
C23   C55   A    
N5    H37   S    
C38   C50   A    
C118  H68   S    
C27   C55   A    
N3    C15   A    
C45   C77   A    
C21   H10   S    
C98   C102  A    
O11   V3    S    
N7    H41   S    
N4    C16   A    
C117  H64   S    
N10   H47   S    
C106  C109  A    
N3    C35   S    
N12   H51   S    
C42   C46   A    
C94   H25   S    
C6    C84   S    
N18   H65   S    
N2    C34   S    
C41   C45   A    
C7    C81   S    
C39   C51   A    
C82   C94   A    
C120  H74   S    
C29   H5    S    
C43   C47   A    
C25   C53   A    
C85   C89   A    
C20   C24   A    
C39   C68   A    
N7    H42   S    
O18   V2    S    
