data_mof_unit_39040.cif
_audit_creation_date              2012-12-10T17:17:24-0500
_audit_creation_method            fapswitch 2.2
_symmetry_space_group_name_H-M    P1
_symmetry_Int_Tables_number       1
_space_group_crystal_system       triclinic
_cell_length_a                    10.226552
_cell_length_b                    10.86826
_cell_length_c                    12.569111
_cell_angle_alpha                 90.46782
_cell_angle_beta                  110.096129
_cell_angle_gamma                 96.098192
_cell_volume                      1303.02221097

loop_
_atom_site_label
_atom_site_type_symbol
_atom_type_description
_atom_site_fract_x
_atom_site_fract_y
_atom_site_fract_z
_atom_type_partial_charge
C1    C     C_R   0.052161 0.732002 0.491860 0.932647
C2    C     C_R   0.438320 0.566536 0.987602 0.064299
C3    C     C_R   0.366580 0.575278 0.871358 0.091429
C4    C     C_R   0.578106 0.537828 0.021853 0.083307
C5    C     C_R   0.648388 0.535991 0.942316 0.169314
C6    C     C_R   0.582555 0.571115 0.832770 -0.219460
C7    C     C_R   0.444654 0.595902 0.799300 -0.159027
C8    C     C_R   0.648083 0.506678 0.131853 -0.211826
C9    C     C_R   0.855158 0.477970 0.086791 -0.144322
C10   C     C_R   0.219228 0.564643 0.831037 -0.128974
C11   C     C_2   0.089084 0.864507 0.492701 -0.362013
C12   C     C_R   0.138111 0.525030 0.711888 0.872474
C13   C     C_2   0.982892 0.934580 0.463912 0.653794
C14   C     C_2   0.902155 0.135489 0.491162 -0.218975
C15   C     C_2   0.004521 0.063017 0.506185 -0.303734
C16   C     C_2   0.430406 0.513256 0.507604 -0.050363
C17   C     C_2   0.565381 0.489826 0.492692 -0.166007
C18   C     C_R   0.945816 0.267796 0.504658 0.861596
C19   C     C_R   0.863901 0.485585 0.287226 0.895330
C20   C     C_R   0.784688 0.502464 0.974391 -0.122884
C21   C     C_R   0.788364 0.485888 0.166312 -0.058025
C22   C     C_R   0.150517 0.589008 0.907035 -0.224749
C23   C     C_R   0.226839 0.610316 0.023127 0.009225
C24   C     C_R   0.368415 0.590529 0.063835 -0.220200
H1    H     H_    0.962417 0.456946 0.112073 0.163598
H2    H     H_    0.563004 0.410864 0.438359 0.182159
H3    H     H_    0.428027 0.586315 0.564187 0.191309
H4    H     H_    0.316376 0.375794 0.400813 0.191667
H5    H     H_    0.637157 0.577819 0.773224 0.144778
H6    H     H_    0.837564 0.498549 0.913367 0.139892
H7    H     H_    0.594802 0.499377 0.192516 0.168040
H8    H     H_    0.038439 0.592870 0.875935 0.200948
H9    H     H_    0.424213 0.603005 0.153989 0.189645
H10   H     H_    0.399462 0.634357 0.718118 0.194214
H11   H     H_    0.111868 0.103856 0.548778 0.184951
N1    N     N_2   0.313640 0.446500 0.454900 -0.185330
N2    N     N_2   0.686360 0.553430 0.545150 -0.176246
O1    O     O_R   0.936910 0.692950 0.509080 -0.534306
O2    O     O_R   0.138320 0.658600 0.480130 -0.609998
O3    O     O_R   0.002900 0.525670 0.675280 -0.598800
O4    O     O_R   0.204310 0.491320 0.646330 -0.623757
O5    O     O_R   0.861680 0.341400 0.519870 -0.607890
O6    O     O_R   0.063090 0.307050 0.490920 -0.587456
O7    O     O_R   0.795690 0.508680 0.353670 -0.607054
O8    O     O_R   0.997100 0.474330 0.324720 -0.612197
Zn1   Zn    Zn3+2 0.865520 0.522940 0.519330 1.034389
Zn2   Zn    Zn3+2 0.134480 0.477060 0.480670 0.990419
F1    F     F_    0.851578 0.882660 0.399739 -0.613350
C25   C     C_2   0.750018 0.090666 0.450547 1.040582
O9    O     O_2   0.667021 0.148466 0.380665 -0.635891
O10   O     O_R   0.700889 0.986057 0.495443 -0.726398
H12   H     H_    0.595294 0.966122 0.460923 0.365804
C26   C     C_2   0.240011 0.915550 0.534735 0.869006
O11   O     O_2   0.325017 0.863802 0.608859 -0.616081
O12   O     O_R   0.285550 0.019516 0.486382 -0.790797
H13   H     H_    0.390346 0.044393 0.521539 0.351932
C27   C     C_2   0.698340 0.669089 0.604295 1.044660
O13   O     O_2   0.805447 0.701764 0.684377 -0.614368
O14   O     O_R   0.595196 0.749360 0.567385 -0.787861
H14   H     H_    0.614808 0.824781 0.620883 0.371598
C28   C     C_2   0.160152 0.654106 0.101812 0.896500
O15   O     O_2   0.051393 0.702003 0.064817 -0.605689
O16   O     O_R   0.223238 0.643799 0.218796 -0.791815
H15   H     H_    0.168249 0.678106 0.263424 0.366338

loop_
_geom_bond_atom_site_label_1
_geom_bond_atom_site_label_2
_ccdc_geom_bond_type
C12   O3    A    
C13   F1    S    
C2    C4    A    
O12   H13   S    
C19   O8    A    
C6    C7    A    
C14   C18   S    
C26   O12   S    
C24   H9    S    
C11   C26   S    
C4    C8    A    
C16   H3    S    
O8    Zn2   S    
C2    C3    A    
O4    Zn2   S    
C9    H1    S    
O14   H14   S    
C5    C20   A    
C17   N2    D    
C18   O6    A    
C16   N1    D    
O3    Zn1   S    
C11   C13   D    
C9    C21   A    
C27   O13   D    
C12   O4    A    
C22   H8    S    
C1    O1    A    
C5    C6    A    
C17   H2    S    
C10   C12   S    
C15   H11   S    
C19   C21   S    
O7    Zn1   S    
C8    C21   A    
C3    C7    A    
C13   C15   S    
C2    C24   A    
C28   O15   D    
C7    H10   S    
N2    C27   S    
C3    C10   A    
O1    Zn1   S    
C14   C25   S    
C27   O14   S    
C1    O2    A    
C23   C24   A    
O16   H15   S    
C23   C28   S    
C6    H5    S    
C19   O7    A    
H4    N1    S    
N1    Zn2   S    
O2    Zn2   S    
C25   O9    D    
O5    Zn1   S    
C28   O16   S    
C14   C15   D    
C16   C17   S    
C20   H6    S    
C9    C20   A    
C18   O5    A    
N2    Zn1   S    
C26   O11   D    
C8    H7    S    
O6    Zn2   S    
C22   C23   A    
C10   C22   A    
O10   H12   S    
C4    C5    A    
C25   O10   S    
C1    C11   S    
