data_mof_unit_22089.cif
_audit_creation_date              2012-12-10T17:49:44-0500
_audit_creation_method            fapswitch 2.2
_symmetry_space_group_name_H-M    P1
_symmetry_Int_Tables_number       1
_space_group_crystal_system       triclinic
_cell_length_a                    10.504908
_cell_length_b                    10.638854
_cell_length_c                    9.901553
_cell_angle_alpha                 91.216937
_cell_angle_beta                  89.814513
_cell_angle_gamma                 91.64625
_cell_volume                      1105.8893091

loop_
_atom_site_label
_atom_site_type_symbol
_atom_type_description
_atom_site_fract_x
_atom_site_fract_y
_atom_site_fract_z
_atom_type_partial_charge
C1    C     C_R   0.523697 0.263668 0.498404 0.926348
C2    C     C_R   0.579808 0.073325 0.618599 0.075009
C3    C     C_R   0.561184 0.133401 0.495181 -0.148872
C4    C     C_R   0.257460 0.499252 0.500368 0.910277
C5    C     C_R   0.549493 0.062288 0.374354 0.008757
C6    C     C_R   0.520802 0.935966 0.382535 -0.304554
C7    C     C_R   0.511163 0.877745 0.507935 -0.124106
C8    C     C_R   0.337587 0.331037 0.136997 -0.147774
C9    C     C_R   0.258920 0.246399 0.065088 -0.224310
C10   C     C_R   0.257208 0.247746 0.925433 -0.187266
C11   C     C_R   0.335180 0.332795 0.856766 -0.136976
C12   C     C_3   0.959086 0.486857 0.371378 -0.226122
C13   C     C_R   0.419175 0.417289 0.926094 0.154547
C14   C     C_R   0.419726 0.416904 0.070740 0.181307
C15   C     C_R   0.577097 0.579320 0.073094 -0.108548
C16   C     C_R   0.498542 0.741670 0.502505 0.880742
C17   C     C_R   0.577272 0.579087 0.929904 -0.140955
C18   C     C_R   0.742524 0.499971 0.499730 0.861656
C19   C     C_3   0.040113 0.509688 0.629053 -0.155931
C20   C     C_3   0.953626 0.400899 0.572680 -0.182213
C21   C     C_3   0.877335 0.498666 0.499104 0.014454
C22   C     C_3   0.960743 0.607294 0.555704 -0.163411
C23   C     C_3   0.037827 0.390808 0.446016 0.044479
C24   C     C_3   0.045311 0.595591 0.428302 -0.194143
C25   C     C_2   0.081903 0.269322 0.386319 0.332456
C26   C     C_2   0.570012 0.114118 0.237924 0.411525
C27   C     C_3   0.122401 0.498135 0.501494 -0.003283
C28   C     C_R   0.635821 0.137213 0.731300 -0.144071
C29   C     C_R   0.634047 0.083118 0.857872 -0.125248
C30   C     C_R   0.574026 0.966516 0.874385 -0.170684
C31   C     C_R   0.524228 0.900098 0.762736 -0.167253
C32   C     C_R   0.537589 0.947726 0.630042 0.108444
H1    H     H_    0.911862 0.321422 0.630541 0.135724
H2    H     H_    0.924137 0.695806 0.600448 0.140018
H3    H     H_    0.087001 0.674813 0.370036 0.150305
H4    H     H_    0.922573 0.476757 0.266460 0.162240
H5    H     H_    0.681739 0.229039 0.721593 0.147961
H6    H     H_    0.675727 0.133470 0.943684 0.171982
H7    H     H_    0.198251 0.179838 0.118044 0.160675
H8    H     H_    0.194537 0.182947 0.869771 0.164932
H9    H     H_    0.042040 0.234055 0.291581 0.074356
H10   H     H_    0.516095 0.075417 0.152809 0.047452
H11   H     H_    0.566430 0.926619 0.973831 0.124040
H12   H     H_    0.471532 0.815137 0.785895 0.174113
H13   H     H_    0.508757 0.882529 0.288686 0.160475
H14   H     H_    0.640023 0.644163 0.128167 0.140829
H15   H     H_    0.331309 0.326465 0.243994 0.221047
H16   H     H_    0.326211 0.329548 0.749810 0.222597
H17   H     H_    0.640409 0.643670 0.877274 0.149276
H18   H     H_    0.076882 0.519021 0.733913 0.152672
N1    N     N_R   0.498800 0.498800 0.142780 -0.112088
N2    N     N_R   0.498760 0.498720 0.857170 -0.124939
O1    O     O_R   0.500000 0.316780 0.614690 -0.647749
O2    O     O_2   0.651402 0.196092 0.218477 -0.579804
O3    O     O_R   0.499990 0.316750 0.385360 -0.594732
O4    O     O_R   0.313960 0.499980 0.614650 -0.645283
O5    O     O_R   0.313940 0.499960 0.385310 -0.645151
O6    O     O_R   0.500010 0.683250 0.614640 -0.637402
O7    O     O_R   0.500000 0.683220 0.385310 -0.622071
O8    O     O_R   0.686060 0.500040 0.614690 -0.634980
O9    O     O_R   0.686040 0.500020 0.385350 -0.604999
O10   O     O_2   0.159355 0.207777 0.445910 -0.595633
Zn1   Zn    Zn3+2 0.500010 0.500020 0.653130 0.924204
Zn2   Zn    Zn3+2 0.499990 0.499980 0.346870 0.965649

loop_
_geom_bond_atom_site_label_1
_geom_bond_atom_site_label_2
_ccdc_geom_bond_type
C29   H6    S    
C4    O5    A    
O9    Zn2   S    
C2    C28   A    
C24   C27   S    
C18   O9    A    
C6    C7    A    
C6    H13   S    
C15   N1    A    
C12   H4    S    
C18   C21   S    
C11   C13   A    
C9    C10   A    
C12   C24   S    
C14   N1    A    
C19   H18   S    
C20   C23   S    
C30   C31   A    
O3    Zn2   S    
C4    C27   S    
C19   C20   S    
C2    C3    A    
C1    O3    A    
O4    Zn1   S    
C16   O6    A    
C21   C22   S    
C4    O4    A    
O1    Zn1   S    
C12   C23   S    
C11   H16   S    
C29   C30   A    
C28   H5    S    
O8    Zn1   S    
C20   H1    S    
C26   O2    D    
C17   N2    A    
C18   O8    A    
C28   C29   A    
C23   C27   S    
C25   O10   D    
C23   C25   S    
C5    C6    A    
C22   H2    S    
C22   C24   S    
C30   H11   S    
C8    H15   S    
C24   H3    S    
C10   C11   A    
C25   H9    S    
C5    C26   S    
C13   N2    A    
O7    Zn2   S    
C9    H7    S    
C19   C22   S    
C19   C27   S    
C20   C21   S    
C26   H10   S    
O5    Zn2   S    
C2    C32   A    
C31   H12   S    
C17   H17   S    
O6    Zn1   S    
C15   C17   A    
C1    O1    A    
C7    C16   S    
C10   H8    S    
C8    C14   A    
C7    C32   A    
C15   H14   S    
C3    C5    A    
C13   C14   A    
C12   C21   S    
N2    Zn1   S    
N1    Zn2   S    
C31   C32   A    
C8    C9    A    
C1    C3    S    
C16   O7    A    
