data_mof_unit_26591.cif
_audit_creation_date              2012-10-26T20:37:32-0400
_audit_creation_method            fapswitch 2.2
_symmetry_space_group_name_H-M    P1
_symmetry_Int_Tables_number       1
_space_group_crystal_system       triclinic
_cell_length_a                    11.044373
_cell_length_b                    10.909969
_cell_length_c                    9.685181
_cell_angle_alpha                 89.565669
_cell_angle_beta                  102.930884
_cell_angle_gamma                 90.477917
_cell_volume                      1137.35044225

loop_
_atom_site_label
_atom_site_type_symbol
_atom_type_description
_atom_site_fract_x
_atom_site_fract_y
_atom_site_fract_z
_atom_type_partial_charge
C1    C     C_R   0.505386 0.265519 0.502109 0.538686
C2    C     C_2   0.127289 0.518146 0.408511 0.226838
C3    C     C_2   0.065153 0.485250 0.507179 -0.122948
C4    C     C_2   0.872342 0.489061 0.589431 -0.154636
C5    C     C_2   0.932592 0.509213 0.486259 -0.135057
C6    C     C_2   0.535003 0.933373 0.407736 -0.143273
C7    C     C_3   0.327838 0.241258 0.053350 -0.004096
C8    C     C_3   0.196723 0.215549 0.965701 -0.280463
C9    C     C_3   0.182893 0.082955 0.914989 -0.479191
C10   C     C_3   0.071439 0.541443 0.163463 0.015320
C11   C     C_3   0.132957 0.632436 0.078558 -0.236890
C12   C     C_2   0.477927 0.865907 0.491642 0.260472
C13   C     C_3   0.113516 0.594903 0.923800 -0.478883
C14   C     C_3   0.277181 0.887026 0.518316 0.018053
C15   C     C_3   0.218767 0.970885 0.393617 -0.275962
C16   C     C_3   0.079813 0.945959 0.343405 -0.483918
C17   C     C_2   0.526723 0.066953 0.398141 -0.163326
C18   C     C_2   0.520565 0.134199 0.510881 -0.098060
C19   C     C_2   0.415201 0.445265 0.901118 -0.029003
C20   C     C_2   0.422380 0.433359 0.059676 0.358957
C21   C     C_R   0.262526 0.502933 0.441960 0.548947
C22   C     C_R   0.496355 0.734478 0.498433 0.550202
C23   C     C_R   0.737388 0.498762 0.557639 0.552245
Cu1   Cu    Cu3+1 0.500020 0.500020 0.638640 0.927895
Cu2   Cu    Cu3+1 0.499980 0.499980 0.361360 0.964315
H1    H     H_    0.577919 0.530577 0.913649 0.197068
H2    H     H_    0.128065 0.233207 0.031328 0.161192
H3    H     H_    0.175838 0.277514 0.872106 0.139814
H4    H     H_    0.249295 0.063704 0.847109 0.161832
H5    H     H_    0.087018 0.067193 0.851931 0.145088
H6    H     H_    0.200300 0.018878 0.006936 0.141946
H7    H     H_    0.973300 0.526907 0.106510 0.135404
H8    H     H_    0.117477 0.450346 0.168729 0.161878
H9    H     H_    0.092794 0.725060 0.082954 0.160340
H10   H     H_    0.234098 0.638523 0.125860 0.197589
H11   H     H_    0.145166 0.499577 0.915475 0.156786
H12   H     H_    0.555416 0.561256 0.118419 0.162730
H13   H     H_    0.167251 0.657153 0.868273 0.152213
H14   H     H_    0.013634 0.601899 0.871338 0.143982
H15   H     H_    0.227247 0.900316 0.604681 0.150035
H16   H     H_    0.263558 0.788831 0.487198 0.144413
H17   H     H_    0.233362 0.068271 0.426574 0.175831
H18   H     H_    0.264028 0.955627 0.303686 0.154473
H19   H     H_    0.063140 0.849366 0.308550 0.192434
H20   H     H_    0.040776 0.007228 0.252539 0.141761
H21   H     H_    0.031356 0.963808 0.430061 0.149184
H22   H     H_    0.530399 0.110071 0.297826 0.129557
H23   H     H_    0.111895 0.437891 0.603472 0.096986
H24   H     H_    0.530873 0.092849 0.615036 0.169672
H25   H     H_    0.921437 0.459659 0.694228 0.090794
H26   H     H_    0.586879 0.888765 0.339457 0.102067
H27   H     H_    0.336392 0.403946 0.829292 0.138599
H28   H     H_    0.882335 0.540887 0.382688 0.193817
H29   H     H_    0.345188 0.177498 0.145347 0.154198
H30   H     H_    0.398343 0.219589 0.990746 0.110582
N1    N     N_2   0.498650 0.498660 0.846590 -0.371670
N2    N     N_2   0.498620 0.498630 0.152710 -0.322354
O1    O     O_R   0.500020 0.321960 0.617050 -0.499755
O2    O     O_3   0.070022 0.593159 0.296517 -0.613155
O3    O     O_3   0.403398 0.918800 0.572714 -0.593145
O4    O     O_R   0.499980 0.321920 0.382890 -0.461208
O5    O     O_R   0.320700 0.500020 0.574050 -0.526914
O6    O     O_R   0.320660 0.499980 0.339890 -0.453539
O7    O     O_R   0.500020 0.678080 0.617110 -0.468759
O8    O     O_R   0.499980 0.678040 0.382950 -0.537313
O9    O     O_R   0.679340 0.500020 0.660110 -0.497034
O10   O     O_R   0.679300 0.499980 0.425950 -0.502741
O11   O     O_3   0.334998 0.362080 0.107275 -0.540901

loop_
_geom_bond_atom_site_label_1
_geom_bond_atom_site_label_2
_ccdc_geom_bond_type
C19   N1    D    
C16   H20   S    
C22   O8    A    
C8    C9    S    
C9    H4    S    
C6    H26   S    
Cu1   N1    S    
C14   O3    S    
C16   H19   S    
C19   C20   S    
Cu2   O10   S    
Cu1   O9    S    
C10   O2    S    
C3    C5    S    
C2    C21   S    
C11   H10   S    
C2    C3    D    
C13   H13   S    
C15   H18   S    
C7    C8    S    
Cu1   O7    S    
C10   H7    S    
Cu2   O4    S    
C1    O1    A    
C11   C13   S    
C1    C18   S    
Cu2   N2    S    
C9    H5    S    
C14   H16   S    
C7    H30   S    
C23   O9    A    
C5    H28   S    
C17   C18   D    
C10   H8    S    
C20   N2    D    
C6    C12   D    
C8    H3    S    
C13   H14   S    
C21   O6    A    
C10   C11   S    
C9    H6    S    
H1    N1    S    
C14   H15   S    
C15   C16   S    
C12   O3    S    
C12   C22   S    
C3    H23   S    
Cu2   O8    S    
Cu1   Cu2   S    
C15   H17   S    
C13   H11   S    
Cu1   O1    S    
Cu2   O6    S    
C23   O10   A    
C8    H2    S    
C4    C23   S    
C14   C15   S    
C16   H21   S    
Cu1   O5    S    
C7    H29   S    
C21   O5    A    
C7    O11   S    
C2    O2    S    
C22   O7    A    
C19   H27   S    
C20   O11   S    
C11   H9    S    
H12   N2    S    
C17   H22   S    
C18   H24   S    
C4    H25   S    
C4    C5    D    
C6    C17   S    
C1    O4    A    
