data_mof_unit_56663.cif
_audit_creation_date              2012-12-11T14:42:26-0500
_audit_creation_method            fapswitch 2.2
_symmetry_space_group_name_H-M    P1
_symmetry_Int_Tables_number       1
_space_group_crystal_system       triclinic
_cell_length_a                    19.023124
_cell_length_b                    10.930287
_cell_length_c                    18.873927
_cell_angle_alpha                 89.893394
_cell_angle_beta                  90.448015
_cell_angle_gamma                 89.953152
_cell_volume                      3924.29363684

loop_
_atom_site_label
_atom_site_type_symbol
_atom_type_description
_atom_site_fract_x
_atom_site_fract_y
_atom_site_fract_z
_atom_type_partial_charge
C1    C     C_R   0.725418 0.959660 0.855341 0.551204
C2    C     C_R   0.272823 0.956479 0.146340 0.549616
C3    C     C_R   0.225550 0.459334 0.855225 0.550372
C4    C     C_R   0.774464 0.459495 0.144747 0.549526
C5    C     C_R   0.698049 0.465605 0.036968 -0.136812
C6    C     C_R   0.302067 0.464640 0.962848 -0.145943
C7    C     C_R   0.204211 0.987064 0.035597 -0.132580
C8    C     C_R   0.802183 0.963564 0.962766 -0.136819
C9    C     C_R   0.761180 0.431864 0.070570 0.034223
C10   C     C_R   0.238812 0.431569 0.929418 0.035304
C11   C     C_R   0.252637 0.917470 0.075691 0.029270
C12   C     C_R   0.738390 0.932780 0.929680 0.034339
C13   C     C_R   0.818176 0.391691 0.030102 -0.127647
C14   C     C_R   0.181716 0.392267 0.970036 -0.130925
C15   C     C_R   0.292563 0.826835 0.043252 -0.138863
C16   C     C_R   0.680867 0.896412 0.970638 -0.127231
C17   C     C_R   0.812748 0.385546 0.957642 -0.129228
C18   C     C_R   0.187126 0.386560 0.042512 -0.133209
C19   C     C_R   0.288766 0.812455 0.971013 -0.124834
C20   C     C_R   0.686643 0.890105 0.043111 -0.129981
C21   C     C_R   0.748603 0.411096 0.924008 0.030991
C22   C     C_R   0.251359 0.411542 0.076010 0.031423
C23   C     C_R   0.243376 0.886005 0.929845 0.034839
C24   C     C_R   0.751413 0.912212 0.076189 0.030417
C25   C     C_R   0.517762 0.279605 0.530799 -0.104651
C26   C     C_R   0.516429 0.276112 0.458736 -0.123367
C27   C     C_R   0.017499 0.779663 0.530861 -0.104287
C28   C     C_R   0.016218 0.776200 0.458802 -0.123283
C29   C     C_R   0.501318 0.166418 0.424342 0.032450
C30   C     C_R   0.510923 0.171405 0.570168 0.050768
C31   C     C_R   0.001268 0.666464 0.424370 0.032411
C32   C     C_R   0.010832 0.671394 0.570201 0.050940
C33   C     C_R   0.496161 0.056646 0.462675 -0.145319
C34   C     C_R   0.500995 0.059200 0.535975 -0.150565
C35   C     C_R   0.996217 0.556648 0.462676 -0.145282
C36   C     C_R   0.001049 0.559169 0.535977 -0.150444
C37   C     C_R   0.813968 0.391311 0.543117 -0.157860
C38   C     C_R   0.185986 0.409344 0.454906 -0.164452
C39   C     C_R   0.313948 0.891291 0.543106 -0.157803
C40   C     C_R   0.686018 0.909786 0.454870 -0.164644
C41   C     C_R   0.819010 0.398411 0.470652 -0.183162
C42   C     C_R   0.179127 0.419835 0.527255 -0.188365
C43   C     C_R   0.318992 0.898379 0.470642 -0.183315
C44   C     C_R   0.679122 0.920367 0.527216 -0.188328
C45   C     C_R   0.529915 0.177667 0.850808 0.557489
C46   C     C_R   0.469497 0.177584 0.148813 0.555319
C47   C     C_R   0.030084 0.677599 0.850934 0.557129
C48   C     C_R   0.969856 0.677687 0.149029 0.554415
C49   C     C_R   0.760752 0.433010 0.428909 0.051742
C50   C     C_R   0.238616 0.434365 0.571186 0.050039
C51   C     C_R   0.260729 0.932942 0.428892 0.052068
C52   C     C_R   0.738616 0.934338 0.571204 0.049981
C53   C     C_R   0.696716 0.464164 0.461306 0.265001
C54   C     C_R   0.305829 0.443847 0.541464 0.262045
C55   C     C_R   0.196670 0.964015 0.461276 0.265216
C56   C     C_R   0.805879 0.943162 0.541547 0.261632
C57   C     C_R   0.691245 0.449828 0.535052 -0.124293
C58   C     C_R   0.312518 0.427704 0.468160 -0.119149
C59   C     C_R   0.191196 0.949668 0.535022 -0.124542
C60   C     C_R   0.812597 0.927013 0.468262 -0.118661
C61   C     C_R   0.749412 0.411035 0.575498 -0.006963
C62   C     C_R   0.252678 0.408708 0.425222 -0.010340
C63   C     C_R   0.249384 0.910973 0.575480 -0.007361
C64   C     C_R   0.752739 0.908597 0.425255 -0.010284
C65   C     C_R   0.738239 0.364137 0.852726 0.547596
C66   C     C_R   0.261727 0.364318 0.147308 0.545425
C67   C     C_R   0.236780 0.857627 0.854994 0.549386
C68   C     C_R   0.761739 0.864384 0.147343 0.546162
C69   C     C_R   0.726140 0.959007 0.645797 0.581699
C70   C     C_R   0.273792 0.958885 0.354311 0.575474
C71   C     C_R   0.226128 0.459041 0.645782 0.582210
C72   C     C_R   0.773801 0.458910 0.354321 0.576501
C73   C     C_R   0.531221 0.176686 0.643632 0.557892
C74   C     C_R   0.471382 0.175660 0.354451 0.551690
C75   C     C_R   0.031197 0.676682 0.643647 0.557583
C76   C     C_R   0.971375 0.675666 0.354458 0.551550
C77   C     C_R   0.739223 0.363046 0.646491 0.549861
C78   C     C_R   0.261225 0.361966 0.353879 0.549069
C79   C     C_R   0.239216 0.863029 0.646484 0.551895
C80   C     C_R   0.761238 0.861933 0.353892 0.548930
C81   C     C_2   0.497094 0.169652 0.920572 -0.107144
C82   C     C_2   0.500675 0.168160 0.078322 -0.111749
C83   C     C_2   0.998104 0.669072 0.921110 -0.106712
C84   C     C_2   0.001721 0.669267 0.078801 -0.108366
C85   C     C_2   0.487948 0.070046 0.037149 -0.161824
C86   C     C_2   0.504213 0.069179 0.961043 -0.159948
C87   C     C_2   0.992372 0.569485 0.038269 -0.163288
C88   C     C_2   0.007567 0.569390 0.961898 -0.163252
C89   C     C_R   0.691433 0.453753 0.963718 -0.134882
C90   C     C_R   0.308633 0.453356 0.036135 -0.141337
C91   C     C_R   0.199306 0.970719 0.962647 -0.139996
C92   C     C_R   0.808980 0.951923 0.036004 -0.134649
Cr1   Cr    Cr6+3 0.769270 0.163730 0.750710 1.035435
Cr2   Cr    Cr6+3 0.230730 0.163730 0.249290 1.041714
Cr3   Cr    Cr6+3 0.269270 0.663730 0.750710 1.034419
Cr4   Cr    Cr6+3 0.730730 0.663730 0.249290 1.043694
Cr5   Cr    Cr6+3 0.612620 0.009790 0.748780 1.011313
Cr6   Cr    Cr6+3 0.387380 0.009790 0.251220 1.009466
Cr7   Cr    Cr6+3 0.112620 0.509790 0.748780 1.008266
Cr8   Cr    Cr6+3 0.887380 0.509790 0.251220 1.008864
Cr9   Cr    Cr6+3 0.614160 0.322500 0.747710 1.019507
Cr10  Cr    Cr6+3 0.385840 0.322500 0.252290 1.019348
Cr11  Cr    Cr6+3 0.114160 0.822500 0.747710 1.020880
Cr12  Cr    Cr6+3 0.885840 0.822500 0.252290 1.021121
H1    H     H_    0.464287 0.988074 0.059157 0.155300
H2    H     H_    0.522729 0.984069 0.938342 0.142247
H3    H     H_    0.972668 0.485294 0.061188 0.141095
H4    H     H_    0.027349 0.485184 0.939191 0.140490
H5    H     H_    0.869649 0.378601 0.447588 0.135635
H6    H     H_    0.126603 0.417359 0.548774 0.142287
H7    H     H_    0.369637 0.878587 0.447584 0.135511
H8    H     H_    0.626576 0.918365 0.548697 0.142445
H9    H     H_    0.640930 0.462478 0.560207 0.121035
H10   H     H_    0.364563 0.421990 0.445614 0.139169
H11   H     H_    0.140864 0.962226 0.560167 0.120947
H12   H     H_    0.864665 0.920828 0.445799 0.139493
H13   H     H_    0.525916 0.248843 0.056474 0.105926
H14   H     H_    0.475480 0.253077 0.942879 0.107468
H15   H     H_    0.024285 0.751899 0.056416 0.110754
H16   H     H_    0.975412 0.751694 0.943288 0.107780
H17   H     H_    0.641138 0.472886 0.938774 0.131061
H18   H     H_    0.358983 0.472105 0.060983 0.128760
H19   H     H_    0.162450 0.025235 0.931978 0.124095
H20   H     H_    0.859736 0.968460 0.060546 0.132031
H21   H     H_    0.654118 0.500035 0.067193 0.124364
H22   H     H_    0.346111 0.498259 0.932464 0.118772
H23   H     H_    0.172941 0.058250 0.059835 0.135555
H24   H     H_    0.846522 0.995255 0.932124 0.124188
H25   H     H_    0.868112 0.367249 0.054067 0.127865
H26   H     H_    0.131738 0.368168 0.946161 0.126198
H27   H     H_    0.329630 0.771329 0.073116 0.128724
H28   H     H_    0.630390 0.874873 0.947006 0.128849
H29   H     H_    0.857925 0.353198 0.928454 0.132455
H30   H     H_    0.141882 0.354828 0.071844 0.130247
H31   H     H_    0.321408 0.742260 0.947671 0.138289
H32   H     H_    0.641202 0.860231 0.072780 0.132622
H33   H     H_    0.526592 0.367800 0.555258 0.138289
H34   H     H_    0.521063 0.361906 0.430368 0.169710
H35   H     H_    0.026187 0.867894 0.555340 0.138370
H36   H     H_    0.020759 0.862038 0.430462 0.169617
H37   H     H_    0.485079 0.970696 0.436484 0.114515
H38   H     H_    0.497509 0.974497 0.565626 0.109234
H39   H     H_    0.985236 0.470677 0.436461 0.114523
H40   H     H_    0.997677 0.474425 0.565606 0.109051
H41   H     H_    0.859833 0.363020 0.573375 0.128072
H42   H     H_    0.139357 0.394869 0.422640 0.130977
H43   H     H_    0.359817 0.863026 0.573369 0.128621
H44   H     H_    0.639383 0.895712 0.422551 0.130966
O1    O     O_R   0.784320 0.290430 0.830510 -0.525173
O2    O     O_R   0.215680 0.290430 0.169490 -0.528587
O3    O     O_R   0.284320 0.790430 0.830510 -0.528609
O4    O     O_R   0.715680 0.790430 0.169490 -0.525315
O5    O     O_R   0.554640 0.080370 0.673500 -0.513457
O6    O     O_R   0.445360 0.080370 0.326500 -0.511223
O7    O     O_R   0.054640 0.580370 0.673500 -0.513629
O8    O     O_R   0.945360 0.580370 0.326500 -0.511238
O9    O     O_R   0.543920 0.282180 0.666790 -0.519766
O10   O     O_R   0.456080 0.282180 0.333210 -0.524206
O11   O     O_R   0.043920 0.782180 0.666790 -0.520160
O12   O     O_R   0.956080 0.782180 0.333210 -0.524086
O13   O     O_R   0.679040 0.374160 0.674430 -0.510926
O14   O     O_R   0.320960 0.374160 0.325570 -0.509841
O15   O     O_R   0.179040 0.874160 0.674430 -0.510404
O16   O     O_R   0.820960 0.874160 0.325570 -0.509565
O17   O     O_3   0.665350 0.165340 0.749070 -0.255469
O18   O     O_3   0.334650 0.165340 0.250930 -0.253285
O19   O     O_3   0.165350 0.665340 0.749070 -0.256901
O20   O     O_3   0.834650 0.665340 0.250930 -0.254610
O21   O     O_R   0.762640 0.040960 0.825200 -0.500273
O22   O     O_R   0.237360 0.040960 0.174800 -0.505667
O23   O     O_R   0.262640 0.540960 0.825200 -0.505523
O24   O     O_R   0.737360 0.540960 0.174800 -0.501713
O25   O     O_R   0.667400 0.923970 0.829950 -0.526956
O26   O     O_R   0.332600 0.923970 0.170050 -0.525643
O27   O     O_R   0.167400 0.423970 0.829950 -0.527427
O28   O     O_R   0.832600 0.423970 0.170050 -0.527904
O29   O     O_R   0.553960 0.081340 0.821780 -0.497946
O30   O     O_R   0.446040 0.081340 0.178220 -0.498100
O31   O     O_R   0.053960 0.581340 0.821780 -0.499651
O32   O     O_R   0.946040 0.581340 0.178220 -0.500282
O33   O     O_R   0.543180 0.283240 0.826740 -0.515050
O34   O     O_R   0.456820 0.283240 0.173260 -0.515405
O35   O     O_R   0.043180 0.783240 0.826740 -0.512073
O36   O     O_R   0.956820 0.783240 0.173260 -0.514852
O37   O     O_R   0.678360 0.375140 0.822710 -0.504964
O38   O     O_R   0.321640 0.375140 0.177290 -0.505131
O39   O     O_R   0.178360 0.875140 0.822710 -0.502273
O40   O     O_R   0.821640 0.875140 0.177290 -0.504947
O41   O     O_R   0.785050 0.289380 0.670560 -0.523496
O42   O     O_R   0.214950 0.289380 0.329440 -0.514489
O43   O     O_R   0.285050 0.789380 0.670560 -0.520955
O44   O     O_R   0.714950 0.789380 0.329440 -0.515003
O45   O     O_R   0.763320 0.039990 0.676930 -0.460684
O46   O     O_R   0.236680 0.039990 0.323070 -0.448273
O47   O     O_R   0.263320 0.539990 0.676930 -0.459291
O48   O     O_R   0.736680 0.539990 0.323070 -0.448186
O49   O     O_R   0.668130 0.922920 0.670000 -0.539816
O50   O     O_R   0.331870 0.922920 0.330000 -0.542908
O51   O     O_R   0.168130 0.422920 0.670000 -0.539855
O52   O     O_R   0.831870 0.422920 0.330000 -0.541518
O53   O     O_3   0.639388 0.496920 0.419187 -0.561567
C93   C     C_3   0.603719 0.599007 0.447367 -0.121085
H45   H     H_    0.640297 0.668015 0.470310 0.130380
H46   H     H_    0.565007 0.569352 0.487563 0.077562
H47   H     H_    0.574026 0.644475 0.403894 0.140620
O54   O     O_3   0.364294 0.454653 0.585416 -0.552137
C94   C     C_3   0.404656 0.557113 0.565314 -0.112173
H48   H     H_    0.371453 0.639763 0.556595 0.125113
H49   H     H_    0.436109 0.537077 0.517416 0.084727
H50   H     H_    0.442186 0.578374 0.608842 0.136445
O55   O     O_3   0.139332 0.996686 0.419141 -0.561310
C95   C     C_3   0.103531 0.098602 0.447369 -0.120985
H51   H     H_    0.140013 0.167652 0.470453 0.130038
H52   H     H_    0.064772 0.068715 0.487475 0.077608
H53   H     H_    0.073876 0.144128 0.403882 0.140811
O56   O     O_3   0.864374 0.953158 0.585498 -0.552782
C96   C     C_3   0.904358 0.056542 0.566207 -0.112453
H54   H     H_    0.870920 0.139398 0.559207 0.126869
H55   H     H_    0.935110 0.038717 0.517526 0.084298
H56   H     H_    0.942520 0.076079 0.609457 0.135938

loop_
_geom_bond_atom_site_label_1
_geom_bond_atom_site_label_2
_ccdc_geom_bond_type
C58   C62   A    
Cr4   O44   S    
C87   C88   S    
Cr6   O6    S    
Cr11  O19   S    
C55   C59   A    
C64   C80   S    
O53   C93   S    
C14   C18   A    
Cr1   O1    S    
C35   C36   A    
C78   O42   A    
C84   C87   D    
Cr11  O11   S    
Cr2   O18   S    
C32   C75   S    
C31   C76   S    
C45   O33   A    
C21   C89   A    
C85   C86   S    
C96   H56   S    
C15   C19   A    
Cr1   O21   S    
C50   C54   A    
C93   H46   S    
C37   C41   A    
Cr11  O35   S    
C32   C36   A    
C56   C60   A    
C66   O2    A    
C92   H20   S    
C54   C58   A    
Cr6   O26   S    
C85   H1    S    
Cr12  O20   S    
C19   H31   S    
Cr4   O4    S    
C73   O9    A    
C74   O6    A    
Cr7   O31   S    
C23   C67   S    
C57   C61   A    
C59   H11   S    
C46   O30   A    
C22   C66   S    
C9    C13   A    
C52   C69   S    
C46   C82   S    
C11   C15   A    
C8    H24   S    
C38   H42   S    
C12   C16   A    
C29   C33   A    
C61   C77   S    
C54   O54   S    
C93   H47   S    
Cr7   O7    S    
Cr8   O28   S    
C94   H50   S    
C47   O31   A    
Cr4   O20   S    
C8    C92   A    
C51   C70   S    
Cr5   O5    S    
C8    C12   A    
Cr6   O30   S    
C18   C22   A    
C51   C55   A    
C81   C86   D    
C2    O26   A    
C16   C20   A    
C71   O47   A    
C88   H4    S    
C70   O46   A    
C44   C52   A    
C42   H6    S    
C83   C88   D    
Cr1   O17   S    
Cr10  O18   S    
C79   O43   A    
C69   O49   A    
C80   O44   A    
Cr10  O10   S    
C86   H2    S    
C1    C12   S    
C43   H7    S    
Cr12  O12   S    
Cr9   O37   S    
C2    C11   S    
C24   C92   A    
C41   C49   A    
C67   O39   A    
Cr7   O19   S    
Cr9   O9    S    
C77   O13   A    
Cr12  O40   S    
C65   O37   A    
Cr5   O25   S    
C93   H45   S    
Cr6   O50   S    
C67   O3    A    
C94   H48   S    
Cr10  O34   S    
Cr5   O49   S    
Cr11  O39   S    
O56   C96   S    
C6    H22   S    
C47   O35   A    
C10   C14   A    
C48   O36   A    
C30   C73   S    
C30   C34   A    
O54   C94   S    
C57   H9    S    
C29   C74   S    
C41   H5    S    
C33   H37   S    
C25   C26   A    
C6    C90   A    
C81   H14   S    
C49   C72   S    
C80   O16   A    
C25   H33   S    
C48   C84   S    
Cr3   O19   S    
C83   H16   S    
C7    C11   A    
C50   C71   S    
Cr2   O42   S    
C37   H41   S    
C5    C9    A    
C68   O4    A    
C72   O52   A    
C34   H38   S    
Cr5   O29   S    
O55   C95   S    
C95   H53   S    
Cr4   O48   S    
Cr10  O14   S    
C1    O25   A    
C69   O45   A    
C33   C34   A    
C22   C90   A    
C87   H3    S    
Cr10  O38   S    
C20   H32   S    
C74   O10   A    
Cr9   O17   S    
C68   O40   A    
Cr6   O18   S    
C42   C50   A    
Cr8   O52   S    
C3    O27   A    
Cr12  O36   S    
C95   H52   S    
C78   O14   A    
C47   C83   S    
C66   O38   A    
C17   H29   S    
C23   C91   A    
C60   H12   S    
Cr3   O3    S    
Cr8   O8    S    
C73   O5    A    
Cr8   O32   S    
C44   H8    S    
C7    C91   A    
C48   O32   A    
Cr9   O33   S    
C19   C23   A    
C94   H49   S    
C14   H26   S    
C75   O11   A    
C25   C30   A    
C76   O12   A    
C40   H44   S    
Cr3   O47   S    
Cr3   O43   S    
C4    O24   A    
C21   C65   S    
C27   C32   A    
Cr2   O46   S    
C59   C63   A    
C53   O53   S    
C62   C78   S    
C28   C31   A    
Cr1   O45   S    
C79   O15   A    
C28   H36   S    
C26   H34   S    
C53   C57   A    
Cr4   O24   S    
C72   O48   A    
C37   C61   A    
C71   O51   A    
C63   C79   S    
Cr1   O41   S    
Cr2   O2    S    
C82   C85   D    
C39   C63   A    
C39   H43   S    
Cr11  O15   S    
C40   C64   A    
C60   C64   A    
C90   H18   S    
Cr8   O20   S    
C77   O41   A    
C46   O34   A    
Cr9   O13   S    
C96   H54   S    
C2    O22   A    
C3    C10   S    
Cr2   O22   S    
C45   O29   A    
C3    O23   A    
Cr12  O16   S    
Cr7   O27   S    
C89   H17   S    
C43   C51   A    
C84   H15   S    
Cr5   O17   S    
C31   C35   A    
C1    O21   A    
C76   O8    A    
C5    H21   S    
C18   H30   S    
C45   C81   S    
C65   O1    A    
C96   H55   S    
C16   H28   S    
C27   H35   S    
C56   O56   S    
C49   C53   A    
C6    C10   A    
C24   C68   S    
C55   O55   S    
C13   C17   A    
C38   C42   A    
C75   O7    A    
C40   C44   A    
C15   H27   S    
C95   H51   S    
C39   C43   A    
C26   C29   A    
C70   O50   A    
C4    O28   A    
Cr7   O51   S    
C27   C28   A    
C58   H10   S    
C13   H25   S    
C91   H19   S    
C82   H13   S    
C7    H23   S    
C4    C9    S    
C36   H40   S    
Cr3   O23   S    
C20   C24   A    
C5    C89   A    
C52   C56   A    
C35   H39   S    
C38   C62   A    
C17   C21   A    
