data_mof_unit_42546.cif
_audit_creation_date              2012-12-11T14:44:24-0500
_audit_creation_method            fapswitch 2.2
_symmetry_space_group_name_H-M    P1
_symmetry_Int_Tables_number       1
_space_group_crystal_system       triclinic
_cell_length_a                    24.928433
_cell_length_b                    16.791261
_cell_length_c                    15.61625
_cell_angle_alpha                 90.178343
_cell_angle_beta                  49.762639
_cell_angle_gamma                 90.012982
_cell_volume                      4989.87512436

loop_
_atom_site_label
_atom_site_type_symbol
_atom_type_description
_atom_site_fract_x
_atom_site_fract_y
_atom_site_fract_z
_atom_type_partial_charge
C1    C     C_R   0.353806 0.148458 0.752580 -0.120863
C2    C     C_3   0.744500 0.777594 0.608182 -0.231744
C3    C     C_1   0.842405 0.064098 0.382681 0.014725
C4    C     C_1   0.201905 0.347240 0.614035 0.015302
C5    C     C_1   0.798033 0.652698 0.386084 0.015332
C6    C     C_1   0.706288 0.346983 0.612179 0.017847
C7    C     C_1   0.293680 0.652991 0.387833 0.017843
C8    C     C_3   0.796361 0.167045 0.550145 -0.198727
C9    C     C_3   0.203647 0.832958 0.449846 -0.198745
C10   C     C_3   0.806273 0.809548 0.392634 -0.224661
C11   C     C_3   0.193708 0.190402 0.607360 -0.224656
C12   C     C_3   0.243014 0.754960 0.552490 -0.206436
C13   C     C_3   0.756972 0.245014 0.447515 -0.206423
C14   C     C_2   0.637016 0.267028 0.157969 -0.216269
C15   C     C_2   0.362980 0.732976 0.842041 -0.216269
C16   C     C_2   0.363238 0.267930 0.841626 -0.215505
C17   C     C_R   0.646194 0.851542 0.247420 -0.120861
C18   C     C_2   0.636761 0.732069 0.158375 -0.215504
C19   C     C_2   0.196792 0.649017 0.013952 -0.217424
C20   C     C_2   0.803209 0.350979 0.986044 -0.217427
C21   C     C_2   0.802923 0.648721 0.986864 -0.215997
C22   C     C_2   0.197076 0.351275 0.013137 -0.215991
C23   C     C_2   0.687284 0.308560 0.146194 -0.107572
C24   C     C_2   0.312717 0.691439 0.853807 -0.107574
C25   C     C_2   0.313401 0.309787 0.852520 -0.106999
C26   C     C_2   0.686599 0.690212 0.147480 -0.106993
C27   C     C_2   0.266401 0.641730 0.952581 -0.105944
C28   C     C_R   0.646219 0.148187 0.247477 -0.120149
C29   C     C_2   0.733600 0.358266 0.047416 -0.105943
C30   C     C_2   0.733410 0.640444 0.048353 -0.106715
C31   C     C_2   0.266589 0.359555 0.951647 -0.106715
C32   C     C_R   0.614406 0.107365 0.592901 -0.130931
C33   C     C_R   0.385598 0.892617 0.407098 -0.130935
C34   C     C_R   0.385143 0.107449 0.407879 -0.150496
C35   C     C_R   0.614854 0.892542 0.592122 -0.150495
C36   C     C_R   0.087716 0.647437 0.594387 -0.115788
C37   C     C_R   0.912267 0.352574 0.405610 -0.115803
C38   C     C_R   0.912400 0.648664 0.407706 -0.123735
C39   C     C_R   0.353778 0.851815 0.752530 -0.120147
C40   C     C_R   0.087599 0.351336 0.592295 -0.123728
C41   C     C_R   0.689720 0.106118 0.406467 -0.156190
C42   C     C_R   0.310284 0.893863 0.593534 -0.156177
C43   C     C_R   0.310179 0.106257 0.594327 -0.138113
C44   C     C_R   0.689818 0.893732 0.405672 -0.138118
C45   C     C_R   0.162524 0.647727 0.407084 -0.124357
C46   C     C_R   0.837455 0.352284 0.592919 -0.124382
C47   C     C_R   0.835262 0.646165 0.595028 -0.116791
C48   C     C_R   0.164738 0.353835 0.404973 -0.116789
C49   C     C_R   0.557548 0.144799 0.245032 -0.146200
C50   C     C_R   0.833428 0.611320 0.802648 -0.125285
C51   C     C_R   0.442450 0.855203 0.754974 -0.146195
C52   C     C_R   0.442444 0.145059 0.755030 -0.145550
C53   C     C_R   0.557556 0.854941 0.244969 -0.145552
C54   C     C_R   0.078235 0.607565 0.195956 -0.154918
C55   C     C_R   0.921765 0.392433 0.804043 -0.154921
C56   C     C_R   0.921661 0.607672 0.804309 -0.153016
C57   C     C_R   0.078338 0.392325 0.195693 -0.153005
C58   C     C_R   0.386782 0.191274 0.782845 0.145896
C59   C     C_R   0.613217 0.808726 0.217155 0.145895
C60   C     C_R   0.613294 0.190824 0.217107 0.145601
C61   C     C_R   0.166572 0.388679 0.197352 -0.125284
C62   C     C_R   0.386702 0.809179 0.782902 0.145599
C63   C     C_R   0.851547 0.627643 0.867624 0.149662
C64   C     C_R   0.148452 0.372354 0.132377 0.149656
C65   C     C_R   0.148304 0.627508 0.132820 0.151263
C66   C     C_R   0.851697 0.372487 0.867177 0.151261
C67   C     C_R   0.681767 0.123766 0.499647 0.069391
C68   C     C_R   0.318241 0.876201 0.500352 0.069382
C69   C     C_R   0.317772 0.123967 0.501745 0.069414
C70   C     C_R   0.682222 0.876014 0.498255 0.069415
C71   C     C_R   0.138542 0.690990 0.501253 0.045942
C72   C     C_R   0.166498 0.611145 0.197608 -0.128012
C73   C     C_R   0.861434 0.309027 0.498748 0.045976
C74   C     C_R   0.859649 0.690665 0.502401 0.046152
C75   C     C_R   0.140351 0.309336 0.497601 0.046152
C76   C     C_3   0.285279 0.245470 0.449772 -0.206799
C77   C     C_3   0.714704 0.754529 0.550289 -0.206803
C78   C     C_3   0.719459 0.190146 0.606083 -0.223229
C79   C     C_3   0.280543 0.809832 0.393915 -0.223236
C80   C     C_3   0.836793 0.832476 0.450419 -0.197990
C81   C     C_3   0.163217 0.167505 0.549524 -0.197984
C82   C     C_3   0.166720 0.778225 0.608523 -0.232251
C83   C     C_R   0.833503 0.388851 0.802388 -0.128003
C84   C     C_3   0.833272 0.221774 0.391475 -0.232263
C85   C     C_3   0.762945 0.860919 0.555227 0.124664
C86   C     C_3   0.237078 0.139094 0.444723 0.124667
C87   C     C_3   0.191628 0.861491 0.555551 0.124854
C88   C     C_3   0.808383 0.138504 0.444440 0.124853
C89   C     C_3   0.212819 0.273163 0.554135 0.120829
C90   C     C_3   0.787150 0.726804 0.445920 0.120819
C91   C     C_3   0.743895 0.272819 0.552790 0.121379
C92   C     C_3   0.256087 0.727163 0.447215 0.121394
C93   C     C_3   0.733664 0.837721 0.498007 0.110389
C94   C     C_3   0.255512 0.222436 0.391827 -0.231746
C95   C     C_3   0.266330 0.162262 0.501994 0.110379
C96   C     C_3   0.266834 0.838073 0.500242 0.110298
C97   C     C_3   0.733171 0.161897 0.499757 0.110302
C98   C     C_3   0.182735 0.250908 0.497285 0.108395
C99   C     C_3   0.817264 0.749090 0.502718 0.108402
C100  C     C_3   0.819574 0.250400 0.497932 0.108041
C101  C     C_3   0.180413 0.749606 0.502067 0.108049
C102  C     C_1   0.746556 0.935308 0.617267 0.015288
C103  C     C_1   0.253489 0.064726 0.382634 0.015268
C104  C     C_1   0.157623 0.935904 0.617305 0.014712
H1    H     H_    0.307743 0.164661 0.763729 0.091804
H2    H     H_    0.406985 0.893491 0.320913 0.089740
H3    H     H_    0.406094 0.107110 0.321881 0.098078
H4    H     H_    0.593904 0.892881 0.678118 0.098072
H5    H     H_    0.060246 0.661434 0.681394 0.094387
H6    H     H_    0.939737 0.338578 0.318603 0.094385
H7    H     H_    0.940124 0.664315 0.321177 0.102172
H8    H     H_    0.059873 0.335685 0.678824 0.102178
H9    H     H_    0.738054 0.105152 0.320173 0.099489
H10   H     H_    0.261949 0.894829 0.679826 0.099487
H11   H     H_    0.262104 0.104991 0.680786 0.091846
H12   H     H_    0.692257 0.835339 0.236270 0.091800
H13   H     H_    0.737894 0.894998 0.319214 0.091844
H14   H     H_    0.205079 0.662947 0.320583 0.101590
H15   H     H_    0.794899 0.337066 0.679421 0.101589
H16   H     H_    0.791899 0.659601 0.681952 0.093719
H17   H     H_    0.208100 0.340398 0.318049 0.093717
H18   H     H_    0.521140 0.160417 0.232260 0.099199
H19   H     H_    0.478857 0.839586 0.767747 0.099197
H20   H     H_    0.478829 0.160774 0.767838 0.100075
H21   H     H_    0.521172 0.839226 0.232159 0.100073
H22   H     H_    0.050250 0.602644 0.164746 0.095404
H23   H     H_    0.692269 0.164264 0.236423 0.091047
H24   H     H_    0.949750 0.397354 0.835254 0.095408
H25   H     H_    0.949558 0.602567 0.835630 0.093856
H26   H     H_    0.050440 0.397429 0.164372 0.093856
H27   H     H_    0.335615 0.276963 0.409917 0.130331
H28   H     H_    0.664356 0.723043 0.590193 0.130319
H29   H     H_    0.672279 0.177279 0.694080 0.123074
H30   H     H_    0.327727 0.822689 0.305918 0.123074
H31   H     H_    0.887410 0.862883 0.411303 0.133873
H32   H     H_    0.112613 0.137090 0.588590 0.133872
H33   H     H_    0.119521 0.766126 0.696785 0.120821
H34   H     H_    0.307726 0.835739 0.763588 0.091047
H35   H     H_    0.880466 0.233882 0.303213 0.120824
H36   H     H_    0.280400 0.234882 0.303346 0.121759
H37   H     H_    0.719629 0.765180 0.696668 0.121754
H38   H     H_    0.814439 0.136619 0.590551 0.134698
H39   H     H_    0.185578 0.863397 0.409434 0.134696
H40   H     H_    0.830791 0.822715 0.304482 0.122929
H41   H     H_    0.169178 0.177200 0.695506 0.122951
H42   H     H_    0.260198 0.723512 0.593681 0.128270
H43   H     H_    0.739779 0.276450 0.406329 0.128271
H44   H     H_    0.295870 0.707024 0.806954 0.127605
H45   H     H_    0.781064 0.609251 0.830141 0.080423
H46   H     H_    0.704134 0.292973 0.193041 0.127604
H47   H     H_    0.703021 0.705898 0.194990 0.131041
H48   H     H_    0.296981 0.294101 0.805008 0.131047
H49   H     H_    0.711585 0.387705 0.014459 0.125053
H50   H     H_    0.288415 0.612289 0.985537 0.125053
H51   H     H_    0.288279 0.389580 0.984901 0.124898
H52   H     H_    0.711720 0.610421 0.015098 0.124897
H53   H     H_    0.379086 0.717321 0.890044 0.130018
H54   H     H_    0.620907 0.282686 0.109972 0.130017
H55   H     H_    0.621079 0.716346 0.109717 0.130020
H56   H     H_    0.218936 0.390747 0.169859 0.080425
H57   H     H_    0.378918 0.283654 0.890286 0.130025
H58   H     H_    0.824545 0.321191 0.020064 0.129225
H59   H     H_    0.175457 0.678805 0.979933 0.129225
H60   H     H_    0.176051 0.320909 0.978848 0.130429
H61   H     H_    0.823948 0.679084 0.021155 0.130423
H62   H     H_    0.218834 0.609133 0.170259 0.082476
H63   H     H_    0.781167 0.390860 0.829737 0.082475
H64   H     H_    0.593017 0.106492 0.679087 0.089738
N1    N     N_R   0.389620 0.081040 0.705440 -0.047200
N2    N     N_R   0.417680 0.920160 0.443370 -0.037377
N3    N     N_R   0.417680 0.079840 0.443370 -0.036434
N4    N     N_R   0.582320 0.920160 0.556630 -0.036431
N5    N     N_R   0.082320 0.579840 0.556630 -0.041695
N6    N     N_R   0.917680 0.420160 0.443370 -0.041692
N7    N     N_R   0.917680 0.579840 0.443370 -0.041133
N8    N     N_R   0.082320 0.420160 0.556630 -0.041134
N9    N     N_R   0.627920 0.078930 0.443400 -0.036974
N10   N     N_R   0.372080 0.921070 0.556600 -0.036973
N11   N     N_R   0.372080 0.078930 0.556600 -0.037698
N12   N     N_R   0.610380 0.918960 0.294560 -0.047200
N13   N     N_R   0.627920 0.921070 0.443400 -0.037694
N14   N     N_R   0.127920 0.578930 0.443400 -0.041964
N15   N     N_R   0.872080 0.421070 0.556600 -0.041961
N16   N     N_R   0.872080 0.578930 0.556600 -0.042413
N17   N     N_R   0.127920 0.421070 0.443400 -0.042414
N18   N     N_R   0.555090 0.077730 0.294590 -0.043392
N19   N     N_R   0.444910 0.922270 0.705410 -0.043391
N20   N     N_R   0.444910 0.077730 0.705410 -0.043887
N21   N     N_R   0.555090 0.922270 0.294590 -0.043886
N22   N     N_R   0.055090 0.577730 0.294590 -0.039985
N23   N     N_R   0.610380 0.081040 0.294560 -0.046895
N24   N     N_R   0.944910 0.422270 0.705410 -0.039986
N25   N     N_R   0.944910 0.577730 0.705410 -0.040123
N26   N     N_R   0.055090 0.422270 0.294590 -0.040125
N27   N     N_1   0.733181 0.993764 0.666937 -0.099572
N28   N     N_1   0.266879 0.006286 0.332926 -0.099570
N29   N     N_1   0.130639 0.994379 0.666770 -0.100225
N30   N     N_1   0.869401 0.005628 0.333214 -0.100226
N31   N     N_1   0.193318 0.405579 0.661146 -0.090580
N32   N     N_1   0.806595 0.594335 0.339026 -0.090562
N33   N     N_1   0.676733 0.405409 0.658872 -0.091460
N34   N     N_R   0.389620 0.918960 0.705440 -0.046895
N35   N     N_1   0.323221 0.594559 0.341146 -0.091464
N36   N     N_R   0.889620 0.581040 0.705440 -0.043932
N37   N     N_R   0.110380 0.418960 0.294560 -0.043933
N38   N     N_R   0.110380 0.581040 0.294560 -0.043865
N39   N     N_R   0.889620 0.418960 0.705440 -0.043866
N40   N     N_R   0.582320 0.079840 0.556630 -0.037379
Ni1   Ni    Ni4+2 0.382970 0.000000 0.629840 0.212122
Ni2   Ni    Ni4+2 0.617030 0.000000 0.370160 0.212120
Ni3   Ni    Ni4+2 0.882970 0.500000 0.629840 0.211757
Ni4   Ni    Ni4+2 0.117030 0.500000 0.370160 0.211758
Ni5   Ni    Ni4+2 0.514540 0.000000 0.629840 0.210198
Ni6   Ni    Ni4+2 0.485460 0.000000 0.370160 0.210199
Ni7   Ni    Ni4+2 0.014540 0.500000 0.629840 0.212687
Ni8   Ni    Ni4+2 0.985460 0.500000 0.370160 0.212687

loop_
_geom_bond_atom_site_label_1
_geom_bond_atom_site_label_2
_ccdc_geom_bond_type
C45   H14   S    
C25   C31   S    
C73   C100  S    
C42   C68   A    
N19   Ni5   S    
N40   Ni5   S    
C50   C63   A    
C45   C71   A    
C94   H36   S    
C104  N29   T    
C18   C26   D    
C24   C27   S    
C102  N27   T    
C9    H39   S    
N8    N17   A    
C41   C67   A    
C54   C65   A    
C11   C81   S    
C54   H22   S    
N19   N34   A    
C43   N11   A    
C68   C96   S    
N25   N36   A    
N16   Ni3   S    
C25   H48   S    
C34   H3    S    
C23   C29   S    
C20   C66   S    
C26   H47   S    
N5    Ni7   S    
C15   H53   S    
C82   H33   S    
N12   N21   A    
C76   C95   S    
N26   Ni8   S    
C76   H27   S    
C81   C98   S    
C33   N2    A    
N15   Ni3   S    
C6    C91   S    
N18   Ni6   S    
C3    N30   T    
C21   H61   S    
C2    C85   S    
C9    C79   S    
C12   H42   S    
N18   N23   A    
N26   N37   A    
C83   N39   A    
C35   H4    S    
C86   C94   S    
C76   C94   S    
C66   C83   A    
N3    Ni6   S    
C85   C93   S    
N4    N13   A    
C42   H10   S    
C4    N31   T    
C49   N18   A    
C84   H35   S    
C7    N35   T    
C44   C70   A    
C18   H55   S    
C91   C100  S    
C32   N40   A    
C19   C27   D    
N24   Ni7   S    
C56   H25   S    
C28   H23   S    
C76   C89   S    
C53   H21   S    
C43   H11   S    
C27   H50   S    
C30   H52   S    
C37   N6    A    
C39   H34   S    
C20   H58   S    
C36   N5    A    
C43   C69   A    
C13   C91   S    
N39   Ni3   S    
C35   N4    A    
C48   C75   A    
N3    N11   A    
C51   C62   A    
C80   H31   S    
C86   C103  S    
C14   C23   D    
N22   N38   A    
C45   N14   A    
N25   Ni7   S    
C5    N32   T    
C20   C29   D    
C28   C60   A    
N21   Ni6   S    
C53   C59   A    
C77   C90   S    
N8    Ni7   S    
C22   C31   D    
C17   H12   S    
C84   C100  S    
C57   H26   S    
C8    C78   S    
C70   C93   S    
C51   H19   S    
C35   C70   A    
C6    N33   T    
C40   H8    S    
C24   H44   S    
C61   H56   S    
C48   H17   S    
C40   N8    A    
C10   C80   S    
C11   H41   S    
C5    C90   S    
C72   N38   A    
C1    N1    A    
C10   C93   S    
C89   C98   S    
C83   H63   S    
C85   C102  S    
C75   C98   S    
C56   N25   A    
N10   Ni1   S    
N13   Ni2   S    
C8    C88   S    
C77   H28   S    
N9    Ni2   S    
C61   C64   A    
C40   C75   A    
C80   C85   S    
C71   C101  S    
C22   H60   S    
C11   C89   S    
C81   H32   S    
C13   C84   S    
N1    Ni1   S    
C87   C96   S    
C47   C74   A    
C78   C97   S    
N14   Ni4   S    
C79   C92   S    
N17   Ni4   S    
C12   C82   S    
C19   H59   S    
N12   Ni2   S    
C49   C60   A    
C34   C69   A    
C37   H6    S    
C52   C58   A    
C92   C101  S    
C17   C59   A    
C32   C67   A    
C17   N12   A    
C47   H16   S    
C23   H46   S    
C14   H54   S    
C2    C99   S    
C26   C30   S    
C16   C58   S    
C32   H64   S    
C80   C99   S    
C16   H57   S    
N24   N39   A    
C103  N28   T    
C13   H43   S    
N34   Ni1   S    
C49   H18   S    
N4    Ni5   S    
C28   N23   A    
C90   C99   S    
C55   C66   A    
C57   C64   A    
C29   H49   S    
C4    C89   S    
C38   C74   A    
C41   N9    A    
C16   C25   D    
C79   H30   S    
C37   C73   A    
C15   C24   D    
C54   N22   A    
C3    C88   S    
C10   H40   S    
C72   H62   S    
C12   C92   S    
C33   H2    S    
C84   C88   S    
N1    N20   A    
C41   H9    S    
C47   N16   A    
C69   C95   S    
C46   N15   A    
N6    N15   A    
N5    N14   A    
C31   H51   S    
N20   Ni5   S    
C36   C71   A    
C82   C101  S    
C74   C99   S    
N2    Ni6   S    
C50   N36   A    
C78   C91   S    
C65   C72   A    
C14   C60   S    
C21   C30   D    
N11   Ni1   S    
N37   Ni4   S    
N9    N40   A    
C57   N26   A    
C81   C86   S    
C55   N24   A    
C8    C100  S    
C88   C97   S    
C48   N17   A    
C2    C77   S    
C1    C58   A    
N7    Ni8   S    
C52   H20   S    
C50   H45   S    
C38   N7    A    
N22   Ni8   S    
C44   H13   S    
C42   N10   A    
C7    C92   S    
C56   C63   A    
N36   Ni3   S    
C77   C93   S    
C15   C62   S    
C46   H15   S    
C19   C65   S    
N6    Ni8   S    
C13   C97   S    
C78   H29   S    
C21   C63   S    
C51   N19   A    
C86   C95   S    
C67   C97   S    
N23   Ni2   S    
C22   C64   S    
C87   C104  S    
N38   Ni4   S    
C18   C59   S    
C79   C96   S    
C11   C95   S    
C55   H24   S    
C10   C90   S    
C9    C101  S    
C39   N34   A    
C61   N37   A    
C36   H5    S    
C39   C62   A    
C2    H37   S    
C94   C98   S    
C12   C96   S    
C8    H38   S    
C52   N20   A    
C38   H7    S    
C53   N21   A    
C44   N13   A    
C46   C73   A    
C9    C87   S    
C34   N3    A    
C82   C87   S    
C33   C68   A    
C1    H1    S    
N7    N16   A    
N2    N10   A    
