data_mof_unit_54223.cif
_audit_creation_date              2013-03-05T16:09:06-0500
_audit_creation_method            fapswitch 2.2
_symmetry_space_group_name_H-M    P1
_symmetry_Int_Tables_number       1
_space_group_crystal_system       triclinic
_cell_length_a                    18.260236
_cell_length_b                    7.114444
_cell_length_c                    13.109893
_cell_angle_alpha                 90.529735
_cell_angle_beta                  71.681358
_cell_angle_gamma                 89.234983
_cell_volume                      1616.50987152

loop_
_atom_site_label
_atom_site_type_symbol
_atom_site_description
_atom_site_fract_x
_atom_site_fract_y
_atom_site_fract_z
_atom_type_partial_charge
O1    O     O_R   0.453880 0.506200 0.150010 -0.595290
O2    O     O_R   0.546120 0.006200 0.849990 -0.588225
O3    O     O_R   0.604080 0.177770 0.007280 -0.592422
O4    O     O_R   0.395920 0.677770 0.992720 -0.592491
C1    C     C_R   0.635947 0.343809 0.001883 0.981470
C2    C     C_R   0.364110 0.845279 0.998041 0.981214
O5    O     O_R   0.458010 0.176640 0.159130 -0.594420
O6    O     O_R   0.541990 0.676640 0.840870 -0.598953
O7    O     O_R   0.399010 0.004010 0.002930 -0.590309
O8    O     O_R   0.600990 0.504010 0.997070 -0.588495
C3    C     C_R   0.441935 0.346513 0.201060 0.977008
C4    C     C_R   0.558876 0.844113 0.799113 0.978954
O9    O     O_3   0.480810 0.338440 0.948570 -0.287849
O10   O     O_3   0.519190 0.838440 0.051430 -0.283487
V1    V     V_3+5 0.503560 0.064490 0.009540 1.173418
V2    V     V_3+5 0.496440 0.564490 0.990460 1.171251
C5    C     C_R   0.570092 0.926037 0.509721 0.272649
C6    C     C_R   0.422568 0.436444 0.492927 0.268596
C7    C     C_R   0.587904 0.854292 0.681951 -0.183789
C8    C     C_R   0.410005 0.361913 0.318068 -0.177585
C9    C     C_R   0.945439 0.801956 0.381622 0.330188
C10   C     C_R   0.050420 0.318474 0.615502 0.304038
C11   C     C_R   0.909217 0.738737 0.485193 -0.121493
C12   C     C_R   0.085301 0.299271 0.505066 -0.100879
C13   C     C_R   0.829474 0.741898 0.528419 -0.156838
C14   C     C_R   0.164436 0.314810 0.459390 -0.126516
C15   C     C_R   0.781803 0.819455 0.472104 0.083554
C16   C     C_R   0.213320 0.342557 0.523072 0.072456
C17   C     C_R   0.817389 0.881591 0.365280 -0.023578
C18   C     C_R   0.179278 0.355245 0.637036 -0.024019
C19   C     C_R   0.699875 0.840225 0.520461 0.025894
C20   C     C_R   0.295122 0.359112 0.476068 0.025863
C21   C     C_R   0.651644 0.889803 0.456983 -0.028454
C22   C     C_R   0.340758 0.417435 0.540615 -0.028334
C23   C     C_R   0.689060 0.917223 0.345060 0.248846
C24   C     C_R   0.303154 0.451157 0.651451 0.266521
C25   C     C_R   0.768485 0.952512 0.308565 0.168770
C26   C     C_R   0.229171 0.382573 0.700206 0.167198
C27   C     C_R   0.665646 0.818580 0.631744 -0.255423
C28   C     C_R   0.332392 0.323631 0.365833 -0.259953
C29   C     C_R   0.539602 0.914617 0.623776 0.254817
C30   C     C_R   0.455646 0.422375 0.379907 0.264139
C31   C     C_R   0.899915 0.863840 0.318510 -0.310575
C32   C     C_R   0.096873 0.348511 0.682359 -0.312350
H1    H     H_    0.699052 0.787427 0.684352 0.132234
H2    H     H_    0.302413 0.268645 0.313480 0.133315
H3    H     H_    0.807027 0.678889 0.606211 0.157072
H4    H     H_    0.184970 0.310167 0.372932 0.152872
H5    H     H_    0.943109 0.683804 0.533148 0.187775
H6    H     H_    0.050345 0.278705 0.452791 0.187973
C33   C     C_1   0.216387 0.857770 0.999920 -0.205987
C34   C     C_1   0.783740 0.359921 0.999237 -0.197360
C35   C     C_1   0.283681 0.853591 0.998769 -0.223544
C36   C     C_1   0.716453 0.351751 0.000733 -0.234870
O11   O     O_R   0.899030 0.205490 0.002790 -0.600134
O12   O     O_R   0.100970 0.705490 0.997210 -0.602286
O13   O     O_R   0.042000 0.536370 0.840840 -0.581635
O14   O     O_R   0.958000 0.036370 0.159160 -0.578406
C37   C     C_R   0.058406 0.366181 0.798618 1.061525
C38   C     C_R   0.938095 0.870324 0.201090 1.039842
O15   O     O_R   0.895930 0.535070 0.992690 -0.587626
O16   O     O_R   0.104070 0.035070 0.007310 -0.583734
O17   O     O_R   0.953870 0.707520 0.150040 -0.603582
O18   O     O_R   0.046130 0.207520 0.849960 -0.605539
C39   C     C_R   0.864208 0.367524 0.998344 1.029878
C40   C     C_R   0.135869 0.865983 0.001074 1.020451
O19   O     O_3   0.019200 0.374340 0.051340 -0.282668
O20   O     O_3   0.980800 0.874340 0.948660 -0.283104
V3    V     V_3+5 0.996440 0.648350 0.990470 1.211699
V4    V     V_3+5 0.003560 0.148350 0.009530 1.204045
C41   C     C_3   0.456959 0.970541 0.688776 -1.017942
H7    H     H_    0.415337 0.984294 0.644107 0.256598
H8    H     H_    0.432283 0.863537 0.750509 0.229728
H9    H     H_    0.457203 0.105134 0.731905 0.263340
C42   C     C_3   0.539746 0.464653 0.323102 -1.067832
H10   H     H_    0.569272 0.530993 0.375758 0.278464
H11   H     H_    0.572150 0.335808 0.285961 0.235316
H12   H     H_    0.543362 0.562511 0.256825 0.260232
C43   C     C_3   0.651742 0.889668 0.257778 -0.957775
H13   H     H_    0.690725 0.804934 0.190288 0.253902
H14   H     H_    0.598880 0.810105 0.285472 0.262193
H15   H     H_    0.639064 0.025468 0.225492 0.244967
C44   C     C_3   0.330713 0.598206 0.713854 -0.999509
H16   H     H_    0.281182 0.680488 0.767683 0.251626
H17   H     H_    0.363154 0.535019 0.764073 0.259329
H18   H     H_    0.365627 0.700011 0.657021 0.268570
C45   C     C_3   0.516356 0.987738 0.448237 -0.987523
H19   H     H_    0.545550 0.080156 0.382196 0.266791
H20   H     H_    0.491419 0.863672 0.420295 0.262436
H21   H     H_    0.468225 0.078641 0.493919 0.263890
C46   C     C_3   0.476206 0.441637 0.560895 -0.986440
H22   H     H_    0.450902 0.371416 0.638352 0.262400
H23   H     H_    0.530591 0.361378 0.522918 0.269858
H24   H     H_    0.490613 0.587981 0.573901 0.268522
N1    N     N_R   0.028569 0.796920 0.340197 0.226865
O21   O     O_R   0.068051 0.678647 0.378236 -0.420854
O22   O     O_R   0.065425 0.925248 0.274559 -0.426175
N2    N     N_R   0.967589 0.308189 0.658080 0.220564
O23   O     O_R   0.930206 0.200712 0.611335 -0.403294
O24   O     O_R   0.928500 0.423849 0.733639 -0.440920
C47   C     C_3   0.796506 0.082828 0.215161 -0.913785
H25   H     H_    0.749260 0.172257 0.204792 0.230382
H26   H     H_    0.836610 0.186063 0.231152 0.253800
H27   H     H_    0.821529 0.998494 0.140541 0.255125
C48   C     C_3   0.210114 0.326235 0.816595 -0.913913
H28   H     H_    0.262707 0.314414 0.841653 0.247468
H29   H     H_    0.171422 0.430929 0.870976 0.257232
H30   H     H_    0.185509 0.183686 0.826754 0.243041

loop_
_geom_bond_atom_site_label_1
_geom_bond_atom_site_label_2
_geom_bond_distance
_ccdc_geom_bond_type
C33   C35   1.224113 T    
C45   H19   1.093541 S    
C47   H25   1.108255 S    
C10   N2    1.441393 S    
C15   C17   1.423378 A    
N1    O21   1.301554 A    
O1    C3    1.309613 A    
O2    C4    1.307612 A    
C2    O7    1.314944 A    
O5    C3    1.313674 A    
C48   H29   1.105316 S    
C18   C26   1.424679 A    
C37   O18   1.305150 A    
C38   O17   1.314543 A    
C6    C46   1.517777 S    
C23   C25   1.403971 A    
C12   C14   1.385805 A    
C6    C30   1.415374 A    
C8    C28   1.389403 A    
C11   H5    1.083344 S    
C24   C44   1.507997 S    
O14   C38   1.314408 A    
O16   V4    1.986279 S    
C41   H9    1.108297 S    
C9    C31   1.413771 A    
C10   C32   1.414974 A    
O17   V3    2.027432 S    
C19   C27   1.405811 A    
O20   V3    1.751980 S    
C19   C21   1.431938 A    
O18   V4    2.039734 S    
C13   H3    1.076864 S    
C14   H4    1.076200 S    
C27   H1    1.077292 S    
O5    V1    2.025431 S    
O6    V2    2.048338 S    
C17   C31   1.440652 A    
C18   C32   1.435277 A    
C5    C21   1.449596 A    
O11   C39   1.319690 A    
C34   C36   1.224825 T    
C12   H6    1.083559 S    
C48   H30   1.106870 S    
C3    C8    1.462183 S    
O16   C40   1.319336 A    
C15   C19   1.434575 A    
C1    C36   1.467245 S    
C16   C20   1.432563 A    
O4    C2    1.310346 A    
C46   H22   1.102199 S    
C41   H8    1.108547 S    
O14   V4    2.048308 S    
C9    N1    1.442372 S    
O19   V3    2.196682 S    
C33   C40   1.465962 S    
C20   C22   1.424312 A    
O4    V2    1.986302 S    
C28   H2    1.077368 S    
C42   H10   1.106660 S    
C46   H23   1.108572 S    
C42   H11   1.106179 S    
C44   H16   1.111630 S    
O6    C4    1.315347 A    
C30   C42   1.516894 S    
O1    V2    2.038112 S    
O2    V1    2.025983 S    
C6    C22   1.435498 A    
C7    C27   1.383104 A    
C31   C38   1.478309 S    
O20   V4    2.193434 S    
C44   H17   1.109033 S    
N2    O23   1.301695 A    
C47   H27   1.107519 S    
N2    O24   1.301002 A    
C9    C11   1.392152 A    
C10   C12   1.390981 A    
C45   H21   1.093680 S    
C2    C35   1.466070 S    
C20   C28   1.409187 A    
O3    V1    2.006310 S    
C43   H14   1.087235 S    
O15   V3    2.006285 S    
C5    C45   1.515727 S    
O3    C1    1.316450 A    
C43   H15   1.108766 S    
C8    C30   1.401674 A    
N1    O22   1.301469 A    
C13   C15   1.416310 A    
C48   H28   1.110846 S    
C14   C16   1.415246 A    
C29   C41   1.526794 S    
O19   V4    1.749676 S    
C26   C48   1.513667 S    
C24   C26   1.397228 A    
O7    V1    1.990622 S    
C41   H7    1.099541 S    
O8    V2    1.979923 S    
C46   H24   1.102049 S    
C25   C47   1.503540 S    
O12   C40   1.323284 A    
C4    C7    1.461763 S    
C23   C43   1.517117 S    
C21   C23   1.427070 A    
C16   C18   1.427918 A    
C22   C24   1.415056 A    
C11   C13   1.386422 A    
C42   H12   1.104704 S    
C5    C29   1.425654 A    
O11   V4    1.975430 S    
O13   C37   1.317517 A    
C43   H13   1.111632 S    
O15   C39   1.324749 A    
C1    O8    1.310595 A    
C44   H18   1.099954 S    
C47   H26   1.108009 S    
O12   V3    1.985558 S    
O9    V2    1.750393 S    
C17   C25   1.420249 A    
C45   H20   1.109168 S    
O10   V1    1.752718 S    
C32   C37   1.467422 S    
O13   V3    2.025429 S    
C34   C39   1.467454 S    
C7    C29   1.400926 A    
