data_mof_unit_60878.cif
_audit_creation_date              2012-12-10T19:18:36-0500
_audit_creation_method            fapswitch 2.2
_symmetry_space_group_name_H-M    P1
_symmetry_Int_Tables_number       1
_space_group_crystal_system       triclinic
_cell_length_a                    24.472439
_cell_length_b                    24.472435
_cell_length_c                    36.265493
_cell_angle_alpha                 90.00828
_cell_angle_beta                  90.008287
_cell_angle_gamma                 90.010694
_cell_volume                      21719.4091891

loop_
_atom_site_label
_atom_site_type_symbol
_atom_type_description
_atom_site_fract_x
_atom_site_fract_y
_atom_site_fract_z
_atom_type_partial_charge
C1    C     C_R   0.728596 0.228663 0.249975 0.117057
C2    C     C_R   0.271325 0.228675 0.250000 0.114908
C3    C     C_R   0.723862 0.807539 0.220119 -0.181933
C4    C     C_R   0.806280 0.277505 0.780490 -0.185233
C5    C     C_R   0.177219 0.739178 0.234393 -0.186297
C6    C     C_R   0.739727 0.823407 0.764502 -0.183492
C7    C     C_R   0.276163 0.192483 0.220102 -0.183370
C8    C     C_R   0.176593 0.260272 0.235498 -0.183477
C9    C     C_R   0.807517 0.723837 0.779898 -0.183355
C10   C     C_R   0.277429 0.806322 0.219547 -0.185237
C11   C     C_R   0.739169 0.177256 0.765644 -0.186140
C12   C     C_R   0.823422 0.739739 0.235537 -0.181869
C13   C     C_R   0.771361 0.271381 0.750009 0.117225
C14   C     C_R   0.176585 0.260266 0.764475 -0.181925
C15   C     C_R   0.722483 0.193731 0.219500 -0.185142
C16   C     C_R   0.260845 0.822751 0.765636 -0.186224
C17   C     C_R   0.653173 0.182626 0.280324 -0.191516
C18   C     C_R   0.362837 0.801192 0.734126 -0.194252
C19   C     C_R   0.800620 0.636495 0.264717 -0.190550
C20   C     C_R   0.199373 0.363496 0.735269 -0.189571
C21   C     C_R   0.346778 0.817459 0.280363 -0.194019
C22   C     C_R   0.637165 0.198788 0.734128 -0.192156
C23   C     C_R   0.199366 0.363489 0.264757 -0.193745
C24   C     C_R   0.228698 0.728741 0.250021 0.115216
C25   C     C_R   0.816119 0.651997 0.720239 -0.192616
C26   C     C_R   0.636512 0.800634 0.735242 -0.193783
C27   C     C_R   0.348004 0.183881 0.279761 -0.192657
C28   C     C_R   0.817400 0.346807 0.719662 -0.191517
C29   C     C_R   0.198804 0.637170 0.265872 -0.194239
C30   C     C_R   0.348025 0.183902 0.720256 -0.191200
C31   C     C_R   0.651974 0.816094 0.279743 -0.189799
C32   C     C_R   0.182546 0.653217 0.719643 -0.195333
C33   C     C_R   0.801194 0.362860 0.265847 -0.193152
C34   C     C_R   0.153195 0.682598 0.780339 -0.191519
C35   C     C_R   0.271325 0.228675 0.750000 0.114255
C36   C     C_R   0.862829 0.301197 0.234127 -0.194248
C37   C     C_R   0.316098 0.151975 0.779744 -0.191199
C38   C     C_R   0.683905 0.848025 0.220256 -0.189796
C39   C     C_R   0.846782 0.317455 0.780358 -0.195323
C40   C     C_R   0.137142 0.698804 0.234152 -0.193140
C41   C     C_R   0.699366 0.863489 0.764757 -0.193778
C42   C     C_R   0.316119 0.151996 0.220239 -0.192655
C43   C     C_R   0.136511 0.300633 0.235243 -0.193738
C44   C     C_R   0.848003 0.683881 0.779761 -0.192613
C45   C     C_R   0.317377 0.846825 0.219674 -0.191519
C46   C     C_R   0.728676 0.771323 0.249999 0.113874
C47   C     C_R   0.698807 0.137164 0.765876 -0.194260
C48   C     C_R   0.863504 0.699379 0.235282 -0.190550
C49   C     C_R   0.136504 0.300627 0.764731 -0.189571
C50   C     C_R   0.682539 0.153223 0.219636 -0.194006
C51   C     C_R   0.301213 0.862834 0.765873 -0.192143
C52   C     C_R   0.647513 0.147564 0.249986 0.004229
C53   C     C_R   0.352407 0.852393 0.750000 0.002011
C54   C     C_R   0.852430 0.647570 0.250000 0.001728
C55   C     C_R   0.147571 0.352429 0.750000 0.000541
C56   C     C_R   0.352437 0.852486 0.250013 0.004241
C57   C     C_R   0.228621 0.728636 0.749993 0.117230
C58   C     C_R   0.647606 0.147594 0.750001 0.002013
C59   C     C_R   0.147572 0.352428 0.250000 0.002868
C60   C     C_R   0.852428 0.647571 0.750000 0.002575
C61   C     C_R   0.647572 0.852428 0.750000 0.002895
C62   C     C_R   0.352428 0.147571 0.250000 0.002591
C63   C     C_R   0.852446 0.352478 0.750008 0.004298
C64   C     C_R   0.147597 0.647602 0.250008 0.002610
C65   C     C_R   0.352429 0.147571 0.750000 0.000659
C66   C     C_R   0.647571 0.852428 0.250000 0.000426
C67   C     C_R   0.147523 0.647553 0.749993 0.004308
C68   C     C_R   0.771256 0.271304 0.249976 0.115219
C69   C     C_R   0.852397 0.352404 0.249991 0.002613
C70   C     C_R   0.584452 0.058323 0.040125 0.142757
C71   C     C_R   0.571728 0.104938 0.061032 -0.161506
C72   C     C_R   0.612681 0.132212 0.080636 -0.137657
C73   C     C_R   0.666516 0.113239 0.079428 -0.108734
C74   C     C_R   0.679485 0.066950 0.058608 -0.134677
C75   C     C_R   0.638630 0.039478 0.039035 -0.128465
C76   C     C_R   0.415535 0.941700 0.959959 0.142686
C77   C     C_R   0.428239 0.894990 0.939148 -0.163108
C78   C     C_R   0.387231 0.867526 0.919719 -0.134612
C79   C     C_1   0.499937 0.000266 0.111757 -0.134533
C80   C     C_R   0.333369 0.886418 0.921000 -0.104545
C81   C     C_R   0.320432 0.932829 0.941703 -0.136660
C82   C     C_R   0.361338 0.960481 0.961109 -0.128479
C83   C     C_R   0.058559 0.584290 0.040039 0.142460
C84   C     C_R   0.105232 0.571444 0.060848 -0.163301
C85   C     C_R   0.132824 0.612368 0.080274 -0.134574
C86   C     C_R   0.114098 0.666288 0.078993 -0.104710
C87   C     C_R   0.067724 0.679367 0.058293 -0.136158
C88   C     C_R   0.039945 0.638545 0.038889 -0.127600
C89   C     C_R   0.941422 0.415722 0.959876 0.142534
C90   C     C_1   0.500064 0.999747 0.888262 -0.133650
C91   C     C_R   0.894843 0.428587 0.938972 -0.161710
C92   C     C_R   0.867443 0.387716 0.919369 -0.137567
C93   C     C_R   0.886253 0.333823 0.920577 -0.108965
C94   C     C_R   0.932505 0.320715 0.941395 -0.134228
C95   C     C_R   0.960103 0.361487 0.960966 -0.127576
C96   C     C_R   0.415321 0.942276 0.040247 0.136826
C97   C     C_R   0.413397 0.884942 0.039165 -0.132484
C98   C     C_R   0.373173 0.856717 0.058833 -0.137540
C99   C     C_R   0.334776 0.885486 0.079742 -0.116076
C100  C     C_R   0.336453 0.942549 0.080938 -0.129558
C101  C     C_1   0.000257 0.499935 0.111738 -0.132937
C102  C     C_R   0.376523 0.970936 0.061237 -0.153190
C103  C     C_R   0.584767 0.057672 0.959831 0.136227
C104  C     C_R   0.623602 0.028917 0.938935 -0.153877
C105  C     C_R   0.663933 0.057201 0.919411 -0.127690
C106  C     C_R   0.665824 0.114253 0.920688 -0.111328
C107  C     C_R   0.627361 0.143119 0.941480 -0.138219
C108  C     C_R   0.586882 0.114997 0.960973 -0.132752
C109  C     C_R   0.942087 0.415398 0.040171 0.136052
C110  C     C_R   0.970732 0.376479 0.061064 -0.154015
C111  C     C_R   0.942334 0.336229 0.080588 -0.127644
C112  C     C_R   0.271279 0.771279 0.749996 0.115069
C113  C     C_1   0.999731 0.500063 0.888243 -0.133845
C114  C     C_R   0.885276 0.334501 0.079314 -0.111399
C115  C     C_R   0.856520 0.373049 0.058525 -0.138245
C116  C     C_R   0.884755 0.413449 0.039031 -0.132451
C117  C     C_R   0.057966 0.584513 0.959751 0.136645
C118  C     C_R   0.115307 0.586273 0.960831 -0.132193
C119  C     C_R   0.143645 0.626418 0.941163 -0.137547
C120  C     C_R   0.114983 0.664899 0.920257 -0.116159
C121  C     C_R   0.057916 0.663385 0.919063 -0.129543
C122  C     C_R   0.029417 0.623395 0.938764 -0.153307
C123  C     C_R   0.084409 0.558390 0.540124 0.142528
C124  C     C_1   0.999937 0.500270 0.611757 -0.133846
C125  C     C_R   0.071649 0.604998 0.561028 -0.161684
C126  C     C_R   0.112580 0.632307 0.580630 -0.137548
C127  C     C_R   0.166431 0.613376 0.579422 -0.108953
C128  C     C_R   0.179436 0.567095 0.558605 -0.134217
C129  C     C_R   0.138601 0.539588 0.539034 -0.127589
C130  C     C_R   0.915578 0.441633 0.459961 0.142457
C131  C     C_R   0.928318 0.394930 0.439152 -0.163284
C132  C     C_R   0.887332 0.367431 0.419726 -0.134533
C133  C     C_R   0.833455 0.386280 0.421006 -0.104713
C134  C     C_R   0.820481 0.432684 0.441706 -0.136162
C135  C     C_1   0.000065 0.499743 0.388262 -0.132939
C136  C     C_R   0.861366 0.460371 0.461110 -0.127607
C137  C     C_R   0.558112 0.084595 0.540041 0.142683
C138  C     C_R   0.604849 0.071995 0.560853 -0.163092
C139  C     C_R   0.632222 0.113063 0.580282 -0.134570
C140  C     C_R   0.613210 0.166883 0.579001 -0.104549
C141  C     C_R   0.566771 0.179717 0.558298 -0.136666
C142  C     C_R   0.539210 0.138749 0.538891 -0.128489
C143  C     C_R   0.441861 0.915420 0.459874 0.142751
C144  C     C_R   0.395220 0.928042 0.438967 -0.161479
C145  C     C_R   0.368036 0.887029 0.419362 -0.137638
C146  C     C_1   0.500252 0.999936 0.611738 -0.133651
C147  C     C_R   0.387126 0.833235 0.420571 -0.108721
C148  C     C_R   0.433443 0.820368 0.441392 -0.134671
C149  C     C_R   0.460825 0.861284 0.460965 -0.128479
C150  C     C_R   0.915356 0.442226 0.540249 0.136653
C151  C     C_R   0.913465 0.384890 0.539169 -0.132191
C152  C     C_R   0.873257 0.356643 0.558837 -0.137562
C153  C     C_R   0.834841 0.385392 0.579743 -0.116148
C154  C     C_R   0.836484 0.442456 0.580937 -0.129496
C155  C     C_R   0.876539 0.470864 0.561236 -0.153313
C156  C     C_R   0.084733 0.557722 0.459829 0.136055
C157  C     C_1   0.499734 0.000062 0.388242 -0.134535
C158  C     C_R   0.123586 0.528989 0.438935 -0.154008
C159  C     C_R   0.163901 0.557294 0.419411 -0.127623
C160  C     C_R   0.165759 0.614348 0.420686 -0.111388
C161  C     C_R   0.127277 0.643193 0.441475 -0.138236
C162  C     C_R   0.086813 0.615049 0.460969 -0.132453
C163  C     C_R   0.442514 0.915105 0.540169 0.136231
C164  C     C_R   0.471354 0.876334 0.561065 -0.153870
C165  C     C_R   0.443159 0.835941 0.580589 -0.127670
C166  C     C_R   0.386111 0.833924 0.579312 -0.111315
C167  C     C_R   0.357161 0.872324 0.558520 -0.138210
C168  C     C_R   0.041742 0.527701 0.480521 -0.058347
C169  C     C_R   0.385193 0.912864 0.539026 -0.132753
C170  C     C_R   0.557536 0.084807 0.459753 0.136834
C171  C     C_R   0.614866 0.086858 0.460836 -0.132479
C172  C     C_R   0.643003 0.127145 0.441169 -0.137553
C173  C     C_R   0.614149 0.165479 0.420260 -0.116066
C174  C     C_R   0.557090 0.163676 0.419064 -0.129514
C175  C     C_R   0.528791 0.123542 0.438764 -0.153197
C176  C     C_R   0.958257 0.472345 0.519525 -0.058668
C177  C     C_R   0.527535 0.041822 0.480476 -0.058689
C178  C     C_R   0.472416 0.958179 0.519478 -0.058370
C179  C     C_R   0.959115 0.470978 0.480582 -0.058411
C180  C     C_R   0.771325 0.728673 0.249999 0.114131
C181  C     C_R   0.040869 0.529084 0.519464 -0.058597
C182  C     C_R   0.471036 0.959047 0.480534 -0.058724
C183  C     C_R   0.528899 0.040970 0.519419 -0.058542
C184  C     C_R   0.541760 0.027674 0.980522 -0.058369
C185  C     C_R   0.458239 0.972372 0.019524 -0.058688
C186  C     C_R   0.027750 0.541681 0.980475 -0.058667
C187  C     C_R   0.972206 0.458320 0.019479 -0.058346
C188  C     C_R   0.459094 0.971009 0.980582 -0.058539
C189  C     C_R   0.540890 0.029053 0.019465 -0.058722
C190  C     C_R   0.970825 0.459196 0.980536 -0.058595
C191  C     C_R   0.228675 0.271325 0.750000 0.113805
C192  C     C_R   0.029115 0.540820 0.019417 -0.058408
C193  C     C_R   0.000829 0.498696 0.461272 0.025108
C194  C     C_R   0.999159 0.501360 0.538764 0.025142
C195  C     C_R   0.498642 0.000836 0.461236 0.024973
C196  C     C_R   0.501300 0.999176 0.538728 0.024941
C197  C     C_R   0.500827 0.998700 0.961272 0.024941
C198  C     C_R   0.499162 0.001355 0.038764 0.024974
C199  C     C_R   0.998644 0.500843 0.961236 0.025143
C200  C     C_R   0.001302 0.499168 0.038728 0.025110
C201  C     C_R   0.500015 0.000006 0.348860 0.818708
C202  C     C_R   0.271340 0.771401 0.250022 0.117061
C203  C     C_R   0.499985 0.999993 0.651133 0.820400
C204  C     C_R   0.000007 0.500013 0.348867 0.820993
C205  C     C_R   0.999994 0.499987 0.651140 0.819327
C206  C     C_R   0.000013 0.500006 0.848860 0.819343
C207  C     C_R   0.999987 0.499993 0.151133 0.821008
C208  C     C_R   0.500006 0.000014 0.848866 0.820415
C209  C     C_R   0.499994 0.999985 0.151140 0.818723
C210  C     C_R   0.605236 0.894764 0.250000 0.785643
C211  C     C_R   0.394764 0.105236 0.750000 0.784558
C212  C     C_R   0.105248 0.605244 0.250001 0.784145
C213  C     C_R   0.728718 0.228723 0.750007 0.115072
C214  C     C_R   0.894770 0.394781 0.750002 0.784052
C215  C     C_R   0.394762 0.105238 0.250000 0.783215
C216  C     C_R   0.605238 0.894762 0.750000 0.782092
C217  C     C_R   0.894756 0.394752 0.249999 0.784143
C218  C     C_R   0.105219 0.605229 0.749998 0.784050
C219  C     C_R   0.605250 0.105242 0.749999 0.784838
C220  C     C_R   0.394769 0.894782 0.250003 0.784720
C221  C     C_R   0.105236 0.394764 0.750000 0.785612
C222  C     C_R   0.894764 0.605236 0.250000 0.784506
C223  C     C_R   0.394758 0.894750 0.750001 0.784840
C224  C     C_R   0.228675 0.271325 0.250000 0.114729
C225  C     C_R   0.605218 0.105231 0.249997 0.784722
C226  C     C_R   0.894762 0.605238 0.750000 0.783251
C227  C     C_R   0.105238 0.394762 0.250000 0.782116
C228  C     C_1   0.000313 0.499349 0.421417 -0.037841
C229  C     C_1   0.999688 0.500681 0.578610 -0.038296
C230  C     C_1   0.499323 0.000310 0.421390 -0.038731
C231  C     C_1   0.500646 0.999690 0.578584 -0.038281
C232  C     C_1   0.500311 0.999354 0.921416 -0.038276
C233  C     C_1   0.499689 0.000676 0.078610 -0.038727
C234  C     C_1   0.999321 0.500313 0.921390 -0.038293
C235  C     C_R   0.771325 0.728675 0.750000 0.114890
C236  C     C_1   0.000651 0.499687 0.078583 -0.037837
C237  C     C_R   0.693675 0.222575 0.280451 -0.185228
C238  C     C_R   0.322746 0.760829 0.734358 -0.186140
C239  C     C_R   0.760259 0.676577 0.264462 -0.181874
C240  C     C_R   0.239734 0.323415 0.735525 -0.181928
C241  C     C_R   0.306271 0.777514 0.280498 -0.185135
C242  C     C_R   0.677247 0.239157 0.734366 -0.186228
C243  C     C_R   0.239727 0.323407 0.264502 -0.183481
C244  C     C_R   0.776163 0.692483 0.720101 -0.183356
C245  C     C_R   0.676593 0.760273 0.735497 -0.183496
C246  C     C_R   0.728675 0.771325 0.750000 0.114750
C247  C     C_R   0.307517 0.223837 0.279898 -0.183372
C248  C     C_R   0.777459 0.306296 0.719531 -0.185336
C249  C     C_R   0.239161 0.677267 0.265644 -0.186028
C250  C     C_R   0.307539 0.223858 0.720118 -0.182101
C251  C     C_R   0.692460 0.776137 0.279880 -0.181934
C252  C     C_R   0.222497 0.693718 0.719512 -0.185227
C253  C     C_R   0.760819 0.322783 0.265605 -0.186301
C254  C     C_R   0.193706 0.722538 0.780471 -0.185346
C255  C     C_R   0.822730 0.260841 0.234354 -0.186028
C256  C     C_R   0.276142 0.192461 0.779882 -0.182099
H1    H     H_    0.698067 0.248207 0.304606 0.124801
H2    H     H_    0.304148 0.250468 0.303631 0.127476
H3    H     H_    0.137941 0.556488 0.976784 0.123332
H4    H     H_    0.187833 0.627623 0.942061 0.126852
H5    H     H_    0.136987 0.695870 0.904977 0.119027
H6    H     H_    0.035764 0.693207 0.902875 0.127052
H7    H     H_    0.985191 0.622676 0.937721 0.123552
H8    H     H_    0.030079 0.620102 0.562070 0.122099
H9    H     H_    0.102561 0.668154 0.596749 0.126181
H10   H     H_    0.198067 0.634558 0.594621 0.117738
H11   H     H_    0.221146 0.552467 0.557696 0.124414
H12   H     H_    0.149090 0.503617 0.523138 0.121502
H13   H     H_    0.751838 0.301896 0.695370 0.124793
H14   H     H_    0.969900 0.379863 0.438083 0.122672
H15   H     H_    0.897326 0.331483 0.403702 0.127141
H16   H     H_    0.801770 0.364936 0.405960 0.120592
H17   H     H_    0.778751 0.447246 0.442673 0.124625
H18   H     H_    0.850893 0.496399 0.476950 0.121524
H19   H     H_    0.620041 0.030459 0.561923 0.122608
H20   H     H_    0.668196 0.103177 0.596308 0.127086
H21   H     H_    0.634455 0.198631 0.594049 0.120615
H22   H     H_    0.552082 0.221403 0.557331 0.124552
H23   H     H_    0.503152 0.149114 0.523049 0.121317
H24   H     H_    0.278759 0.667697 0.277285 0.127660
H25   H     H_    0.379992 0.969566 0.437923 0.122035
H26   H     H_    0.332162 0.896942 0.403240 0.126099
H27   H     H_    0.366041 0.801536 0.405371 0.117799
H28   H     H_    0.448195 0.778701 0.442302 0.124366
H29   H     H_    0.496824 0.850902 0.476863 0.121303
H30   H     H_    0.943199 0.362188 0.523216 0.123329
H31   H     H_    0.871952 0.312458 0.557939 0.126847
H32   H     H_    0.803820 0.363459 0.595023 0.119014
H33   H     H_    0.806713 0.464676 0.597125 0.127047
H34   H     H_    0.877358 0.515088 0.562278 0.123538
H35   H     H_    0.304186 0.250505 0.696398 0.128876
H36   H     H_    0.122635 0.484769 0.437864 0.124613
H37   H     H_    0.193727 0.535001 0.403315 0.127393
H38   H     H_    0.197004 0.636201 0.405564 0.121875
H39   H     H_    0.128749 0.687371 0.442435 0.127219
H40   H     H_    0.057066 0.637821 0.476867 0.123509
H41   H     H_    0.515571 0.877409 0.562139 0.124538
H42   H     H_    0.465534 0.806179 0.596687 0.127343
H43   H     H_    0.364344 0.802619 0.594434 0.121835
H44   H     H_    0.312987 0.870728 0.557558 0.127218
H45   H     H_    0.362340 0.942547 0.523127 0.123384
H46   H     H_    0.695810 0.749486 0.303599 0.128930
H47   H     H_    0.637649 0.057188 0.476791 0.123206
H48   H     H_    0.687184 0.128573 0.442069 0.126854
H49   H     H_    0.635997 0.196560 0.404981 0.118990
H50   H     H_    0.534788 0.193384 0.402874 0.127003
H51   H     H_    0.484570 0.122599 0.437719 0.123459
H52   H     H_    0.248108 0.698105 0.695351 0.125081
H53   H     H_    0.721226 0.332375 0.277240 0.127836
H54   H     H_    0.198107 0.748158 0.804632 0.124789
H55   H     H_    0.832300 0.221242 0.222713 0.127666
H56   H     H_    0.249495 0.195814 0.803602 0.128878
H57   H     H_    0.332315 0.721236 0.722708 0.127392
H58   H     H_    0.750512 0.804189 0.196400 0.128932
H59   H     H_    0.801893 0.251895 0.804651 0.125079
H60   H     H_    0.167628 0.778772 0.222757 0.127843
H61   H     H_    0.779771 0.833451 0.775238 0.127865
H62   H     H_    0.249532 0.195852 0.196370 0.127480
H63   H     H_    0.166548 0.220228 0.224763 0.127874
H64   H     H_    0.804147 0.750467 0.803631 0.127484
H65   H     H_    0.251797 0.801929 0.195391 0.124796
H66   H     H_    0.778762 0.167688 0.777294 0.127398
H67   H     H_    0.833476 0.779794 0.224833 0.128671
H68   H     H_    0.720205 0.666523 0.275166 0.128669
H69   H     H_    0.166535 0.220215 0.775189 0.128800
H70   H     H_    0.748098 0.198112 0.195341 0.125094
H71   H     H_    0.221257 0.832333 0.777283 0.128209
H72   H     H_    0.626841 0.178621 0.304184 0.153268
H73   H     H_    0.402218 0.792081 0.721962 0.152943
H74   H     H_    0.791047 0.596614 0.275946 0.153819
H75   H     H_    0.208941 0.403371 0.724028 0.155516
H76   H     H_    0.373120 0.821483 0.304221 0.154138
H77   H     H_    0.597779 0.207891 0.721964 0.156168
H78   H     H_    0.208929 0.403359 0.276018 0.152337
H79   H     H_    0.279784 0.333465 0.724811 0.128797
H80   H     H_    0.819097 0.624666 0.696828 0.153095
H81   H     H_    0.596642 0.791072 0.723980 0.152308
H82   H     H_    0.375335 0.180904 0.303172 0.153079
H83   H     H_    0.821411 0.373134 0.695801 0.153246
H84   H     H_    0.207925 0.597782 0.278023 0.152955
H85   H     H_    0.375373 0.180943 0.696858 0.155542
H86   H     H_    0.624626 0.819052 0.303140 0.155900
H87   H     H_    0.178515 0.626886 0.695780 0.153991
H88   H     H_    0.792089 0.402252 0.278001 0.154645
H89   H     H_    0.126867 0.678586 0.804200 0.153234
H90   H     H_    0.301890 0.751899 0.304657 0.125097
H91   H     H_    0.902216 0.292075 0.221976 0.152954
H92   H     H_    0.319057 0.124628 0.803142 0.155542
H93   H     H_    0.680947 0.875374 0.196859 0.155900
H94   H     H_    0.873114 0.321487 0.804221 0.154005
H95   H     H_    0.097750 0.707910 0.221997 0.154650
H96   H     H_    0.708928 0.903358 0.776019 0.152312
H97   H     H_    0.319096 0.124665 0.196828 0.153085
H98   H     H_    0.096641 0.291071 0.223982 0.152340
H99   H     H_    0.875334 0.680903 0.803172 0.153100
H100  H     H_    0.321382 0.873157 0.195815 0.153256
H101  H     H_    0.667664 0.278745 0.722719 0.128202
H102  H     H_    0.707918 0.097783 0.778039 0.152943
H103  H     H_    0.903385 0.708952 0.224053 0.153820
H104  H     H_    0.096629 0.291059 0.775971 0.155518
H105  H     H_    0.678516 0.126881 0.195778 0.154151
H106  H     H_    0.292109 0.902219 0.778037 0.156172
H107  H     H_    0.530171 0.120075 0.062075 0.122043
H108  H     H_    0.602690 0.168065 0.096757 0.126110
H109  H     H_    0.698169 0.134394 0.094628 0.117808
H110  H     H_    0.721184 0.052289 0.057698 0.124368
H111  H     H_    0.649090 0.003501 0.023137 0.121303
H112  H     H_    0.279772 0.333452 0.275238 0.127870
H113  H     H_    0.469808 0.879891 0.938078 0.122617
H114  H     H_    0.397197 0.831573 0.903694 0.127084
H115  H     H_    0.301668 0.865101 0.905952 0.120630
H116  H     H_    0.278713 0.947425 0.942670 0.124555
H117  H     H_    0.350894 0.996516 0.976952 0.121317
H118  H     H_    0.120204 0.529829 0.061918 0.122681
H119  H     H_    0.168749 0.602292 0.096298 0.127138
H120  H     H_    0.135514 0.697924 0.094039 0.120608
H121  H     H_    0.053257 0.721130 0.057326 0.124626
H122  H     H_    0.003940 0.649099 0.023049 0.121525
H123  H     H_    0.749533 0.695853 0.696369 0.127480
H124  H     H_    0.879832 0.470189 0.937930 0.122107
H125  H     H_    0.831619 0.397815 0.903250 0.126192
H126  H     H_    0.865001 0.302234 0.905379 0.117749
H127  H     H_    0.947039 0.278971 0.942304 0.124415
H128  H     H_    0.996049 0.350918 0.976862 0.121501
H129  H     H_    0.443117 0.862224 0.023210 0.123209
H130  H     H_    0.371842 0.812532 0.057933 0.126859
H131  H     H_    0.303743 0.863570 0.095021 0.119002
H132  H     H_    0.306696 0.964785 0.097128 0.127008
H133  H     H_    0.377368 0.015159 0.062281 0.123472
H134  H     H_    0.666549 0.720229 0.724761 0.127861
H135  H     H_    0.622625 0.984698 0.937861 0.124550
H136  H     H_    0.693745 0.034891 0.903312 0.127353
H137  H     H_    0.697081 0.136089 0.905566 0.121854
H138  H     H_    0.628859 0.187295 0.942442 0.127222
H139  H     H_    0.557149 0.137784 0.976873 0.123386
H140  H     H_    0.014953 0.377330 0.062136 0.124625
H141  H     H_    0.964560 0.306352 0.096685 0.127402
H142  H     H_    0.863352 0.303306 0.094436 0.121894
H143  H     H_    0.812339 0.371678 0.057565 0.127223
H144  H     H_    0.862052 0.443247 0.023134 0.123512
O1    O     O_3   0.500000 0.000000 0.250000 -0.473482
O2    O     O_R   0.500000 0.045450 0.668550 -0.634666
O3    O     O_R   0.045450 0.500000 0.331450 -0.637447
O4    O     O_R   0.954550 0.500000 0.668550 -0.640270
O5    O     O_R   0.000000 0.545450 0.831450 -0.640284
O6    O     O_R   0.000000 0.454550 0.168550 -0.637462
O7    O     O_R   0.454550 1.000000 0.831450 -0.634668
O8    O     O_R   0.545450 0.000000 0.168550 -0.635503
O9    O     O_R   0.000000 0.454550 0.831450 -0.633766
O10   O     O_R   1.000000 0.545450 0.168550 -0.632932
O11   O     O_R   0.545450 1.000000 0.831450 -0.637091
O12   O     O_3   0.500000 1.000000 0.750000 -0.473036
O13   O     O_R   0.454550 0.000000 0.168550 -0.639913
O14   O     O_R   0.564020 0.890520 0.271340 -0.644959
O15   O     O_R   0.435980 0.109480 0.728660 -0.646330
O16   O     O_R   0.109480 0.564020 0.271340 -0.646696
O17   O     O_R   0.890520 0.435980 0.728660 -0.644798
O18   O     O_R   0.435980 0.109480 0.271340 -0.646748
O19   O     O_R   0.564020 0.890520 0.728660 -0.648085
O20   O     O_R   0.890520 0.435980 0.271340 -0.646433
O21   O     O_R   0.109480 0.564020 0.728660 -0.645814
O22   O     O_R   0.564020 0.109480 0.728660 -0.645051
O23   O     O_3   0.000000 0.500000 0.250000 -0.473139
O24   O     O_R   0.435980 0.890520 0.271340 -0.644171
O25   O     O_R   0.109480 0.435980 0.728660 -0.644948
O26   O     O_R   0.890520 0.564020 0.271340 -0.646184
O27   O     O_R   0.435980 0.890520 0.728660 -0.646872
O28   O     O_R   0.564020 0.109480 0.271340 -0.645097
O29   O     O_R   0.890520 0.564020 0.728660 -0.646728
O30   O     O_R   0.109480 0.435980 0.271340 -0.648072
O31   O     O_R   0.064020 0.390520 0.771340 -0.644950
O32   O     O_R   0.935980 0.609480 0.228660 -0.646186
O33   O     O_R   0.609480 0.064020 0.771340 -0.646875
O34   O     O_3   0.000000 0.500000 0.750000 -0.473513
O35   O     O_R   0.390520 0.935980 0.228660 -0.645098
O36   O     O_R   0.935980 0.609480 0.771340 -0.646726
O37   O     O_R   0.064020 0.390520 0.228660 -0.648070
O38   O     O_R   0.390520 0.935980 0.771340 -0.645048
O39   O     O_R   0.609480 0.064020 0.228660 -0.644169
O40   O     O_R   0.064020 0.609480 0.228660 -0.646430
O41   O     O_R   0.935980 0.390520 0.771340 -0.645811
O42   O     O_R   0.609480 0.935980 0.228660 -0.644961
O43   O     O_R   0.390520 0.064020 0.771340 -0.646332
O44   O     O_R   0.935980 0.390520 0.228660 -0.646699
O45   O     O_R   0.500000 0.045450 0.331450 -0.639899
O46   O     O_R   0.064020 0.609480 0.771340 -0.644800
O47   O     O_R   0.390520 0.064020 0.228660 -0.646746
O48   O     O_R   0.609480 0.935980 0.771340 -0.648083
O49   O     O_R   0.500000 0.954550 0.668550 -0.637077
O50   O     O_R   0.954550 0.500000 0.331450 -0.632930
O51   O     O_R   0.045450 0.500000 0.668550 -0.633764
O52   O     O_R   0.500000 0.954550 0.331450 -0.635501
Zn1   Zn    Zn3+2 0.564990 0.000000 0.219470 0.970925
Zn2   Zn    Zn3+2 0.935010 0.500000 0.280530 0.970576
Zn3   Zn    Zn3+2 0.500000 0.064990 0.719470 0.970313
Zn4   Zn    Zn3+2 0.500000 0.935010 0.280530 0.970923
Zn5   Zn    Zn3+2 0.935010 0.500000 0.719470 0.965088
Zn6   Zn    Zn3+2 0.064990 0.500000 0.280530 0.964841
Zn7   Zn    Zn3+2 0.500000 0.935010 0.719470 0.964891
Zn8   Zn    Zn3+2 0.500000 0.064990 0.280530 0.965086
Zn9   Zn    Zn3+2 0.435010 0.000000 0.780530 0.970317
Zn10  Zn    Zn3+2 0.000000 0.564990 0.219470 0.970580
Zn11  Zn    Zn3+2 0.000000 0.435010 0.780530 0.970963
Zn12  Zn    Zn3+2 0.435010 0.000000 0.219470 0.965081
Zn13  Zn    Zn3+2 0.564990 0.000000 0.780530 0.964885
Zn14  Zn    Zn3+2 0.000000 0.435010 0.219470 0.964834
Zn15  Zn    Zn3+2 0.000000 0.564990 0.780530 0.965082
Zn16  Zn    Zn3+2 0.064990 0.500000 0.719470 0.970961

loop_
_geom_bond_atom_site_label_1
_geom_bond_atom_site_label_2
_ccdc_geom_bond_type
C126  C127  A    
C96   C102  A    
C41   C61   A    
O52   Zn4   S    
C247  H2    S    
C114  C115  A    
C166  H43   S    
C165  C166  A    
C30   H85   S    
C245  H134  S    
O17   Zn5   S    
C24   C249  A    
C207  O6    A    
C25   C244  A    
C106  C107  A    
C143  C144  A    
O30   Zn6   S    
C251  H46   S    
C85   H119  S    
C62   C215  S    
C7    C42   A    
C13   C213  S    
C57   C254  A    
O28   Zn8   S    
C226  O29   A    
O22   Zn3   S    
C101  C207  S    
C5    H60   S    
C176  C179  A    
C248  H13   S    
C172  H48   S    
C45   C56   A    
C45   H100  S    
C108  H139  S    
C50   C52   A    
C126  H9    S    
C1    C15   A    
C220  O35   A    
C158  H36   S    
C75   H111  S    
C76   C188  S    
C33   C69   A    
C83   C88   A    
C29   C64   A    
C245  C246  A    
C205  O4    A    
C72   H108  S    
C95   H128  S    
C81   H116  S    
C104  C105  A    
O20   Zn2   S    
C190  C199  A    
O45   Zn8   S    
C113  C234  T    
C36   C255  A    
C3    H58   S    
O5    Zn15  S    
C83   C192  S    
C140  C141  A    
C218  O46   A    
C144  C145  A    
C180  C239  A    
C253  H53   S    
O46   Zn15  S    
O1    Zn1   S    
C27   C247  A    
C50   H105  S    
C216  O19   A    
C43   H98   S    
C211  O43   A    
C163  C178  S    
C183  C196  A    
C31   C251  A    
C76   C77   A    
C207  O10   A    
C181  C194  A    
C10   C202  A    
C154  C155  A    
C178  C182  A    
C84   H118  S    
C112  C238  A    
O24   Zn4   S    
C158  C159  A    
C186  C199  A    
C254  H54   S    
C23   C243  A    
C56   C220  S    
C21   C241  A    
C179  C193  A    
C197  C232  S    
C177  C195  A    
C223  O27   A    
C96   C185  S    
C6    C246  A    
C67   C218  S    
C159  H37   S    
C222  O32   A    
C72   C73   A    
C22   C58   A    
C86   H120  S    
C139  C140  A    
C53   C223  S    
C3    C46   A    
C187  C200  A    
C156  C158  A    
C130  C131  A    
C123  C181  S    
C49   C55   A    
O25   Zn16  S    
C210  O42   A    
C125  H8    S    
C128  H11   S    
C60   C226  S    
C192  C200  A    
C28   C63   A    
C143  C149  A    
C13   C248  A    
C120  H5    S    
C144  H25   S    
C87   H121  S    
C64   C212  S    
O1    Zn12  S    
C204  O3    A    
C137  C142  A    
C238  H57   S    
C9    C235  A    
O41   Zn11  S    
C147  C148  A    
C80   H115  S    
O31   Zn11  S    
C128  C129  A    
C1    C68   S    
C97   C98   A    
C167  C169  A    
C85   C86   A    
C109  C187  S    
C23   C59   A    
C213  C242  A    
C225  O39   A    
C117  C186  S    
C78   C80   A    
C170  C171  A    
C156  C168  S    
O33   Zn13  S    
C115  C116  A    
O2    Zn3   S    
C10   H65   S    
O32   Zn10  S    
C15   H70   S    
C169  H45   S    
C174  C175  A    
C110  C111  A    
C171  H47   S    
C68   C253  A    
C25   C60   A    
C22   H77   S    
C37   C65   A    
C89   C190  S    
C196  C231  S    
C73   H109  S    
C244  H123  S    
C89   C91   A    
C42   C62   A    
C18   C53   A    
C43   C59   A    
C110  H140  S    
O34   Zn11  S    
C90   C232  T    
O13   Zn12  S    
C101  C236  T    
C51   H106  S    
C203  O49   A    
O4    Zn5   S    
C146  C231  T    
C19   H74   S    
C23   H78   S    
C217  O44   A    
C8    H63   S    
C143  C182  S    
C17   H72   S    
C193  C228  S    
C76   C82   A    
C91   C92   A    
C82   H117  S    
C1    C237  A    
C20   C240  A    
C178  C196  A    
C35   C250  A    
O18   Zn8   S    
C51   C53   A    
C29   C249  A    
O36   Zn15  S    
C117  C122  A    
C223  O38   A    
C27   C62   A    
C19   C239  A    
C121  H6    S    
C9    H64   S    
C255  H55   S    
C83   C84   A    
C256  H56   S    
C37   C256  A    
C10   C45   A    
C2    C224  S    
O34   Zn16  S    
C164  H41   S    
C129  H12   S    
C32   C67   A    
C90   C208  S    
C114  H142  S    
C19   C54   A    
C61   C216  S    
C33   H88   S    
C98   C99   A    
C168  C193  A    
C44   H99   S    
O34   Zn5   S    
C157  C201  S    
C241  H90   S    
C120  C121  A    
C191  C240  A    
C35   C191  S    
C12   C180  A    
O3    Zn6   S    
C201  O45   A    
C240  H79   S    
C198  C233  S    
C224  C243  A    
C137  C183  S    
C154  H33   S    
O49   Zn7   S    
C173  H49   S    
C138  H19   S    
C150  C155  A    
O38   Zn9   S    
C71   C72   A    
C31   H86   S    
C117  C118  A    
C28   H83   S    
C68   C255  A    
C35   C256  A    
C131  H14   S    
C77   H113  S    
O23   Zn2   S    
C119  H4    S    
O47   Zn12  S    
C63   C214  S    
C12   H67   S    
C115  H143  S    
C46   C251  A    
C30   C65   A    
C41   H96   S    
C152  C153  A    
C42   H97   S    
C70   C75   A    
C134  H17   S    
C150  C151  A    
C182  C195  A    
C32   H87   S    
C18   C238  A    
C87   C88   A    
C167  H44   S    
C124  C205  S    
C73   C74   A    
C217  O20   A    
C11   C47   A    
C8    C43   A    
C12   C48   A    
C242  H101  S    
C161  C162  A    
C39   H94   S    
C77   C78   A    
C172  C173  A    
O19   Zn7   S    
O39   Zn1   S    
C105  H136  S    
C69   C217  S    
O6    Zn14  S    
C36   H91   S    
C164  C165  A    
C26   C61   A    
C141  H22   S    
C26   H81   S    
C91   H124  S    
C122  H7    S    
C123  C125  A    
C135  C228  T    
C38   H93   S    
O29   Zn5   S    
C28   C248  A    
O23   Zn6   S    
C187  C190  A    
C109  C116  A    
O44   Zn14  S    
C2    C7    A    
O14   Zn4   S    
C151  C152  A    
C100  H132  S    
O42   Zn1   S    
C70   C71   A    
C59   C227  S    
C220  O24   A    
C235  C246  S    
C124  C229  T    
C8    C224  A    
C99   H131  S    
C97   H129  S    
C194  C229  S    
C98   H130  S    
C4    H59   S    
C145  C147  A    
O26   Zn2   S    
C170  C175  A    
C170  C177  S    
C103  C184  S    
C46   C180  S    
O11   Zn13  S    
C84   C85   A    
C79   C233  T    
C208  O11   A    
C86   C87   A    
C133  H16   S    
C118  H3    S    
C177  C183  A    
C195  C230  S    
C89   C95   A    
C206  O9    A    
C148  H28   S    
C104  H135  S    
C147  H27   S    
C159  C160  A    
C92   H125  S    
O43   Zn9   S    
C205  O51   A    
C94   H127  S    
O7    Zn9   S    
C21   H76   S    
C121  C122  A    
C11   C213  A    
C219  O33   A    
C155  H34   S    
C237  H1    S    
C133  C134  A    
C131  C132  A    
C22   C242  A    
C215  O18   A    
C211  O15   A    
C16   C112  A    
C214  O41   A    
C79   C209  S    
C93   H126  S    
C16   C51   A    
C175  H51   S    
O12   Zn13  S    
C140  H21   S    
C136  H18   S    
C34   C67   A    
C21   C56   A    
C119  C120  A    
C11   H66   S    
C135  C204  S    
C105  C106  A    
C219  O22   A    
C34   C254  A    
C239  H68   S    
O51   Zn16  S    
C109  C110  A    
C113  C206  S    
C243  H112  S    
O50   Zn2   S    
C225  O28   A    
C188  C197  A    
C44   C60   A    
C92   C93   A    
O8    Zn1   S    
C111  C114  A    
C94   C95   A    
C163  C169  A    
C235  C244  A    
C138  C139  A    
C57   C112  S    
C88   H122  S    
C184  C197  A    
C5    C40   A    
C103  C104  A    
C176  C194  A    
C70   C189  S    
C189  C198  A    
C31   C66   A    
C150  C176  S    
C171  C172  A    
C7    H62   S    
C93   C94   A    
C127  H10   S    
C174  H50   S    
C163  C164  A    
C17   C52   A    
C2    C247  A    
C132  H15   S    
C81   C82   A    
C152  H31   S    
C78   H114  S    
C173  C174  A    
C48   C54   A    
C16   H71   S    
C24   C202  S    
C18   H73   S    
C71   H107  S    
C203  O2    A    
O16   Zn6   S    
C14   H69   S    
C54   C222  S    
C14   C49   A    
C209  O13   A    
C40   H95   S    
C209  O8    A    
C212  O40   A    
C168  C181  A    
O40   Zn10  S    
C15   C50   A    
C4    C13   A    
C118  C119  A    
O9    Zn11  S    
C221  O31   A    
C27   H82   S    
C38   C66   A    
C3    C38   A    
C132  C133  A    
C6    C41   A    
C74   H110  S    
C49   H104  S    
C103  C108  A    
C185  C198  A    
C26   C245  A    
C55   C221  S    
C107  H138  S    
O15   Zn3   S    
C34   H89   S    
C156  C162  A    
C214  O17   A    
C123  C129  A    
C186  C192  A    
C161  H39   S    
C204  O50   A    
C20   C55   A    
C162  H40   S    
C145  H26   S    
C157  C230  T    
C218  O21   A    
C252  H52   S    
O23   Zn14  S    
C74   C75   A    
C111  H141  S    
C226  O36   A    
O23   Zn10  S    
C148  C149  A    
O1    Zn4   S    
C215  O47   A    
C199  C234  S    
C165  H42   S    
C216  O48   A    
C185  C188  A    
C134  C136  A    
C208  O7    A    
C202  C241  A    
C222  O26   A    
C250  H35   S    
C30   C250  A    
O37   Zn14  S    
C146  C203  S    
O12   Zn9   S    
C160  H38   S    
C25   H80   S    
C58   C219  S    
C99   C100  A    
C4    C39   A    
C107  C108  A    
C96   C97   A    
C153  H32   S    
C100  C102  A    
O10   Zn10  S    
C57   C252  A    
C227  O30   A    
C14   C191  A    
C6    H61   S    
C166  C167  A    
C139  H20   S    
O12   Zn3   S    
C66   C210  S    
C151  H30   S    
C36   C69   A    
C201  O52   A    
O35   Zn12  S    
C9    C44   A    
C37   H92   S    
C116  H144  S    
C149  H29   S    
C130  C136  A    
C200  C236  S    
C206  O5    A    
C80   C81   A    
C142  H23   S    
O1    Zn8   S    
O21   Zn16  S    
C65   C211  S    
C39   C63   A    
C137  C138  A    
C32   C252  A    
C40   C64   A    
C249  H24   S    
C160  C161  A    
C33   C253  A    
C212  O16   A    
C47   H102  S    
C141  C142  A    
C47   C58   A    
C48   H103  S    
C221  O25   A    
C125  C126  A    
C5    C24   A    
O34   Zn15  S    
O27   Zn7   S    
C210  O14   A    
O48   Zn13  S    
C102  H133  S    
C227  O37   A    
C130  C179  S    
C52   C225  S    
C29   H84   S    
C184  C189  A    
C106  H137  S    
C153  C154  A    
O12   Zn7   S    
C127  C128  A    
C20   H75   S    
C17   C237  A    
