data_mof_unit_34994.cif
_audit_creation_date              2012-12-10T21:07:44-0500
_audit_creation_method            fapswitch 2.2
_symmetry_space_group_name_H-M    P1
_symmetry_Int_Tables_number       1
_space_group_crystal_system       triclinic
_cell_length_a                    8.571067
_cell_length_b                    17.55597
_cell_length_c                    16.884764
_cell_angle_alpha                 90.138201
_cell_angle_beta                  98.956584
_cell_angle_gamma                 92.206084
_cell_volume                      2507.7768437

loop_
_atom_site_label
_atom_site_type_symbol
_atom_type_description
_atom_site_fract_x
_atom_site_fract_y
_atom_site_fract_z
_atom_type_partial_charge
C1    C     C_R   0.500340 0.353606 0.499953 0.897662
C2    C     C_R   0.497852 0.646795 0.499783 0.903445
C3    C     C_1   0.553536 0.968105 0.498401 0.067678
C4    C     C_1   0.555630 0.035739 0.497747 0.069191
C5    C     C_R   0.389894 0.449407 0.822727 0.078811
C6    C     C_R   0.621465 0.539146 0.176389 0.058037
C7    C     C_R   0.390720 0.453937 0.737937 0.218391
C8    C     C_R   0.617535 0.539419 0.261069 0.229507
C9    C     C_R   0.611217 0.542312 0.759494 0.248657
C10   C     C_R   0.386223 0.458305 0.241420 0.223309
C11   C     C_R   0.624368 0.532376 0.843964 0.104634
C12   C     C_R   0.397095 0.450170 0.158562 0.096391
C13   C     C_R   0.508048 0.489356 0.876367 -0.048493
C14   C     C_R   0.510619 0.493285 0.124805 -0.015881
C15   C     C_1   0.508860 0.488564 0.964253 0.006512
C16   C     C_1   0.511171 0.490093 0.037116 0.059285
C17   C     C_R   0.200777 0.498991 0.479070 0.971971
C18   C     C_R   0.799225 0.500508 0.521016 0.969661
C19   C     C_2   0.035482 0.495136 0.468240 -0.385702
C20   C     C_2   0.964585 0.503382 0.532262 -0.384035
C21   C     C_R   0.547257 0.849479 0.572396 0.176476
C22   C     C_R   0.461192 0.151264 0.430619 0.180426
C23   C     C_R   0.525586 0.770550 0.571865 -0.287065
C24   C     C_R   0.444295 0.229561 0.432634 -0.284761
C25   C     C_R   0.502979 0.729870 0.499538 -0.110335
C26   C     C_R   0.512317 0.271851 0.500149 -0.107091
C27   C     C_R   0.492242 0.768781 0.426728 -0.349827
C28   C     C_R   0.599325 0.236616 0.565962 -0.347623
C29   C     C_R   0.518864 0.847974 0.425680 0.473975
C30   C     C_R   0.623615 0.158245 0.563724 0.474504
C31   C     C_R   0.543447 0.887541 0.499056 -0.004704
C32   C     C_R   0.549573 0.116082 0.496669 -0.010738
H1    H     H_    0.972508 0.483875 0.408306 0.168160
H2    H     H_    0.027337 0.514125 0.592514 0.169263
H3    H     H_    0.527775 0.741117 0.627978 0.174097
H4    H     H_    0.377273 0.257289 0.381722 0.151706
H5    H     H_    0.462161 0.737492 0.371041 0.162755
H6    H     H_    0.649711 0.270419 0.618040 0.153214
N1    N     N_R   0.500040 0.500030 0.707230 -0.163049
N2    N     N_R   0.499960 0.499970 0.292770 -0.147088
O1    O     O_R   0.500000 0.389130 0.566570 -0.596627
O2    O     O_R   0.500000 0.610870 0.433430 -0.597493
O3    O     O_R   0.499990 0.389100 0.433480 -0.643426
O4    O     O_R   0.500010 0.610900 0.566520 -0.639558
O5    O     O_R   0.271750 0.500010 0.550980 -0.591047
O6    O     O_R   0.728250 0.499990 0.449020 -0.586826
O7    O     O_R   0.271740 0.499980 0.417890 -0.636409
O8    O     O_R   0.728260 0.500020 0.582110 -0.658388
Zn1   Zn    Zn3+2 0.500010 0.500020 0.588860 0.937052
Zn2   Zn    Zn3+2 0.499990 0.499980 0.411140 0.941533
N3    N     N_2   0.569842 0.890384 0.646538 -0.294329
H7    H     H_    0.515362 0.864429 0.690321 0.222306
C33   C     C_3   0.732738 0.912822 0.676018 -0.739224
H8    H     H_    0.803758 0.861566 0.690155 0.218632
H9    H     H_    0.738689 0.947668 0.731442 0.245485
H10   H     H_    0.784183 0.947626 0.630970 0.260907
N4    N     N_2   0.386597 0.107941 0.362877 -0.290931
H11   H     H_    0.281456 0.129556 0.335715 0.221328
C34   C     C_3   0.490010 0.091984 0.305475 -0.734933
H12   H     H_    0.529906 0.145917 0.279113 0.219132
H13   H     H_    0.425196 0.055360 0.256557 0.244606
H14   H     H_    0.594607 0.061515 0.334607 0.259277
O9    O     O_3   0.510269 0.889108 0.354690 -0.604674
C35   C     C_3   0.590527 0.853190 0.298553 0.091491
H15   H     H_    0.511929 0.808346 0.264879 0.142849
H16   H     H_    0.702396 0.828087 0.327872 0.140235
C36   C     C_3   0.633512 0.911425 0.238253 -0.836744
H17   H     H_    0.713723 0.957027 0.269342 0.251549
H18   H     H_    0.694738 0.883135 0.193544 0.208247
H19   H     H_    0.525017 0.936925 0.206375 0.255684
O10   O     O_3   0.708276 0.120254 0.627802 -0.608178
C37   C     C_3   0.853992 0.159159 0.656239 0.092868
H20   H     H_    0.835995 0.204831 0.699253 0.143678
H21   H     H_    0.910534 0.184295 0.606527 0.133549
C38   C     C_3   0.967533 0.103405 0.700415 -0.830963
H22   H     H_    0.990844 0.057650 0.658762 0.252708
H23   H     H_    0.081126 0.133807 0.724486 0.209098
H24   H     H_    0.916240 0.077479 0.751003 0.256516
N5    N     N_2   0.270082 0.405462 0.853990 -0.285288
H25   H     H_    0.161930 0.400998 0.817552 0.217843
C39   C     C_3   0.319520 0.333544 0.889465 -0.751892
H26   H     H_    0.356918 0.295374 0.844078 0.228197
H27   H     H_    0.219597 0.305117 0.913988 0.230347
H28   H     H_    0.419498 0.342379 0.939151 0.256593
N6    N     N_2   0.740265 0.582169 0.143400 -0.294708
H29   H     H_    0.848267 0.588525 0.179702 0.228296
C40   C     C_3   0.688434 0.652447 0.104936 -0.802772
H30   H     H_    0.654184 0.692831 0.149252 0.238256
H31   H     H_    0.586047 0.641488 0.056838 0.244501
H32   H     H_    0.786193 0.679393 0.077454 0.232943
N7    N     N_2   0.273278 0.413046 0.683725 -0.249303
H33   H     H_    0.159308 0.428630 0.685771 0.192160
C41   C     C_3   0.288766 0.331424 0.678333 -0.721620
H34   H     H_    0.253820 0.312800 0.615002 0.238077
H35   H     H_    0.208147 0.301271 0.714375 0.202721
H36   H     H_    0.412392 0.314903 0.698927 0.241066
N8    N     N_2   0.738575 0.579305 0.313895 -0.243588
H37   H     H_    0.850724 0.561665 0.311000 0.193964
C42   C     C_3   0.729366 0.661276 0.316513 -0.758481
H38   H     H_    0.753586 0.680940 0.379867 0.246436
H39   H     H_    0.610864 0.679615 0.288896 0.218585
H40   H     H_    0.819817 0.688668 0.284218 0.211641
N9    N     N_2   0.714664 0.597360 0.729938 -0.285916
H41   H     H_    0.715516 0.595927 0.669721 0.281614
C43   C     C_3   0.709041 0.675066 0.758623 -0.803563
H42   H     H_    0.766484 0.714792 0.719809 0.224126
H43   H     H_    0.775646 0.682444 0.819944 0.272222
H44   H     H_    0.584774 0.691291 0.757929 0.228107
N10   N     N_2   0.256264 0.421065 0.270144 -0.294726
H45   H     H_    0.280146 0.397802 0.326165 0.268049
C44   C     C_3   0.109836 0.461279 0.255065 -0.823129
H46   H     H_    0.124212 0.518423 0.284055 0.254059
H47   H     H_    0.014891 0.427683 0.278560 0.229828
H48   H     H_    0.071624 0.469929 0.190062 0.229371
N11   N     N_2   0.758160 0.564961 0.895474 -0.298471
H49   H     H_    0.737896 0.582676 0.951036 0.241650
C45   C     C_3   0.899789 0.522015 0.899338 -0.745363
H50   H     H_    0.999711 0.553374 0.936981 0.237592
H51   H     H_    0.931212 0.514332 0.838484 0.247890
H52   H     H_    0.882031 0.465299 0.926399 0.233094
N12   N     N_2   0.300361 0.394660 0.109834 -0.282781
H53   H     H_    0.184187 0.390220 0.118322 0.248953
C46   C     C_3   0.369571 0.320798 0.109941 -0.793368
H54   H     H_    0.292300 0.281886 0.067575 0.234806
H55   H     H_    0.381663 0.295764 0.170915 0.239034
H56   H     H_    0.487672 0.325823 0.090627 0.242642

loop_
_geom_bond_atom_site_label_1
_geom_bond_atom_site_label_2
_ccdc_geom_bond_type
O4    Zn1   S    
C40   H30   S    
C29   O9    S    
C41   H34   S    
C27   C29   A    
C44   H46   S    
C8    N8    S    
C22   N4    S    
C30   O10   S    
C46   H54   S    
C33   H8    S    
C21   C31   A    
C24   H4    S    
C6    N6    S    
C22   C32   A    
C24   C26   A    
C45   H51   S    
C46   H55   S    
N7    C41   S    
N11   H49   S    
N8    H37   S    
C2    C25   S    
C9    N1    A    
C10   N10   S    
C10   N2    A    
C38   H23   S    
N10   C44   S    
N8    C42   S    
C1    O3    A    
C12   N12   S    
C19   C20   D    
C2    O4    A    
N11   C45   S    
O5    Zn1   S    
C5    N5    S    
C11   N11   S    
C5    C13   A    
C20   H2    S    
N6    C40   S    
C34   H12   S    
C41   H35   S    
C37   C38   S    
C18   O6    A    
O1    Zn1   S    
C39   H27   S    
C39   H26   S    
O7    Zn2   S    
C33   H9    S    
C43   H44   S    
C34   H13   S    
O9    C35   S    
C36   H17   S    
C35   C36   S    
C37   H21   S    
C19   H1    S    
C45   H52   S    
N7    H33   S    
C5    C7    A    
C46   H56   S    
C6    C8    A    
N6    H29   S    
N3    H7    S    
N3    C33   S    
C35   H16   S    
C38   H22   S    
C2    O2    A    
C6    C14   A    
C43   H43   S    
C42   H38   S    
C28   H6    S    
C9    N9    S    
C7    N7    S    
C44   H47   S    
C3    C31   S    
C9    C11   A    
N12   H53   S    
C4    C32   S    
C10   C12   A    
O2    Zn2   S    
C1    O1    A    
O8    Zn1   S    
N1    Zn1   S    
C12   C14   A    
C41   H36   S    
C23   H3    S    
C21   C23   A    
C1    C26   S    
N9    C43   S    
C22   C24   A    
C3    C4    T    
C21   N3    S    
C39   H28   S    
N5    C39   S    
C33   H10   S    
C34   H14   S    
C42   H39   S    
C17   O7    A    
C17   O5    A    
C37   H20   S    
C18   O8    A    
C18   C20   S    
O3    Zn2   S    
C25   C27   A    
C43   H42   S    
O6    Zn2   S    
C26   C28   A    
C36   H19   S    
C35   H15   S    
C13   C15   S    
O10   C37   S    
C29   C31   A    
C45   H50   S    
C30   C32   A    
C11   C13   A    
N4    H11   S    
C27   H5    S    
N2    Zn2   S    
C28   C30   A    
C17   C19   S    
C44   H48   S    
C14   C16   S    
C23   C25   A    
C38   H24   S    
N12   C46   S    
N4    C34   S    
N5    H25   S    
C42   H40   S    
C40   H32   S    
N9    H41   S    
C40   H31   S    
C7    N1    A    
C8    N2    A    
C36   H18   S    
N10   H45   S    
C15   C16   T    
