data_mof_unit_65064.cif
_audit_creation_date              2012-12-10T19:02:17-0500
_audit_creation_method            fapswitch 2.2
_symmetry_space_group_name_H-M    P1
_symmetry_Int_Tables_number       1
_space_group_crystal_system       triclinic
_cell_length_a                    13.370477
_cell_length_b                    14.259337
_cell_length_c                    16.953294
_cell_angle_alpha                 89.989505
_cell_angle_beta                  85.698047
_cell_angle_gamma                 89.994709
_cell_volume                      3223.10906142

loop_
_atom_site_label
_atom_site_type_symbol
_atom_type_description
_atom_site_fract_x
_atom_site_fract_y
_atom_site_fract_z
_atom_type_partial_charge
C1    C     C_R   0.499995 0.673447 0.500019 0.932049
C2    C     C_1   0.169424 0.499999 0.499985 0.073670
C3    C     C_1   0.950476 0.500000 0.500005 -0.041512
C4    C     C_1   0.049524 0.499999 0.499995 -0.041512
C5    C     C_R   0.487294 0.501534 0.655101 0.904130
C6    C     C_R   0.512706 0.498466 0.344898 0.904115
C7    C     C_R   0.480150 0.518905 0.739359 -0.067538
C8    C     C_R   0.519849 0.481051 0.260647 -0.067519
C9    C     C_R   0.564545 0.552547 0.774499 -0.188044
C10   C     C_R   0.435464 0.447356 0.225524 -0.188034
C11   C     C_R   0.559832 0.567942 0.855095 -0.157976
C12   C     C_R   0.500005 0.326553 0.499981 0.932055
C13   C     C_R   0.440179 0.431908 0.144936 -0.157987
C14   C     C_R   0.471347 0.548252 0.901157 0.089887
C15   C     C_R   0.528654 0.451600 0.098862 0.089885
C16   C     C_R   0.384485 0.519381 0.865925 0.040543
C17   C     C_R   0.615509 0.480519 0.134079 0.040552
C18   C     C_R   0.389188 0.505497 0.784467 -0.235555
C19   C     C_R   0.610806 0.494454 0.215531 -0.235558
C20   C     C_2   0.478381 0.538688 0.985769 -0.100509
C21   C     C_2   0.521601 0.461150 0.014251 -0.100512
C22   C     C_1   0.560057 0.385228 0.963773 0.207153
C23   C     C_1   0.499989 0.774095 0.500028 -0.220441
C24   C     C_1   0.439924 0.614609 0.036247 0.207165
C25   C     C_1   0.292541 0.498205 0.912732 0.151701
C26   C     C_1   0.707444 0.501697 0.087260 0.151692
C27   C     C_1   0.500011 0.225904 0.499972 -0.220440
C28   C     C_1   0.499991 0.858661 0.500025 0.001482
C29   C     C_1   0.500009 0.141339 0.499975 0.001483
C30   C     C_1   0.499997 0.957720 0.500008 0.016917
C31   C     C_1   0.500003 0.042280 0.499991 0.016917
C32   C     C_1   0.830575 0.500001 0.500015 0.073671
H1    H     H_    0.634686 0.565274 0.739901 0.160931
H2    H     H_    0.365329 0.434629 0.260130 0.160930
H3    H     H_    0.676533 0.518859 0.243253 0.158214
H4    H     H_    0.323455 0.481131 0.756733 0.158221
H5    H     H_    0.373053 0.410586 0.117600 0.153637
H6    H     H_    0.626962 0.589229 0.882442 0.153643
N1    N     N_1   0.738130 0.500000 0.500020 -0.064939
N2    N     N_1   0.261870 0.500000 0.499980 -0.064940
N3    N     N_1   0.590743 0.324682 0.923451 -0.188532
N4    N     N_1   0.409237 0.675154 0.076570 -0.188537
N5    N     N_1   0.218930 0.481225 0.950314 -0.187542
N6    N     N_1   0.781046 0.518680 0.049669 -0.187552
O1    O     O_R   0.423530 0.626280 0.499990 -0.591955
O2    O     O_R   0.576470 0.373720 0.500010 -0.591953
O3    O     O_R   0.576470 0.626280 0.500010 -0.596522
O4    O     O_R   0.423530 0.373720 0.499990 -0.596523
O5    O     O_R   0.414510 0.500000 0.615790 -0.611103
O6    O     O_R   0.585490 0.500000 0.384210 -0.611096
O7    O     O_R   0.567420 0.500000 0.615810 -0.613121
O8    O     O_R   0.432580 0.500000 0.384190 -0.613119
Zn1   Zn    Zn3+2 0.397910 0.500000 0.499990 0.974963
Zn2   Zn    Zn3+2 0.602090 0.500000 0.500010 0.974967

loop_
_geom_bond_atom_site_label_1
_geom_bond_atom_site_label_2
_ccdc_geom_bond_type
C11   H6    S    
C2    C4    S    
N1    Zn2   S    
C15   C17   A    
C14   C20   S    
O4    Zn1   S    
C27   C29   T    
O7    Zn2   S    
C24   N4    T    
C13   H5    S    
C12   O4    A    
C7    C18   A    
C5    O5    A    
O2    Zn2   S    
C28   C30   S    
O1    Zn1   S    
C3    C32   S    
C29   C31   S    
C19   H3    S    
C23   C28   T    
C6    O6    A    
C9    H1    S    
C9    C11   A    
C1    O1    A    
O6    Zn2   S    
O3    Zn2   S    
O5    Zn1   S    
C17   C26   S    
C8    C10   A    
C25   N5    T    
C17   C19   A    
C8    C19   A    
C1    C23   S    
C5    C7    S    
C13   C15   A    
C30   C31   T    
C11   C14   A    
C14   C16   A    
C22   N3    T    
C12   C27   S    
C26   N6    T    
C3    C4    T    
C10   H2    S    
C2    N2    T    
C15   C21   S    
C20   C21   D    
C16   C18   A    
N2    Zn1   S    
C32   N1    T    
C16   C25   S    
C7    C9    A    
C1    O3    A    
C6    C8    S    
C6    O8    A    
C21   C22   S    
C18   H4    S    
C10   C13   A    
C5    O7    A    
C20   C24   S    
O8    Zn1   S    
C12   O2    A    
