data_mof_unit_54965.cif
_audit_creation_date              2012-12-10T18:19:59-0500
_audit_creation_method            fapswitch 2.2
_symmetry_space_group_name_H-M    P1
_symmetry_Int_Tables_number       1
_space_group_crystal_system       triclinic
_cell_length_a                    14.876855
_cell_length_b                    14.020441
_cell_length_c                    14.153233
_cell_angle_alpha                 89.302698
_cell_angle_beta                  86.255201
_cell_angle_gamma                 91.184123
_cell_volume                      2944.87966347

loop_
_atom_site_label
_atom_site_type_symbol
_atom_type_description
_atom_site_fract_x
_atom_site_fract_y
_atom_site_fract_z
_atom_type_partial_charge
C1    C     C_R   0.326849 0.499087 0.507200 0.876191
C2    C     C_R   0.970349 0.545842 0.328956 -0.070185
C3    C     C_R   0.544160 0.799601 0.427339 -0.045710
C4    C     C_R   0.455832 0.200399 0.572659 -0.045776
C5    C     C_R   0.455013 0.795793 0.572037 -0.040216
C6    C     C_R   0.545007 0.204203 0.427976 -0.040144
C7    C     C_R   0.453324 0.896648 0.574406 -0.042644
C8    C     C_R   0.546688 0.103348 0.425608 -0.042659
C9    C     C_R   0.544436 0.900623 0.424065 -0.041432
C10   C     C_R   0.455572 0.099375 0.575947 -0.041423
C11   C     C_R   0.499501 0.949423 0.499657 0.049937
C12   C     C_R   0.673150 0.500917 0.492801 0.876188
C13   C     C_R   0.500504 0.050574 0.500354 0.049943
C14   C     C_R   0.408035 0.945311 0.650052 -0.053380
C15   C     C_R   0.591990 0.054680 0.349974 -0.053439
C16   C     C_R   0.589380 0.953438 0.348270 -0.051136
C17   C     C_R   0.410649 0.046558 0.651757 -0.051110
C18   C     C_R   0.500317 0.500515 0.328966 0.890472
C19   C     C_R   0.499684 0.499486 0.671034 0.890475
C20   C     C_1   0.500165 0.501421 0.227553 -0.201885
C21   C     C_1   0.499837 0.498580 0.772447 -0.201883
C22   C     C_1   0.500074 0.501303 0.142360 -0.014183
C23   C     C_R   0.953327 0.500363 0.498131 0.022609
C24   C     C_1   0.499928 0.498699 0.857640 -0.014278
C25   C     C_1   0.500021 0.500458 0.042584 -0.025216
C26   C     C_1   0.499980 0.499545 0.957416 -0.025321
C27   C     C_R   0.820992 0.526454 0.410897 -0.260897
C28   C     C_R   0.179003 0.473782 0.589172 -0.260913
C29   C     C_R   0.768372 0.502091 0.492561 -0.052923
C30   C     C_R   0.231626 0.497950 0.507452 -0.052927
C31   C     C_R   0.805258 0.475064 0.575185 -0.231613
C32   C     C_R   0.194745 0.525009 0.424829 -0.231485
C33   C     C_R   0.898022 0.475798 0.580546 0.058056
C34   C     C_R   0.046674 0.500000 0.501962 0.022568
C35   C     C_R   0.101978 0.524506 0.419529 0.058066
C36   C     C_R   0.875809 0.429288 0.752753 0.150506
C37   C     C_R   0.830077 0.501931 0.802126 -0.182013
C38   C     C_R   0.765548 0.478917 0.875638 -0.146316
C39   C     C_R   0.747649 0.383611 0.901538 -0.122054
C40   C     C_R   0.793819 0.311021 0.853543 -0.158253
C41   C     C_R   0.857091 0.333612 0.778741 -0.136894
C42   C     C_R   0.124194 0.571107 0.247352 0.150365
C43   C     C_R   0.143414 0.666772 0.221695 -0.137838
C44   C     C_R   0.206675 0.689264 0.146852 -0.158196
C45   C     C_R   0.914719 0.524375 0.411731 0.071302
C46   C     C_R   0.252346 0.616575 0.098498 -0.121680
C47   C     C_R   0.233977 0.521278 0.124097 -0.146261
C48   C     C_R   0.169453 0.498375 0.197652 -0.181609
C49   C     C_R   0.067166 0.440491 0.764632 0.137877
C50   C     C_R   0.083262 0.519887 0.821114 -0.170335
C51   C     C_R   0.103214 0.506997 0.915511 -0.120902
C52   C     C_R   0.106336 0.414926 0.953977 -0.108568
C53   C     C_R   0.091756 0.335771 0.897679 -0.151705
C54   C     C_R   0.073339 0.348236 0.802836 -0.137653
C55   C     C_R   0.932793 0.559996 0.235493 0.137939
C56   C     C_R   0.085280 0.475978 0.588361 0.071331
C57   C     C_R   0.927343 0.652183 0.196899 -0.136780
C58   C     C_R   0.908625 0.664462 0.102116 -0.152488
C59   C     C_R   0.893019 0.585210 0.046275 -0.108777
C60   C     C_R   0.895454 0.493241 0.085136 -0.120828
C61   C     C_R   0.915693 0.480523 0.179470 -0.170934
C62   C     C_R   0.357394 0.890598 0.727627 0.115827
C63   C     C_R   0.391662 0.883039 0.817467 -0.122342
C64   C     C_R   0.343558 0.831219 0.889984 -0.139927
C65   C     C_R   0.261211 0.786781 0.873159 -0.118392
C66   C     C_R   0.226842 0.794002 0.783855 -0.130307
C67   C     C_R   0.935574 0.453015 0.666737 -0.070740
C68   C     C_R   0.274623 0.845820 0.711250 -0.181258
C69   C     C_R   0.642647 0.109383 0.272411 0.115969
C70   C     C_R   0.725518 0.153964 0.288743 -0.180962
C71   C     C_R   0.773290 0.205822 0.216161 -0.130444
C72   C     C_R   0.738800 0.213296 0.126933 -0.118426
C73   C     C_R   0.656350 0.169050 0.110156 -0.139838
C74   C     C_R   0.608263 0.117173 0.182646 -0.122603
C75   C     C_R   0.632889 0.903567 0.266025 0.116401
C76   C     C_R   0.579800 0.857088 0.201372 -0.181435
C77   C     C_R   0.620613 0.812171 0.122557 -0.132021
C78   C     C_R   0.064424 0.547411 0.333368 -0.070717
C79   C     C_R   0.714417 0.814195 0.107428 -0.101665
C80   C     C_R   0.767547 0.860599 0.171475 -0.136147
C81   C     C_R   0.727060 0.904656 0.250866 -0.126310
C82   C     C_R   0.367197 0.096426 0.734039 0.116258
C83   C     C_R   0.273045 0.095118 0.749422 -0.126056
C84   C     C_R   0.232633 0.139045 0.828925 -0.136490
C85   C     C_R   0.285811 0.185570 0.892845 -0.101867
C86   C     C_R   0.379592 0.187842 0.877479 -0.131855
C87   C     C_R   0.420336 0.143030 0.798566 -0.181594
C88   C     C_R   0.029645 0.454622 0.671156 -0.070223
H1    H     H_    0.788209 0.545863 0.347449 0.143493
H2    H     H_    0.729256 0.534985 0.912462 0.137282
H3    H     H_    0.697707 0.366078 0.958486 0.131205
H4    H     H_    0.779494 0.237179 0.873304 0.125275
H5    H     H_    0.890189 0.276695 0.739934 0.116969
H6    H     H_    0.110701 0.723740 0.260775 0.117059
H7    H     H_    0.221378 0.763094 0.127333 0.125288
H8    H     H_    0.302286 0.634022 0.041521 0.131261
H9    H     H_    0.269908 0.465134 0.087013 0.137264
H10   H     H_    0.156557 0.424333 0.217753 0.126819
H11   H     H_    0.076952 0.591471 0.793058 0.119632
H12   H     H_    0.211778 0.454410 0.652637 0.143400
H13   H     H_    0.113634 0.568351 0.959475 0.149082
H14   H     H_    0.118581 0.404508 0.027720 0.130517
H15   H     H_    0.092458 0.264868 0.928432 0.115639
H16   H     H_    0.059774 0.286389 0.760507 0.115512
H17   H     H_    0.941614 0.714079 0.238886 0.115238
H18   H     H_    0.908415 0.735276 0.071073 0.115674
H19   H     H_    0.880496 0.595460 0.972580 0.130756
H20   H     H_    0.884242 0.431799 0.041531 0.148781
H21   H     H_    0.921394 0.408971 0.207835 0.119895
H22   H     H_    0.455429 0.917124 0.831106 0.123744
H23   H     H_    0.759812 0.454706 0.635340 0.155512
H24   H     H_    0.370090 0.825466 0.959197 0.120445
H25   H     H_    0.223893 0.746856 0.929235 0.119779
H26   H     H_    0.163128 0.759541 0.770922 0.122397
H27   H     H_    0.247365 0.851104 0.642310 0.130887
H28   H     H_    0.752860 0.148499 0.357629 0.130796
H29   H     H_    0.837088 0.240126 0.229054 0.122275
H30   H     H_    0.776101 0.253270 0.070881 0.119559
H31   H     H_    0.629721 0.175001 0.041004 0.120479
H32   H     H_    0.544413 0.083244 0.169051 0.123694
H33   H     H_    0.507016 0.856046 0.211969 0.130662
H34   H     H_    0.240194 0.545228 0.364632 0.155487
H35   H     H_    0.579521 0.776317 0.072923 0.130361
H36   H     H_    0.745796 0.780069 0.045924 0.117821
H37   H     H_    0.840110 0.862949 0.159619 0.116451
H38   H     H_    0.768859 0.940318 0.300029 0.123933
H39   H     H_    0.231206 0.059353 0.700366 0.123973
H40   H     H_    0.160091 0.136482 0.840971 0.116352
H41   H     H_    0.254490 0.219595 0.954439 0.117686
H42   H     H_    0.420722 0.223788 0.927017 0.130362
H43   H     H_    0.493108 0.144231 0.787807 0.130757
H44   H     H_    0.579470 0.759320 0.372453 0.148449
H45   H     H_    0.420507 0.240681 0.627532 0.148429
H46   H     H_    0.421361 0.752545 0.627899 0.151017
H47   H     H_    0.578687 0.247445 0.372125 0.150982
H48   H     H_    0.842601 0.575973 0.781785 0.126940
N1    N     N_R   0.500000 0.750030 0.500000 -0.102001
N2    N     N_R   0.500000 0.249970 0.500000 -0.101989
O1    O     O_R   0.367850 0.580280 0.500020 -0.609190
O2    O     O_R   0.632150 0.419720 0.499980 -0.609216
O3    O     O_R   0.632150 0.580280 0.499980 -0.607192
O4    O     O_R   0.367850 0.419720 0.500020 -0.607214
O5    O     O_R   0.500000 0.580290 0.373720 -0.603453
O6    O     O_R   0.500000 0.419710 0.626280 -0.603454
O7    O     O_R   0.500000 0.580290 0.626280 -0.603544
O8    O     O_R   0.500000 0.419710 0.373720 -0.603533
Zn1   Zn    Zn3+2 0.500000 0.607200 0.500000 0.940864
Zn2   Zn    Zn3+2 0.500000 0.392800 0.500000 0.940853

loop_
_geom_bond_atom_site_label_1
_geom_bond_atom_site_label_2
_ccdc_geom_bond_type
C84   H40   S    
C57   H17   S    
C34   C56   A    
C19   O6    A    
C73   H31   S    
C81   H38   S    
C27   C29   A    
C16   C75   S    
C73   C74   A    
C66   C68   A    
C14   C17   A    
O6    Zn2   S    
C61   H21   S    
O2    Zn2   S    
C28   C56   A    
C36   C67   S    
C53   C54   A    
C7    C11   A    
C52   H14   S    
C50   H11   S    
C19   O7    A    
C23   C45   A    
C76   H33   S    
C54   H16   S    
C18   O5    A    
C19   C21   S    
C9    C16   A    
C24   C26   S    
C34   C35   A    
C2    C55   S    
C38   C39   A    
C12   C29   S    
C56   C88   A    
C80   H37   S    
C10   C17   A    
C15   C16   A    
C14   C62   S    
C43   H6    S    
C12   O3    A    
C17   C82   S    
C87   H43   S    
C49   C50   A    
C1    O4    A    
C85   H41   S    
C7    C14   A    
C41   H5    S    
C83   C84   A    
N2    Zn2   S    
C23   C33   A    
C22   C25   S    
C31   C33   A    
C70   C71   A    
C3    N1    A    
C60   H20   S    
C72   C73   A    
C28   H12   S    
C59   C60   A    
C49   C88   S    
C36   C41   A    
C39   H3    S    
O7    Zn1   S    
C44   C46   A    
O8    Zn2   S    
C77   C79   A    
C2    C45   A    
C5    H46   S    
C15   C69   S    
C71   H29   S    
C63   C64   A    
C3    H44   S    
C32   C35   A    
C32   H34   S    
C76   C77   A    
C39   C40   A    
C5    C7    A    
C86   C87   A    
C75   C81   A    
C6    C8    A    
C70   H28   S    
C25   C26   T    
C85   C86   A    
C59   H19   S    
C51   C52   A    
C60   C61   A    
C58   H18   S    
C6    N2    A    
O5    Zn1   S    
C75   C76   A    
C37   C38   A    
C3    C9    A    
O4    Zn2   S    
C47   C48   A    
C23   C34   A    
O1    Zn1   S    
C62   C63   A    
C12   O2    A    
C50   C51   A    
C67   C88   A    
C37   H48   S    
C69   C74   A    
C42   C48   A    
C84   C85   A    
C9    C11   A    
C40   C41   A    
C20   C22   T    
C42   C78   S    
C8    C15   A    
C55   C57   A    
C43   C44   A    
C82   C87   A    
C6    H47   S    
C2    C78   A    
C42   C43   A    
C4    C10   A    
C48   H10   S    
C52   C53   A    
C33   C67   A    
C46   C47   A    
C36   C37   A    
C66   H26   S    
C65   H25   S    
N1    Zn1   S    
C86   H42   S    
C83   H39   S    
C80   C81   A    
C18   O8    A    
C10   C13   A    
C1    O1    A    
C5    N1    A    
C51   H13   S    
C74   H32   S    
C79   H36   S    
C38   H2    S    
C35   C78   A    
C47   H9    S    
C62   C68   A    
C64   C65   A    
C63   H22   S    
C28   C30   A    
C58   C59   A    
C71   C72   A    
C29   C31   A    
C44   H7    S    
C30   C32   A    
C11   C13   A    
C27   C45   A    
C57   C58   A    
C77   H35   S    
C53   H15   S    
C55   C61   A    
C1    C30   S    
C27   H1    S    
C18   C20   S    
C65   C66   A    
C69   C70   A    
C40   H4    S    
C64   H24   S    
O3    Zn1   S    
C68   H27   S    
C4    N2    A    
C79   C80   A    
C8    C13   A    
C46   H8    S    
C82   C83   A    
C21   C24   T    
C72   H30   S    
C31   H23   S    
C49   C54   A    
C4    H45   S    
