data_mof_unit_28361.cif
_audit_creation_date              2012-10-26T21:20:14-0400
_audit_creation_method            fapswitch 2.2
_symmetry_space_group_name_H-M    P1
_symmetry_Int_Tables_number       1
_space_group_crystal_system       triclinic
_cell_length_a                    13.093445
_cell_length_b                    10.749486
_cell_length_c                    9.560376
_cell_angle_alpha                 89.049648
_cell_angle_beta                  95.679275
_cell_angle_gamma                 91.415634
_cell_volume                      1338.45300932

loop_
_atom_site_label
_atom_site_type_symbol
_atom_type_description
_atom_site_fract_x
_atom_site_fract_y
_atom_site_fract_z
_atom_type_partial_charge
C1    C     C_R   0.498016 0.262491 0.500531 0.553727
C2    C     C_R   0.699757 0.508239 0.526263 0.542359
C3    C     C_R   0.813710 0.521595 0.542427 0.000366
C4    C     C_R   0.186290 0.478405 0.457573 0.000366
C5    C     C_R   0.020769 0.452902 0.317862 0.015998
C6    C     C_R   0.979230 0.547099 0.682138 0.015998
C7    C     C_R   0.128863 0.461799 0.323854 -0.009597
C8    C     C_R   0.871137 0.538202 0.676146 -0.009596
C9    C     C_R   0.132800 0.477054 0.579262 -0.028856
C10   C     C_R   0.867200 0.522946 0.420738 -0.028856
C11   C     C_R   0.028386 0.506411 0.566095 0.033865
C12   C     C_R   0.501984 0.737509 0.499469 0.553727
C13   C     C_R   0.971614 0.493590 0.433905 0.033865
C14   C     C_R   0.414166 0.060706 0.431256 -0.007806
C15   C     C_R   0.585834 0.939294 0.568744 -0.007806
C16   C     C_R   0.418879 0.931552 0.429729 -0.108266
C17   C     C_R   0.581121 0.068448 0.570271 -0.108267
C18   C     C_3   0.821689 0.585024 0.286114 -0.374586
C19   C     C_3   0.178311 0.414977 0.713886 -0.374586
C20   C     C_3   0.819131 0.552087 0.810224 -0.374419
C21   C     C_3   0.180869 0.447915 0.189775 -0.374419
C22   C     C_3   0.959821 0.386698 0.196523 -0.401216
C23   C     C_R   0.503374 0.871465 0.498401 0.044335
C24   C     C_3   0.040178 0.613303 0.803477 -0.401216
C25   C     C_3   0.320406 0.123967 0.362011 -0.383459
C26   C     C_3   0.679593 0.876033 0.637991 -0.383458
C27   C     C_1   0.406640 0.297146 0.854263 0.213427
C28   C     C_1   0.593360 0.702854 0.145737 0.213427
C29   C     C_R   0.496626 0.128535 0.501599 0.044334
C30   C     C_R   0.453553 0.405722 0.071372 -0.009477
C31   C     C_R   0.546447 0.594278 0.928627 -0.009477
C32   C     C_R   0.453683 0.404656 0.923693 0.091042
C33   C     C_R   0.546317 0.595344 0.076307 0.091042
C34   C     C_R   0.300243 0.491761 0.473737 0.542359
Cu1   Cu    Cu3+1 0.500000 0.500020 0.640660 0.939895
Cu2   Cu    Cu3+1 0.500000 0.499980 0.359340 0.939894
H1    H     H_    0.355958 0.877100 0.377300 0.113031
H2    H     H_    0.117952 0.377966 0.778141 0.122403
H3    H     H_    0.872641 0.568296 0.905286 0.106024
H4    H     H_    0.767030 0.632241 0.799584 0.135036
H5    H     H_    0.776435 0.464877 0.833252 0.159639
H6    H     H_    0.127359 0.431707 0.094713 0.106024
H7    H     H_    0.223565 0.535125 0.166749 0.159639
H8    H     H_    0.232970 0.367761 0.200415 0.135036
H9    H     H_    0.883165 0.354105 0.223810 0.142194
H10   H     H_    0.950711 0.448546 0.102407 0.116326
H11   H     H_    0.999499 0.301067 0.170865 0.133312
H12   H     H_    0.644042 0.122900 0.622699 0.113031
H13   H     H_    0.116835 0.645896 0.776189 0.142194
H14   H     H_    0.000501 0.698935 0.829134 0.133312
H15   H     H_    0.049289 0.551456 0.897592 0.116326
H16   H     H_    0.341542 0.182104 0.272156 0.134186
H17   H     H_    0.260167 0.055556 0.321408 0.121216
H18   H     H_    0.287224 0.183591 0.439004 0.136259
H19   H     H_    0.658457 0.817901 0.727849 0.134185
H20   H     H_    0.712773 0.816404 0.561001 0.136258
H21   H     H_    0.739833 0.944444 0.678589 0.121216
H22   H     H_    0.416559 0.330427 0.124906 0.110339
H23   H     H_    0.583441 0.669572 0.875094 0.110339
H24   H     H_    0.779074 0.667326 0.313470 0.165442
H25   H     H_    0.882048 0.622035 0.221859 0.122403
H26   H     H_    0.770559 0.520095 0.221104 0.153606
H27   H     H_    0.220925 0.332674 0.686530 0.165442
H28   H     H_    0.229441 0.479906 0.778895 0.153606
N1    N     N_R   0.500030 0.500030 0.852080 -0.248190
N2    N     N_R   0.499970 0.499970 0.147920 -0.248190
N3    N     N_1   0.369387 0.208529 0.801875 -0.330863
N4    N     N_1   0.630613 0.791471 0.198125 -0.330862
O1    O     O_R   0.499990 0.319660 0.618740 -0.483159
O2    O     O_R   0.500010 0.680340 0.381260 -0.483159
O3    O     O_R   0.499990 0.319630 0.381170 -0.510829
O4    O     O_R   0.500010 0.680370 0.618830 -0.510829
O5    O     O_R   0.349000 0.499990 0.599490 -0.498116
O6    O     O_R   0.651000 0.500010 0.400510 -0.498115
O7    O     O_R   0.348990 0.499960 0.361920 -0.515189
O8    O     O_R   0.651010 0.500040 0.638080 -0.515189

loop_
_geom_bond_atom_site_label_1
_geom_bond_atom_site_label_2
_ccdc_geom_bond_type
C17   C29   A    
Cu1   Cu2   S    
C17   H12   S    
C26   H19   S    
C20   H5    S    
C12   C23   S    
C8    C20   S    
C28   N4    T    
C25   H17   S    
C20   H4    S    
Cu2   N2    S    
Cu1   N1    S    
C31   N1    A    
C31   H23   S    
C19   H2    S    
C21   H7    S    
C9    C19   S    
C5    C22   S    
C19   H27   S    
C31   C33   A    
C5    C13   A    
C2    O6    A    
Cu2   O3    S    
C34   O7    A    
C24   H15   S    
C15   C23   A    
C22   H11   S    
C12   O4    A    
C4    C7    A    
Cu2   O2    S    
C33   N2    A    
C24   H14   S    
C4    C34   S    
Cu1   O8    S    
C25   H18   S    
C3    C8    A    
C6    C11   A    
C5    C7    A    
C20   H3    S    
C18   H26   S    
C15   C26   S    
C6    C8    A    
C7    C21   S    
C1    O1    A    
Cu2   O7    S    
C21   H8    S    
C19   H28   S    
C6    C24   S    
C1    C29   S    
C1    O3    A    
C9    C11   A    
C30   N2    A    
Cu2   O6    S    
C18   H24   S    
C22   H10   S    
Cu1   O4    S    
C16   C23   A    
C14   C16   A    
C14   C29   A    
C2    O8    A    
C24   H13   S    
C15   C17   A    
C12   O2    A    
Cu1   O5    S    
C27   C32   S    
C10   C13   A    
C26   H20   S    
C28   C33   S    
C18   H25   S    
C16   H1    S    
C2    C3    S    
C25   H16   S    
C3    C10   A    
C30   C32   A    
C11   C13   A    
C10   C18   S    
C30   H22   S    
C14   C25   S    
C26   H21   S    
C27   N3    T    
C34   O5    A    
C21   H6    S    
C22   H9    S    
Cu1   O1    S    
C4    C9    A    
C32   N1    A    
