data_mof_unit_41857.cif
_audit_creation_date              2013-03-05T15:44:19-0500
_audit_creation_method            fapswitch 2.2
_symmetry_space_group_name_H-M    P1
_symmetry_Int_Tables_number       1
_space_group_crystal_system       triclinic
_cell_length_a                    30.235952
_cell_length_b                    30.649644
_cell_length_c                    21.539401
_cell_angle_alpha                 90.000664
_cell_angle_beta                  134.220264
_cell_angle_gamma                 89.998831
_cell_volume                      14305.3434425

loop_
_atom_site_label
_atom_site_type_symbol
_atom_site_description
_atom_site_fract_x
_atom_site_fract_y
_atom_site_fract_z
_atom_type_partial_charge
O1    O     O_R   0.321630 0.769940 0.143350 -0.581833
O2    O     O_R   0.678370 0.769940 0.856650 -0.581831
O3    O     O_R   0.821630 0.269940 0.143350 -0.581823
O4    O     O_R   0.178370 0.269940 0.856650 -0.581850
O5    O     O_R   0.269950 0.821660 0.039930 -0.649292
O6    O     O_R   0.730050 0.821660 0.960070 -0.649319
O7    O     O_R   0.769950 0.321660 0.039930 -0.649318
O8    O     O_R   0.230050 0.321660 0.960070 -0.649312
C1    C     C_R   0.307430 0.810147 0.119519 0.917911
C2    C     C_R   0.692570 0.810147 0.880481 0.917944
C3    C     C_R   0.807430 0.310147 0.119519 0.917949
C4    C     C_R   0.192569 0.310147 0.880481 0.917865
O9    O     O_R   0.341900 0.724110 0.051720 -0.616274
O10   O     O_R   0.658100 0.724110 0.948280 -0.616274
O11   O     O_R   0.841900 0.224110 0.051720 -0.616270
O12   O     O_R   0.158100 0.224110 0.948280 -0.616268
O13   O     O_R   0.290220 0.775830 0.948290 -0.647276
O14   O     O_R   0.709780 0.775830 0.051710 -0.647261
O15   O     O_R   0.790220 0.275830 0.948290 -0.647273
O16   O     O_R   0.209780 0.275830 0.051710 -0.647291
C5    C     C_R   0.336230 0.750039 0.999390 0.848495
C6    C     C_R   0.663771 0.750039 0.000612 0.848555
C7    C     C_R   0.836230 0.250038 0.999389 0.848523
C8    C     C_R   0.163771 0.250040 0.000612 0.848481
Zn1   Zn    Zn3+2 0.284500 0.715460 0.069080 1.121417
Zn2   Zn    Zn3+2 0.715500 0.715460 0.930920 1.121426
Zn3   Zn    Zn3+2 0.784500 0.215460 0.069080 1.121416
Zn4   Zn    Zn3+2 0.215500 0.215460 0.930920 1.121542
Zn5   Zn    Zn3+2 0.215490 0.784530 0.930970 1.012775
Zn6   Zn    Zn3+2 0.784510 0.784530 0.069030 1.012662
Zn7   Zn    Zn3+2 0.715490 0.284530 0.930970 1.012693
Zn8   Zn    Zn3+2 0.284510 0.284530 0.069030 1.012732
O17   O     O_R   0.230030 0.678320 0.960120 -0.586039
O18   O     O_R   0.769970 0.678320 0.039880 -0.586022
O19   O     O_R   0.730030 0.178320 0.960120 -0.586036
O20   O     O_R   0.269970 0.178320 0.039880 -0.586126
O21   O     O_R   0.178350 0.730040 0.856700 -0.604425
O22   O     O_R   0.821650 0.730040 0.143300 -0.604469
O23   O     O_R   0.678350 0.230040 0.856700 -0.604438
O24   O     O_R   0.321650 0.230040 0.143300 -0.604389
O25   O     O_R   0.209770 0.724150 0.051760 -0.539746
O26   O     O_R   0.790230 0.724150 0.948240 -0.539760
O27   O     O_R   0.709770 0.224150 0.051760 -0.539756
O28   O     O_R   0.290230 0.224150 0.948240 -0.539790
O29   O     O_R   0.158090 0.775870 0.948330 -0.592326
O30   O     O_R   0.841910 0.775870 0.051670 -0.592339
O31   O     O_R   0.658090 0.275870 0.948330 -0.592354
O32   O     O_R   0.341910 0.275870 0.051670 -0.592320
C9    C     C_R   0.192543 0.690358 0.879918 0.927749
C10   C     C_R   0.807465 0.690359 0.120084 0.927784
C11   C     C_R   0.692538 0.190358 0.879918 0.927785
C12   C     C_R   0.307434 0.190360 0.120079 0.927756
C13   C     C_R   0.163180 0.749686 0.999641 0.985594
C14   C     C_R   0.836820 0.749685 0.000358 0.985600
C15   C     C_R   0.663179 0.249685 0.999639 0.985603
C16   C     C_R   0.336822 0.249686 0.000360 0.985879
C17   C     C_R   0.594231 0.789827 0.003096 0.098853
C18   C     C_R   0.405765 0.789826 0.996898 0.098835
C19   C     C_R   0.094232 0.289829 0.003097 0.098855
C20   C     C_R   0.905766 0.289828 0.996901 0.098856
C21   C     C_R   0.617925 0.749831 0.004626 -0.076481
C22   C     C_R   0.382083 0.749831 0.995387 -0.076501
C23   C     C_R   0.117928 0.249833 0.004632 -0.076427
C24   C     C_R   0.882084 0.249832 0.995390 -0.076518
C25   C     C_R   0.600537 0.709769 0.014264 0.092567
C26   C     C_R   0.399497 0.709767 0.985797 0.092578
C27   C     C_R   0.100552 0.209773 0.014294 0.092574
C28   C     C_R   0.899502 0.209768 0.985804 0.092595
C29   C     C_R   0.549001 0.708695 0.004186 -0.045940
C30   C     C_R   0.451041 0.708695 0.995892 -0.045925
C31   C     C_R   0.049016 0.208698 0.004217 -0.045951
C32   C     C_R   0.951050 0.208697 0.995909 -0.045922
C33   C     C_R   0.524893 0.748853 0.003098 -0.070195
C34   C     C_R   0.475128 0.748852 0.996942 -0.070190
C35   C     C_R   0.024901 0.248855 0.003114 -0.070195
C36   C     C_R   0.975135 0.248855 0.996956 -0.070194
C37   C     C_R   0.551267 0.789314 0.010122 0.079210
C38   C     C_R   0.448734 0.789312 0.989881 0.079202
C39   C     C_R   0.051270 0.289317 0.010127 0.079202
C40   C     C_R   0.948736 0.289314 0.989887 0.079203
C41   C     C_R   0.522244 0.668935 0.998283 0.215703
C42   C     C_R   0.477824 0.668936 0.001849 0.215684
C43   C     C_R   0.022266 0.168937 0.998327 0.215688
C44   C     C_R   0.977840 0.168938 0.001881 0.215693
C45   C     C_R   0.471006 0.828435 0.985148 0.165083
C46   C     C_R   0.528979 0.828438 0.014826 0.165119
C47   C     C_R   0.971005 0.328437 0.985148 0.165101
C48   C     C_R   0.028979 0.328441 0.014824 0.165111
C49   C     C_R   0.251570 0.865551 0.164055 0.162445
C50   C     C_R   0.748433 0.865555 0.835955 0.162479
C51   C     C_R   0.751567 0.365559 0.164046 0.162487
C52   C     C_R   0.248427 0.365537 0.835932 0.162377
C53   C     C_R   0.233091 0.871622 0.207530 -0.144825
C54   C     C_R   0.766916 0.871630 0.792485 -0.144870
C55   C     C_R   0.733085 0.371639 0.207515 -0.144874
C56   C     C_R   0.266903 0.371598 0.792451 -0.144855
H1    H     H_    0.184336 0.871197 0.171160 0.160323
H2    H     H_    0.815671 0.871207 0.828860 0.160325
H3    H     H_    0.684330 0.371219 0.171141 0.160333
H4    H     H_    0.315656 0.371164 0.828816 0.160333
C57   C     C_R   0.276568 0.877543 0.297084 0.070606
C58   C     C_R   0.723441 0.877549 0.702931 0.070603
C59   C     C_R   0.776560 0.377557 0.297069 0.070591
C60   C     C_R   0.223423 0.377521 0.702897 0.070606
C61   C     C_R   0.339299 0.883235 0.342346 0.358166
C62   C     C_R   0.660709 0.883238 0.657664 0.358179
C63   C     C_R   0.839293 0.383242 0.342337 0.358183
C64   C     C_R   0.160695 0.383226 0.657643 0.358163
C65   C     C_R   0.356894 0.882235 0.295738 -0.110334
C66   C     C_R   0.643110 0.882236 0.704267 -0.110349
C67   C     C_R   0.856891 0.382237 0.295734 -0.110344
C68   C     C_R   0.143104 0.382230 0.704256 -0.110333
C69   C     C_R   0.315584 0.864309 0.212275 0.000832
C70   C     C_R   0.684419 0.864310 0.787730 0.000813
C71   C     C_R   0.815582 0.364311 0.212270 0.000812
C72   C     C_R   0.184415 0.364303 0.787719 0.000801
C73   C     C_R   0.341518 0.843540 0.184930 -0.101625
C74   C     C_R   0.658482 0.843540 0.815070 -0.101643
C75   C     C_R   0.841517 0.343541 0.184929 -0.101641
C76   C     C_R   0.158481 0.343539 0.815067 -0.101633
C77   C     C_R   0.404520 0.849042 0.231838 0.033080
C78   C     C_R   0.595478 0.849040 0.768156 0.033063
C79   C     C_R   0.904520 0.349042 0.231837 0.033058
C80   C     C_R   0.095479 0.349042 0.768158 0.033077
C81   C     C_R   0.437348 0.881659 0.294657 0.340956
C82   C     C_R   0.562652 0.881658 0.705340 0.340946
C83   C     C_R   0.937347 0.381660 0.294655 0.340953
C84   C     C_R   0.062653 0.381660 0.705342 0.340931
C85   C     C_R   0.413303 0.899100 0.327070 -0.213184
C86   C     C_R   0.586699 0.899101 0.672931 -0.213182
C87   C     C_R   0.913301 0.399101 0.327068 -0.213179
C88   C     C_R   0.086698 0.399100 0.672929 -0.213186
C89   C     C_R   0.867882 0.746861 0.920997 0.223744
C90   C     C_R   0.132117 0.746859 0.079002 0.223755
C91   C     C_R   0.367883 0.246841 0.920995 0.223707
C92   C     C_R   0.632117 0.246867 0.078998 0.223744
C93   C     C_R   0.884567 0.749661 0.000135 -0.301722
C94   C     C_R   0.115432 0.749665 0.999865 -0.301728
C95   C     C_R   0.384568 0.249674 0.000131 -0.301657
C96   C     C_R   0.615431 0.249661 0.999860 -0.301722
C97   C     C_R   0.946539 0.752631 0.079103 0.255690
C98   C     C_R   0.053461 0.752645 0.920898 0.255698
C99   C     C_R   0.446539 0.252697 0.079090 0.255885
C100  C     C_R   0.553460 0.252627 0.920891 0.255684
C101  C     C_R   0.993263 0.748675 0.080029 -0.021769
C102  C     C_R   0.006737 0.748685 0.919972 -0.021760
C103  C     C_R   0.493261 0.248719 0.080018 -0.021803
C104  C     C_R   0.506737 0.248666 0.919965 -0.021745
C105  C     C_R   0.976712 0.749559 0.999970 -0.042404
C106  C     C_R   0.023288 0.749560 0.000031 -0.042404
C107  C     C_R   0.476710 0.249566 0.999960 -0.042432
C108  C     C_R   0.523287 0.249561 0.000023 -0.042399
C109  C     C_R   0.913657 0.750491 0.919876 -0.025836
C110  C     C_R   0.086343 0.750486 0.080124 -0.025838
C111  C     C_R   0.413655 0.250472 0.919867 -0.025832
C112  C     C_R   0.586342 0.250502 0.080118 -0.025859
C113  C     C_R   0.056192 0.745386 0.158892 0.165309
C114  C     C_R   0.943807 0.745402 0.841107 0.165315
C115  C     C_R   0.556189 0.245446 0.158887 0.165468
C116  C     C_R   0.443809 0.245363 0.841103 0.165318
C117  C     C_R   0.101736 0.753380 0.159046 0.173782
C118  C     C_R   0.898264 0.753392 0.840956 0.173780
C119  C     C_R   0.601734 0.253420 0.159037 0.173765
C120  C     C_R   0.398260 0.253350 0.840942 0.173778
C121  C     C_R   0.195850 0.690423 0.747179 0.091837
C122  C     C_R   0.804233 0.690486 0.252887 0.091930
C123  C     C_R   0.695829 0.190441 0.747167 0.091868
C124  C     C_R   0.304270 0.190501 0.252956 0.091881
C125  C     C_R   0.222676 0.677135 0.717281 0.183175
C126  C     C_R   0.777389 0.677235 0.282772 0.183056
C127  C     C_R   0.722667 0.177164 0.717284 0.183126
C128  C     C_R   0.277440 0.177248 0.282860 0.183103
C129  C     C_R   0.192328 0.644508 0.653280 0.073203
C130  C     C_R   0.807706 0.644610 0.346771 0.073359
C131  C     C_R   0.692335 0.144536 0.653287 0.073271
C132  C     C_R   0.307751 0.144608 0.346832 0.073311
C133  C     C_R   0.138126 0.625824 0.625677 0.300759
C134  C     C_R   0.861864 0.625857 0.374333 0.300847
C135  C     C_R   0.638145 0.125829 0.625690 0.300849
C136  C     C_R   0.361910 0.125864 0.374384 0.300787
C137  C     C_R   0.129229 0.626691 0.683236 -0.083363
C138  C     C_R   0.870781 0.626709 0.316790 -0.083467
C139  C     C_R   0.629231 0.126694 0.683233 -0.083400
C140  C     C_R   0.370808 0.126719 0.316821 -0.083452
C141  C     C_R   0.161035 0.659206 0.747560 -0.033196
C142  C     C_R   0.839003 0.659233 0.252478 -0.033205
C143  C     C_R   0.661026 0.159213 0.747552 -0.033211
C144  C     C_R   0.339031 0.159251 0.252527 -0.033184
C145  C     C_R   0.159110 0.658646 0.811581 -0.209841
C146  C     C_R   0.840899 0.658649 0.188428 -0.209873
C147  C     C_R   0.659106 0.158647 0.811578 -0.209856
C148  C     C_R   0.340862 0.158645 0.188416 -0.209663
C149  C     C_R   0.125187 0.627619 0.811517 0.324925
C150  C     C_R   0.874789 0.627601 0.188468 0.324903
C151  C     C_R   0.625191 0.127614 0.811519 0.324924
C152  C     C_R   0.374646 0.127550 0.188335 0.324918
C153  C     C_R   0.092684 0.595532 0.748007 0.027779
C154  C     C_R   0.907286 0.595515 0.251978 0.027770
C155  C     C_R   0.592693 0.095527 0.748012 0.027795
C156  C     C_R   0.407279 0.095523 0.251958 0.027415
C157  C     C_R   0.092459 0.595943 0.681759 -0.090254
C158  C     C_R   0.907533 0.595945 0.318249 -0.090274
C159  C     C_R   0.592464 0.095943 0.681759 -0.090242
C160  C     C_R   0.407552 0.095956 0.318260 -0.090090
O33   O     O_R   0.991500 0.545800 0.408400 -0.568023
O34   O     O_R   0.008500 0.545800 0.591600 -0.567980
O35   O     O_R   0.491500 0.045800 0.408400 -0.568143
O36   O     O_R   0.508500 0.045800 0.591600 -0.567984
O37   O     O_R   0.916920 0.545810 0.408440 -0.623620
O38   O     O_R   0.083080 0.545810 0.591560 -0.623815
O39   O     O_R   0.416920 0.045810 0.408440 -0.623667
O40   O     O_R   0.583080 0.045810 0.591560 -0.623724
C161  C     C_R   0.940872 0.561311 0.382339 0.927365
C162  C     C_R   0.059130 0.561307 0.617672 0.927261
C163  C     C_R   0.440875 0.061313 0.382338 0.927344
C164  C     C_R   0.559130 0.061308 0.617670 0.927329
O41   O     O_R   0.491480 0.954180 0.408380 -0.549898
O42   O     O_R   0.508520 0.954180 0.591620 -0.549898
O43   O     O_R   0.991480 0.454180 0.408380 -0.549898
O44   O     O_R   0.008520 0.454180 0.591620 -0.549893
O45   O     O_R   0.416890 0.954190 0.408420 -0.612654
O46   O     O_R   0.583110 0.954190 0.591580 -0.612681
O47   O     O_R   0.916890 0.454190 0.408420 -0.612664
O48   O     O_R   0.083110 0.454190 0.591580 -0.612686
C165  C     C_R   0.442495 0.937194 0.384967 0.907404
C166  C     C_R   0.557506 0.937195 0.615034 0.907324
C167  C     C_R   0.942494 0.437195 0.384966 0.907335
C168  C     C_R   0.057506 0.437194 0.615033 0.907338
Zn9   Zn    Zn3+2 0.549790 0.999990 0.499990 1.150908
Zn10  Zn    Zn3+2 0.450210 0.999990 0.500010 1.151044
Zn11  Zn    Zn3+2 0.049790 0.499990 0.499990 1.150878
Zn12  Zn    Zn3+2 0.950210 0.499990 0.500010 1.151124
C169  C     C_3   0.609573 0.832328 0.984547 -0.836201
H5    H     H_    0.627850 0.827763 0.955242 0.238508
H6    H     H_    0.567344 0.852274 0.936763 0.244489
H7    H     H_    0.645647 0.850684 0.045232 0.254899
C170  C     C_3   0.390410 0.832330 0.015424 -0.836116
H8    H     H_    0.372140 0.827768 0.044738 0.238515
H9    H     H_    0.432631 0.852284 0.063192 0.244482
H10   H     H_    0.354326 0.850676 0.954728 0.254913
C171  C     C_3   0.109571 0.332330 0.984542 -0.836203
H11   H     H_    0.127851 0.327763 0.955243 0.238513
H12   H     H_    0.067341 0.352273 0.936754 0.244488
H13   H     H_    0.145643 0.350688 0.045224 0.254900
C172  C     C_3   0.890409 0.332332 0.015423 -0.836166
H14   H     H_    0.872140 0.327769 0.044739 0.238515
H15   H     H_    0.932629 0.352287 0.063190 0.244485
H16   H     H_    0.854324 0.350676 0.954726 0.254900
N1    N     N_R   0.493458 0.897518 0.322219 0.245463
O49   O     O_R   0.541138 0.871924 0.364641 -0.305328
O50   O     O_R   0.491501 0.932450 0.286027 -0.382393
N2    N     N_R   0.506541 0.897518 0.677778 0.245472
O51   O     O_R   0.458863 0.871926 0.635361 -0.305330
O52   O     O_R   0.508499 0.932452 0.713970 -0.382395
N3    N     N_R   0.993455 0.397520 0.322213 0.245472
O53   O     O_R   0.041134 0.371927 0.364627 -0.305339
O54   O     O_R   0.991495 0.432454 0.286022 -0.382399
N4    N     N_R   0.006544 0.397522 0.677785 0.245463
O55   O     O_R   0.958864 0.371932 0.635363 -0.305322
O56   O     O_R   0.008506 0.432455 0.713981 -0.382397
N5    N     N_R   0.805145 0.737040 0.843074 0.219076
O57   O     O_R   0.791157 0.698270 0.809199 -0.334730
O58   O     O_R   0.761330 0.765109 0.810849 -0.412058
N6    N     N_R   0.194853 0.737033 0.156924 0.219077
O59   O     O_R   0.208840 0.698260 0.190789 -0.334733
O60   O     O_R   0.238669 0.765101 0.189156 -0.412059
N7    N     N_R   0.305153 0.236996 0.843084 0.219075
O61   O     O_R   0.291186 0.198216 0.809255 -0.334698
O62   O     O_R   0.261323 0.265059 0.810819 -0.412026
N8    N     N_R   0.694854 0.237047 0.156925 0.219077
O63   O     O_R   0.708842 0.198279 0.190810 -0.334760
O64   O     O_R   0.738669 0.265113 0.189143 -0.412063
N9    N     N_R   0.961498 0.763338 0.156963 0.212774
O65   O     O_R   0.982248 0.802066 0.190549 -0.379088
O66   O     O_R   0.949711 0.736002 0.190128 -0.345224
N10   N     N_R   0.038501 0.763369 0.843045 0.212781
O67   O     O_R   0.017753 0.802102 0.809482 -0.379088
O68   O     O_R   0.050277 0.736041 0.809854 -0.345150
N11   N     N_R   0.461502 0.263502 0.156919 0.212819
O69   O     O_R   0.482260 0.302250 0.190389 -0.379179
O70   O     O_R   0.449788 0.236218 0.190240 -0.344907
N12   N     N_R   0.538498 0.263338 0.843031 0.212782
O71   O     O_R   0.517724 0.302062 0.809431 -0.379092
O72   O     O_R   0.550295 0.236009 0.809868 -0.345193
C173  C     C_3   0.076426 0.727843 0.241428 -0.725979
H17   H     H_    0.121772 0.711112 0.282464 0.230084
H18   H     H_    0.080922 0.754617 0.280159 0.269014
H19   H     H_    0.043880 0.702475 0.226242 0.279597
C174  C     C_3   0.923574 0.727868 0.758567 -0.725979
H20   H     H_    0.878228 0.711139 0.717524 0.230082
H21   H     H_    0.919079 0.754647 0.719844 0.269015
H22   H     H_    0.956120 0.702502 0.773744 0.279611
C175  C     C_3   0.576416 0.227936 0.241436 -0.726305
H23   H     H_    0.621757 0.211196 0.282487 0.230084
H24   H     H_    0.580918 0.254729 0.280143 0.269074
H25   H     H_    0.543860 0.202583 0.226271 0.279365
C176  C     C_3   0.423587 0.227811 0.758581 -0.725987
H26   H     H_    0.378252 0.211068 0.717555 0.230085
H27   H     H_    0.419076 0.254582 0.719832 0.269008
H28   H     H_    0.456150 0.202452 0.773784 0.279626
C177  C     C_3   0.163682 0.770283 0.242199 -0.787493
H29   H     H_    0.197304 0.743243 0.280153 0.286177
H30   H     H_    0.181484 0.795760 0.227842 0.252484
H31   H     H_    0.159289 0.786698 0.283658 0.228221
C178  C     C_3   0.836317 0.770299 0.757807 -0.787495
H32   H     H_    0.802695 0.743260 0.719847 0.286181
H33   H     H_    0.818516 0.795774 0.772170 0.252491
H34   H     H_    0.840710 0.786718 0.716352 0.228219
C179  C     C_3   0.663682 0.270327 0.242181 -0.787469
H35   H     H_    0.697303 0.243288 0.280147 0.286170
H36   H     H_    0.681484 0.295795 0.227809 0.252491
H37   H     H_    0.659293 0.286756 0.283633 0.228227
C180  C     C_3   0.336303 0.270232 0.757774 -0.787465
H38   H     H_    0.302696 0.243182 0.719849 0.286182
H39   H     H_    0.318489 0.295713 0.772109 0.252492
H40   H     H_    0.340683 0.286638 0.716297 0.228214
N13   N     N_R   0.122196 0.629771 0.875191 0.201294
O73   O     O_R   0.071988 0.643406 0.852838 -0.354413
O74   O     O_R   0.164673 0.610949 0.950023 -0.355209
N14   N     N_R   0.877763 0.629734 0.124774 0.201306
O75   O     O_R   0.927969 0.643354 0.147104 -0.354368
O76   O     O_R   0.835270 0.610912 0.049948 -0.355213
N15   N     N_R   0.622198 0.129763 0.875193 0.201299
O77   O     O_R   0.571975 0.143371 0.852825 -0.354424
O78   O     O_R   0.664689 0.110953 0.950035 -0.355219
N16   N     N_R   0.377275 0.129542 0.124286 0.201282
O79   O     O_R   0.426931 0.143877 0.145750 -0.354605
O80   O     O_R   0.334981 0.110249 0.049931 -0.355281
C181  C     C_3   0.179312 0.738371 0.733959 -0.744164
H41   H     H_    0.172865 0.752068 0.680283 0.232400
H42   H     H_    0.134406 0.743523 0.713728 0.271227
H43   H     H_    0.216614 0.757210 0.792913 0.251362
C182  C     C_3   0.820848 0.738421 0.266166 -0.743854
H44   H     H_    0.827348 0.752114 0.319889 0.232364
H45   H     H_    0.865745 0.743534 0.286356 0.271199
H46   H     H_    0.783560 0.757292 0.207249 0.251326
C183  C     C_3   0.679261 0.238384 0.733919 -0.744058
H47   H     H_    0.672798 0.252078 0.680227 0.232384
H48   H     H_    0.634356 0.243524 0.713698 0.271215
H49   H     H_    0.716556 0.257236 0.792858 0.251347
C184  C     C_3   0.320854 0.238440 0.266178 -0.743965
H50   H     H_    0.327355 0.252146 0.319895 0.232383
H51   H     H_    0.365743 0.243562 0.286349 0.271217
H52   H     H_    0.283549 0.257294 0.207243 0.251311
C185  C     C_3   0.275454 0.703255 0.741839 -0.876630
H53   H     H_    0.292660 0.728208 0.791814 0.247898
H54   H     H_    0.314866 0.681389 0.769720 0.251045
H55   H     H_    0.260211 0.720187 0.684002 0.257045
C186  C     C_3   0.724634 0.703396 0.258203 -0.876663
H56   H     H_    0.707431 0.728321 0.208187 0.247897
H57   H     H_    0.685215 0.681550 0.230370 0.251076
H58   H     H_    0.739900 0.720367 0.316023 0.257015
C187  C     C_3   0.775441 0.203297 0.741854 -0.876646
H59   H     H_    0.792640 0.228242 0.791839 0.247895
H60   H     H_    0.814856 0.181437 0.769726 0.251049
H61   H     H_    0.760194 0.220241 0.684024 0.257029
C188  C     C_3   0.224690 0.203405 0.258316 -0.876621
H62   H     H_    0.207492 0.228344 0.208324 0.247893
H63   H     H_    0.185264 0.181560 0.230456 0.251044
H64   H     H_    0.239959 0.220355 0.316154 0.257029
C189  C     C_3   0.211599 0.633797 0.606318 -0.733721
H65   H     H_    0.257761 0.646483 0.639026 0.234539
H66   H     H_    0.214068 0.597848 0.602928 0.255985
H67   H     H_    0.177828 0.647677 0.539912 0.267580
C190  C     C_3   0.788446 0.633951 0.393766 -0.733673
H68   H     H_    0.742397 0.646793 0.361251 0.234505
H69   H     H_    0.785753 0.598011 0.396923 0.255993
H70   H     H_    0.822350 0.647708 0.460264 0.267627
C191  C     C_3   0.711609 0.133840 0.606323 -0.733775
H71   H     H_    0.757732 0.146585 0.638964 0.234530
H72   H     H_    0.714163 0.097893 0.603027 0.255986
H73   H     H_    0.677788 0.147672 0.539878 0.267561
C192  C     C_3   0.288488 0.133932 0.393818 -0.733624
H74   H     H_    0.242394 0.146719 0.361230 0.234503
H75   H     H_    0.285874 0.097987 0.397058 0.255999
H76   H     H_    0.322348 0.147735 0.460285 0.267600
N17   N     N_R   0.088164 0.616193 0.535101 0.219960
O81   O     O_R   0.096917 0.591404 0.495406 -0.386194
O82   O     O_R   0.038324 0.639656 0.489058 -0.355479
N18   N     N_R   0.911765 0.616141 0.464879 0.219914
O83   O     O_R   0.902925 0.591236 0.504351 -0.386157
O84   O     O_R   0.961531 0.639697 0.511140 -0.355241
N19   N     N_R   0.588211 0.116167 0.535123 0.219932
O85   O     O_R   0.597000 0.091323 0.495525 -0.386390
O86   O     O_R   0.538408 0.139680 0.488984 -0.355435
N20   N     N_R   0.411837 0.116166 0.464933 0.219910
O87   O     O_R   0.403023 0.091314 0.504493 -0.386185
O88   O     O_R   0.461646 0.139673 0.511111 -0.355385
C193  C     C_3   0.641708 0.670075 0.044609 -0.735396
H77   H     H_    0.623439 0.649348 0.988761 0.286689
H78   H     H_    0.689639 0.679207 0.079286 0.192180
H79   H     H_    0.646882 0.651214 0.093228 0.251908
C194  C     C_3   0.358348 0.670064 0.955485 -0.735383
H80   H     H_    0.376615 0.649357 0.011355 0.286697
H81   H     H_    0.310406 0.679188 0.920773 0.192199
H82   H     H_    0.353202 0.651183 0.906908 0.251892
C195  C     C_3   0.141737 0.170084 0.044669 -0.735358
H83   H     H_    0.123480 0.149349 0.988835 0.286705
H84   H     H_    0.189666 0.179224 0.079347 0.192112
H85   H     H_    0.146913 0.151230 0.093294 0.251900
C196  C     C_3   0.858351 0.170066 0.955483 -0.735398
H86   H     H_    0.876610 0.149359 0.011349 0.286698
H87   H     H_    0.810407 0.179191 0.920758 0.192200
H88   H     H_    0.853214 0.151185 0.906914 0.251891
C197  C     C_3   0.062205 0.559210 0.755563 -0.659841
H89   H     H_    0.075065 0.526832 0.748926 0.213637
H90   H     H_    0.076757 0.558202 0.819073 0.263468
H91   H     H_    0.011328 0.563396 0.705390 0.279662
C198  C     C_3   0.937730 0.559172 0.244397 -0.659860
H92   H     H_    0.924864 0.526804 0.251052 0.213593
H93   H     H_    0.923157 0.558153 0.180873 0.263470
H94   H     H_    0.988609 0.563345 0.294544 0.279669
C199  C     C_3   0.562230 0.059196 0.755578 -0.659849
H95   H     H_    0.575096 0.026822 0.748940 0.213601
H96   H     H_    0.576787 0.058185 0.819092 0.263468
H97   H     H_    0.511352 0.063375 0.705412 0.279679
C200  C     C_3   0.437917 0.059268 0.244550 -0.660364
H98   H     H_    0.488786 0.063489 0.294884 0.279425
H99   H     H_    0.425038 0.026860 0.251049 0.214113
H100  H     H_    0.423579 0.058315 0.181187 0.263575
N21   N     N_R   0.535861 0.628248 0.981630 0.225295
O89   O     O_R   0.514534 0.620845 0.905282 -0.352285
O90   O     O_R   0.561728 0.596612 0.037763 -0.324033
N22   N     N_R   0.464237 0.628257 0.018563 0.225304
O91   O     O_R   0.485551 0.620888 0.094913 -0.352263
O92   O     O_R   0.438404 0.596596 0.962485 -0.324024
N23   N     N_R   0.035897 0.128248 0.981698 0.225303
O93   O     O_R   0.014578 0.120836 0.905358 -0.352248
O94   O     O_R   0.061767 0.096619 0.037845 -0.324026
N24   N     N_R   0.964253 0.128260 0.018600 0.225307
O95   O     O_R   0.985557 0.120899 0.094945 -0.352269
O96   O     O_R   0.938430 0.096596 0.962532 -0.324017
C201  C     C_3   0.431246 0.868449 0.935954 -0.849274
H101  H     H_    0.443482 0.884360 0.903225 0.254735
H102  H     H_    0.381934 0.859275 0.883130 0.245786
H103  H     H_    0.438179 0.892878 0.980074 0.253102
C202  C     C_3   0.568723 0.868461 0.063991 -0.849321
H104  H     H_    0.556479 0.884378 0.096706 0.254732
H105  H     H_    0.618038 0.859296 0.116824 0.245781
H106  H     H_    0.561782 0.892881 0.019854 0.253096
C203  C     C_3   0.931243 0.368449 0.935950 -0.849305
H107  H     H_    0.943477 0.384360 0.903219 0.254738
H108  H     H_    0.881932 0.359273 0.883127 0.245781
H109  H     H_    0.938174 0.392879 0.980068 0.253095
C204  C     C_3   0.068718 0.368466 0.063981 -0.849301
H110  H     H_    0.056473 0.384386 0.096692 0.254735
H111  H     H_    0.118034 0.359304 0.116816 0.245779
H112  H     H_    0.061776 0.392884 0.019839 0.253097
C205  C     C_3   0.437917 0.821710 0.216340 -0.760357
H113  H     H_    0.476851 0.804308 0.276986 0.279668
H114  H     H_    0.409327 0.796179 0.166578 0.215964
H115  H     H_    0.456471 0.842990 0.197285 0.251691
C206  C     C_3   0.562080 0.821705 0.783644 -0.760360
H116  H     H_    0.523149 0.804304 0.722996 0.279668
H117  H     H_    0.590669 0.796175 0.833407 0.215969
H118  H     H_    0.543519 0.842984 0.802694 0.251688
C207  C     C_3   0.937916 0.321709 0.216341 -0.760351
H119  H     H_    0.976850 0.304308 0.276987 0.279671
H120  H     H_    0.909326 0.296179 0.166579 0.215965
H121  H     H_    0.956471 0.342989 0.197285 0.251688
C208  C     C_3   0.062079 0.321708 0.783646 -0.760368
H122  H     H_    0.023147 0.304308 0.722997 0.279667
H123  H     H_    0.090668 0.296176 0.833406 0.215974
H124  H     H_    0.043521 0.342987 0.802698 0.251688
C209  C     C_3   0.202264 0.868927 0.067047 -0.807312
H125  H     H_    0.165122 0.891518 0.045951 0.236738
H126  H     H_    0.220757 0.882980 0.041535 0.258360
H127  H     H_    0.181242 0.836685 0.039011 0.251193
C210  C     C_3   0.797736 0.868931 0.932963 -0.807412
H128  H     H_    0.834878 0.891522 0.954064 0.236722
H129  H     H_    0.779239 0.882983 0.958471 0.258333
H130  H     H_    0.818759 0.836689 0.961000 0.251226
C211  C     C_3   0.702264 0.368932 0.067037 -0.807399
H131  H     H_    0.665117 0.391519 0.045932 0.236725
H132  H     H_    0.720759 0.382986 0.041528 0.258331
H133  H     H_    0.681249 0.336688 0.039005 0.251224
C212  C     C_3   0.297737 0.368918 0.932939 -0.807341
H134  H     H_    0.334870 0.391514 0.954024 0.236754
H135  H     H_    0.279246 0.382968 0.958457 0.258341
H136  H     H_    0.318770 0.336679 0.960982 0.251174
C213  C     C_3   0.255036 0.878160 0.342528 -0.760787
H137  H     H_    0.204998 0.870785 0.297447 0.217873
H138  H     H_    0.280486 0.853232 0.394713 0.270588
H139  H     H_    0.262658 0.910971 0.370362 0.268653
C214  C     C_3   0.744978 0.878171 0.657494 -0.760835
H140  H     H_    0.795017 0.870799 0.702579 0.217878
H141  H     H_    0.719535 0.853241 0.605311 0.270595
H142  H     H_    0.737350 0.910981 0.629657 0.268640
C215  C     C_3   0.755023 0.378183 0.342506 -0.760795
H143  H     H_    0.704983 0.370816 0.297420 0.217889
H144  H     H_    0.780463 0.353253 0.394688 0.270583
H145  H     H_    0.762654 0.410994 0.370344 0.268659
C216  C     C_3   0.244949 0.378129 0.657446 -0.760814
H146  H     H_    0.294984 0.370744 0.702521 0.217874
H147  H     H_    0.219488 0.353203 0.605255 0.270594
H148  H     H_    0.237336 0.410939 0.629618 0.268638
N25   N     N_R   0.385399 0.883913 0.435440 0.224788
O97   O     O_R   0.436428 0.862041 0.478552 -0.349799
O98   O     O_R   0.378844 0.909214 0.477070 -0.334910
N26   N     N_R   0.614610 0.883913 0.564569 0.224802
O99   O     O_R   0.563583 0.862039 0.521457 -0.349779
O100  O     O_R   0.621165 0.909213 0.522938 -0.334930
N27   N     N_R   0.885391 0.383915 0.435431 0.224794
O101  O     O_R   0.936418 0.362039 0.478542 -0.349776
O102  O     O_R   0.878838 0.409215 0.477064 -0.334903
N28   N     N_R   0.114592 0.383910 0.564550 0.224791
O103  O     O_R   0.063560 0.362042 0.521435 -0.349802
O104  O     O_R   0.121149 0.409211 0.522923 -0.334930

loop_
_geom_bond_atom_site_label_1
_geom_bond_atom_site_label_2
_geom_bond_distance
_ccdc_geom_bond_type
C91   N7    1.437031 S    
N23   O93   1.300961 A    
N3    O54   1.301229 A    
C89   C93   1.402845 A    
C188  H62   1.110486 S    
C140  C160  1.440913 A    
C98   N10   1.437600 S    
C176  H27   1.108905 S    
C207  H119  1.109822 S    
C98   C102  1.404144 A    
C110  C117  1.417973 A    
C92   C96   1.402838 A    
C183  H47   1.112022 S    
C210  H128  1.111405 S    
C211  H133  1.099942 S    
C91   C95   1.402881 A    
C160  C163  1.451834 S    
N12   O71   1.301118 A    
C132  C192  1.514163 S    
N2    O52   1.301226 A    
C41   C42   1.397720 A    
C149  N13   1.437559 S    
C195  H84   1.107571 S    
C55   H3    1.084505 S    
C210  H130  1.099944 S    
O45   C165  1.292819 A    
C209  H127  1.099944 S    
O13   Zn5   2.034690 S    
Zn6   O22   2.025752 S    
C152  N16   1.437456 S    
C104  C116  1.416956 A    
C105  C109  1.422724 A    
C196  H87   1.107576 S    
C102  C106  1.421661 A    
C108  C112  1.422736 A    
O46   Zn9   2.026120 S    
C62   N26   1.437209 S    
C205  H114  1.102739 S    
C30   C34   1.422281 A    
O38   Zn11  2.026435 S    
N16   O79   1.301054 A    
C107  C111  1.422713 A    
O4    C4    1.288038 A    
C117  C177  1.518312 S    
C31   C43   1.418566 A    
C181  H41   1.112020 S    
C97   C101  1.404149 A    
C191  H73   1.110120 S    
O34   C162  1.298331 A    
C179  H36   1.107829 S    
C199  H96   1.107406 S    
C172  H14   1.099971 S    
C151  N15   1.437568 S    
O48   C168  1.292818 A    
C187  H60   1.109794 S    
C146  C150  1.397981 A    
N27   O102  1.300982 A    
C121  C125  1.402514 A    
C189  H67   1.110103 S    
C49   C69   1.422104 A    
N1    O50   1.301228 A    
N15   O77   1.300601 A    
C45   C201  1.515018 S    
C3    C75   1.438540 S    
C192  H76   1.110118 S    
C53   C57   1.394596 A    
O35   Zn9   2.029710 S    
C203  H109  1.108953 S    
C123  C127  1.402481 A    
Zn3   O19   2.030986 S    
N28   O103  1.301462 A    
C182  H44   1.112018 S    
Zn4   O28   2.034661 S    
O37   C161  1.278372 A    
C28   C196  1.523818 S    
Zn5   O29   2.031651 S    
C128  C188  1.513248 S    
C142  C146  1.420293 A    
C206  H118  1.108967 S    
N20   O88   1.298891 A    
C35   C36   1.415399 A    
C63   N27   1.437210 S    
C80   C208  1.517539 S    
C202  H106  1.108954 S    
C101  C113  1.416954 A    
O11   Zn3   2.031610 S    
C28   C32   1.415809 A    
C201  H103  1.108952 S    
C153  C197  1.524567 S    
O9    C5    1.289153 A    
O2    Zn2   2.025494 S    
C42   N22   1.435009 S    
O10   Zn2   2.031600 S    
C185  H55   1.110321 S    
C52   C72   1.422099 A    
C5    C22   1.447860 S    
C134  C138  1.440738 A    
C7    C24   1.447864 S    
O6    Zn6   2.030806 S    
C129  C189  1.514131 S    
C8    C23   1.447853 S    
C56   C60   1.394596 A    
O19   C11   1.293816 A    
C193  H77   1.108567 S    
C207  H121  1.108965 S    
N8    O64   1.301664 A    
O48   Zn11  2.026120 S    
N19   O85   1.301555 A    
O5    Zn5   2.030813 S    
C116  C120  1.396431 A    
C183  H49   1.104692 S    
O47   Zn12  2.026116 S    
N24   O96   1.301828 A    
C120  C180  1.518314 S    
C126  C130  1.406373 A    
C177  H31   1.110691 S    
C137  C141  1.406809 A    
C122  C142  1.426781 A    
C137  C157  1.440791 A    
C115  C175  1.518804 S    
C150  N14   1.437562 S    
C58   C214  1.507051 S    
C17   C21   1.408553 A    
C75   C79   1.411893 A    
C175  H25   1.109502 S    
C194  H80   1.108568 S    
C19   C23   1.408559 A    
C20   C24   1.408558 A    
C81   N1    1.436018 S    
C212  H135  1.108480 S    
O24   C12   1.270493 A    
C190  H68   1.106301 S    
C67   C71   1.400659 A    
C26   C30   1.415814 A    
C77   C205  1.517541 S    
N21   O90   1.301828 A    
N11   O70   1.301712 A    
C60   C216  1.507053 S    
C30   C42   1.418559 A    
C83   C87   1.417649 A    
C157  C162  1.451795 S    
O3    C3    1.288045 A    
C21   C25   1.406934 A    
C86   C166  1.470416 S    
C173  H18   1.108905 S    
C172  H16   1.107311 S    
C82   C86   1.417651 A    
C59   C63   1.413923 A    
N25   O98   1.300985 A    
C198  H92   1.110820 S    
C197  H89   1.110828 S    
C35   C39   1.424258 A    
O42   C166  1.295077 A    
C136  C140  1.440691 A    
N2    O51   1.300433 A    
O23   C11   1.270464 A    
C156  C200  1.524643 S    
C186  H56   1.110478 S    
O39   Zn10  2.026439 S    
C97   N9    1.437598 S    
C214  H141  1.110373 S    
C174  H22   1.109497 S    
C196  H86   1.108568 S    
C208  H122  1.109824 S    
C89   N5    1.437035 S    
N23   O94   1.301828 A    
N1    O49   1.300430 A    
C214  H140  1.110787 S    
C83   N3    1.436021 S    
C24   C28   1.406929 A    
N5    O57   1.301088 A    
C155  C199  1.524577 S    
O47   C167  1.292818 A    
C180  H39   1.107837 S    
C52   C56   1.397677 A    
N26   O99   1.301464 A    
N13   O74   1.301077 A    
C171  H11   1.099965 S    
C74   C78   1.411892 A    
C95   C99   1.402503 A    
N26   O100  1.300984 A    
N6    O59   1.301089 A    
C178  H33   1.107832 S    
O45   Zn10  2.026116 S    
C154  C158  1.422296 A    
C193  H79   1.107608 S    
C125  C185  1.513252 S    
C131  C191  1.514154 S    
C126  C186  1.513243 S    
C169  H5    1.099966 S    
C66   C70   1.400657 A    
O20   C12   1.293827 A    
C156  C160  1.422429 A    
C50   C70   1.422106 A    
O29   C13   1.285303 A    
C20   C172  1.526517 S    
C170  H8    1.099969 S    
C181  H42   1.110443 S    
C204  H110  1.111513 S    
C200  H99   1.110830 S    
C55   C59   1.394595 A    
C174  H20   1.110699 S    
C151  C155  1.388911 A    
C184  H51   1.110451 S    
C194  H82   1.107603 S    
C22   C26   1.406935 A    
C190  H70   1.110043 S    
C202  H105  1.109255 S    
C50   C210  1.501413 S    
C72   C76   1.418161 A    
N15   O78   1.301085 A    
N14   O76   1.301085 A    
C204  H112  1.108955 S    
C103  C107  1.421624 A    
C116  C176  1.518802 S    
O5    C1    1.279766 A    
C175  H23   1.110701 S    
C81   C85   1.417648 A    
C79   C83   1.393610 A    
C43   C44   1.397722 A    
O8    C4    1.279773 A    
C136  N20   1.436807 S    
C213  H137  1.110785 S    
C198  H94   1.109904 S    
C215  H144  1.110372 S    
O25   C13   1.285077 A    
C69   C73   1.418158 A    
C38   C45   1.413328 A    
C67   C87   1.423431 A    
N22   O91   1.300963 A    
C122  C126  1.402433 A    
C186  H58   1.110315 S    
C71   C75   1.418157 A    
C65   C85   1.423430 A    
O33   Zn11  2.029710 S    
C53   H1    1.084503 S    
C68   C72   1.400663 A    
C196  H88   1.107609 S    
C11   C147  1.434505 S    
Zn2   O26   2.034661 S    
C57   C213  1.507053 S    
O16   Zn8   2.034701 S    
C208  H124  1.108961 S    
O27   C15   1.285065 A    
C61   C65   1.427139 A    
C20   C40   1.408873 A    
C33   C37   1.424255 A    
O14   C6    1.278999 A    
C63   C67   1.427135 A    
Zn6   O30   2.031641 S    
C36   C40   1.424262 A    
O43   Zn11  2.030002 S    
N27   O101  1.301465 A    
C141  C145  1.420283 A    
C102  C114  1.416953 A    
N14   O75   1.300597 A    
C211  H132  1.108485 S    
N12   O72   1.301708 A    
C144  C148  1.420218 A    
C171  H13   1.107307 S    
C133  N17   1.436851 S    
O10   C6    1.289162 A    
O3    Zn3   2.025501 S    
N4    O55   1.300431 A    
C195  H83   1.108570 S    
C6    C21   1.447854 S    
O40   Zn9   2.026435 S    
C150  C154  1.388893 A    
C133  C137  1.440598 A    
C56   H4    1.084506 S    
N9    O66   1.301712 A    
C49   C53   1.397681 A    
C169  H7    1.107310 S    
C147  C151  1.398007 A    
N17   O82   1.298850 A    
C51   C55   1.397684 A    
C127  C187  1.513250 S    
C132  C136  1.417144 A    
N10   O67   1.301118 A    
C205  H113  1.109822 S    
C170  H10   1.107309 S    
C85   C165  1.470423 S    
C125  C129  1.406407 A    
N18   O83   1.301527 A    
C118  C178  1.518311 S    
N16   O80   1.301267 A    
C202  H104  1.111510 S    
C128  C132  1.406390 A    
O41   C165  1.295083 A    
C191  H72   1.110189 S    
C18   C22   1.408554 A    
C47   C48   1.385034 A    
O12   Zn4   2.031600 S    
C199  H95   1.110822 S    
C124  C144  1.426764 A    
C122  C182  1.514033 S    
Zn8   O32   2.031641 S    
C33   C34   1.415404 A    
O15   Zn7   2.034690 S    
C187  H59   1.110481 S    
C134  N18   1.436785 S    
C189  H66   1.110173 S    
N21   O89   1.300962 A    
C148  C152  1.397915 A    
C214  H142  1.109555 S    
C88   C168  1.470418 S    
C203  H108  1.109254 S    
C14   C93   1.447051 S    
C54   H2    1.084505 S    
O17   C9    1.293813 A    
C27   C195  1.523813 S    
C213  H139  1.109554 S    
O44   C168  1.295077 A    
C82   N2    1.436022 S    
C138  C142  1.406863 A    
C130  C190  1.514178 S    
C206  H117  1.102740 S    
O42   Zn10  2.029984 S    
C112  C119  1.417985 A    
C201  H102  1.109254 S    
C107  C108  1.407336 A    
C29   C33   1.422293 A    
C185  H54   1.109791 S    
C18   C170  1.526520 S    
C130  C134  1.417130 A    
C100  C104  1.404141 A    
C80   C84   1.393603 A    
C177  H30   1.107831 S    
C135  N19   1.436835 S    
C188  H63   1.109798 S    
Zn7   O31   2.031651 S    
C216  H146  1.110785 S    
C155  C159  1.422285 A    
C207  H120  1.102741 S    
C26   C194  1.523817 S    
C39   C48   1.413331 A    
C183  H48   1.110447 S    
C50   C54   1.397685 A    
C182  H45   1.110447 S    
C78   C206  1.517541 S    
O34   Zn12  2.029727 S    
C13   C94   1.447062 S    
C104  C108  1.421655 A    
C159  C164  1.451783 S    
C197  H91   1.109918 S    
O1    C1    1.288043 A    
C94   C98   1.402466 A    
C195  H85   1.107609 S    
C19   C39   1.408877 A    
C16   C95   1.447092 S    
C41   N21   1.435002 S    
C113  C173  1.518803 S    
C45   C46   1.385030 A    
C25   C193  1.523820 S    
C15   C96   1.447029 S    
C64   C68   1.427142 A    
C184  H52   1.104728 S    
O37   Zn12  2.026439 S    
O7    C3    1.279763 A    
C212  H134  1.111405 S    
C17   C37   1.408871 A    
O21   C9    1.270471 A    
O28   C16   1.285125 A    
C17   C169  1.526518 S    
N7    O61   1.301090 A    
C205  H115  1.108967 S    
O30   C14   1.285309 A    
O35   C163  1.298317 A    
C87   C167  1.470419 S    
C68   C88   1.423429 A    
C199  H97   1.109908 S    
C172  H15   1.109176 S    
C100  N12   1.437603 S    
Zn1   O25   2.034650 S    
C113  C117  1.396417 A    
C60   C64   1.413924 A    
C187  H61   1.110324 S    
N18   O84   1.298836 A    
C93   C97   1.402459 A    
C90   N6    1.437032 S    
C138  C158  1.440898 A    
C177  H29   1.108777 S    
C96   C100  1.402459 A    
C43   N23   1.435005 S    
C124  C184  1.514010 S    
O6    C2    1.279768 A    
C46   C202  1.515017 S    
C212  H136  1.099945 S    
C109  C118  1.417974 A    
C197  H90   1.107410 S    
N20   O87   1.301560 A    
N11   O69   1.301120 A    
C105  C106  1.407352 A    
O26   C14   1.285069 A    
C181  H43   1.104667 S    
N7    O62   1.301668 A    
C180  H38   1.108776 S    
C90   C110  1.405406 A    
C25   C29   1.415820 A    
C61   N25   1.437204 S    
C51   C71   1.422108 A    
C66   C86   1.423425 A    
C27   C31   1.415821 A    
C158  C161  1.451765 S    
C48   C204  1.515019 S    
C10   C146  1.434520 S    
O13   C5    1.279011 A    
C29   C41   1.418569 A    
C18   C38   1.408872 A    
Zn3   O27   2.034650 S    
C124  C128  1.402456 A    
Zn4   O20   2.030979 S    
N6    O60   1.301663 A    
C178  H32   1.108779 S    
C34   C38   1.424258 A    
C216  H148  1.109555 S    
Zn5   O21   2.025760 S    
C193  H78   1.107572 S    
C121  C181  1.513997 S    
N8    O63   1.301088 A    
C174  H21   1.108906 S    
C114  C174  1.518804 S    
O43   C167  1.295083 A    
C101  C105  1.421666 A    
C64   N28   1.437200 S    
C51   C211  1.501413 S    
O39   C163  1.278485 A    
C1    C73   1.438541 S    
C176  H26   1.110700 S    
O12   C8    1.289175 A    
O15   C7    1.279011 A    
C152  C156  1.388908 A    
C103  C115  1.416928 A    
C200  H98   1.109905 S    
C179  H35   1.108779 S    
C99   C103  1.404104 A    
C194  H81   1.107571 S    
C173  H17   1.110701 S    
C89   C109  1.405402 A    
C173  H19   1.109495 S    
C139  C143  1.406832 A    
C190  H69   1.110118 S    
C92   C112  1.405395 A    
C149  C153  1.388918 A    
C9    C145  1.434498 S    
O46   C166  1.292817 A    
C91   C111  1.405421 A    
N25   O97   1.301463 A    
C12   C148  1.434533 S    
C204  H111  1.109253 S    
C73   C77   1.411894 A    
N24   O95   1.300961 A    
C209  H126  1.108486 S    
C77   C81   1.393611 A    
C4    C76   1.438537 S    
Zn2   O18   2.030979 S    
O40   C164  1.278404 A    
O33   C161  1.298389 A    
C153  C157  1.422277 A    
O14   Zn6   2.034701 S    
C198  H93   1.107402 S    
C215  H143  1.110783 S    
C143  C147  1.420287 A    
C65   C69   1.400661 A    
C175  H24   1.108913 S    
O41   Zn9   2.030002 S    
N22   O92   1.301827 A    
C186  H57   1.109795 S    
O1    Zn1   2.025501 S    
O9    Zn1   2.031610 S    
N13   O73   1.300583 A    
C84   C88   1.417648 A    
O4    Zn4   2.025494 S    
C182  H46   1.104729 S    
C135  C139  1.440662 A    
C208  H123  1.102739 S    
C57   C61   1.413922 A    
C23   C27   1.406924 A    
O18   C10   1.293840 A    
O7    Zn7   2.030813 S    
O44   Zn12  2.029984 S    
O8    Zn8   2.030806 S    
O16   C8    1.278989 A    
C47   C203  1.515021 S    
N28   O104  1.300984 A    
N5    O58   1.301664 A    
C79   C207  1.517542 S    
C180  H40   1.110690 S    
C131  C135  1.417118 A    
C211  H131  1.111406 S    
O38   C162  1.278441 A    
C127  C131  1.406395 A    
C121  C141  1.426794 A    
C140  C144  1.406834 A    
C171  H12   1.109177 S    
C84   N4    1.436018 S    
C78   C82   1.393604 A    
N4    O56   1.301228 A    
N19   O86   1.298894 A    
C2    C74   1.438535 S    
C145  C149  1.398020 A    
C129  C133  1.417108 A    
C178  H34   1.110690 S    
C123  C143  1.426783 A    
C99   N11   1.437631 S    
C209  H125  1.111404 S    
C32   C36   1.422277 A    
C32   C44   1.418560 A    
C169  H6    1.109176 S    
N17   O81   1.301531 A    
C70   C74   1.418161 A    
C40   C47   1.413329 A    
C52   C212  1.501414 S    
N10   O68   1.301711 A    
C37   C46   1.413333 A    
C170  H9    1.109174 S    
C176  H28   1.109496 S    
C115  C119  1.396410 A    
C119  C179  1.518313 S    
N3    O53   1.300432 A    
O2    C2    1.288047 A    
C200  H100  1.107342 S    
C123  C183  1.514012 S    
O31   C15   1.285299 A    
C191  H71   1.106413 S    
C62   C66   1.427137 A    
C179  H37   1.110688 S    
O32   C16   1.285284 A    
C90   C94   1.402851 A    
C92   N8    1.437037 S    
O22   C10   1.270448 A    
C111  C120  1.417978 A    
C188  H64   1.110324 S    
C154  C198  1.524587 S    
C189  H65   1.106395 S    
C19   C171  1.526515 S    
C139  C159  1.440840 A    
C210  H129  1.108483 S    
C216  H147  1.110373 S    
C59   C215  1.507054 S    
C192  H74   1.106411 S    
C31   C35   1.422291 A    
C203  H107  1.111511 S    
C44   N24   1.435008 S    
O11   C7    1.289155 A    
C213  H138  1.110371 S    
C192  H75   1.110191 S    
Zn7   O23   2.025760 S    
C58   C62   1.413922 A    
Zn8   O24   2.025752 S    
C206  H116  1.109823 S    
C215  H145  1.109556 S    
C114  C118  1.396417 A    
O36   C164  1.298365 A    
C201  H101  1.111511 S    
C106  C110  1.422721 A    
Zn1   O17   2.030986 S    
C184  H50   1.112021 S    
C49   C209  1.501414 S    
C185  H53   1.110477 S    
C76   C80   1.411890 A    
C54   C58   1.394598 A    
O36   Zn10  2.029727 S    
N9    O65   1.301117 A    
