data_mof_unit_19270.cif
_audit_creation_date              2012-12-11T14:15:33-0500
_audit_creation_method            fapswitch 2.2
_symmetry_space_group_name_H-M    P1
_symmetry_Int_Tables_number       1
_space_group_crystal_system       triclinic
_cell_length_a                    11.170699
_cell_length_b                    12.705522
_cell_length_c                    23.579969
_cell_angle_alpha                 90.574093
_cell_angle_beta                  96.640552
_cell_angle_gamma                 68.459405
_cell_volume                      3090.16299155

loop_
_atom_site_label
_atom_site_type_symbol
_atom_type_description
_atom_site_fract_x
_atom_site_fract_y
_atom_site_fract_z
_atom_type_partial_charge
C1    C     C_R   0.149380 0.616672 0.428777 0.551165
C2    C     C_R   0.638198 0.571359 0.312066 0.063312
C3    C     C_R   0.700128 0.736588 0.319368 0.083826
C4    C     C_R   0.696946 0.742693 0.259095 0.005560
C5    C     C_R   0.675673 0.654701 0.226707 0.015715
C6    C     C_R   0.686521 0.652764 0.168101 0.198863
C7    C     C_R   0.694779 0.840830 0.169747 0.181532
C8    C     C_R   0.719343 0.830417 0.230122 0.236289
C9    C     C_1   0.234816 0.163318 0.122623 0.019028
C10   C     C_2   0.177550 0.234845 0.225960 0.142654
C11   C     C_2   0.158828 0.163605 0.263171 0.289659
C12   C     C_R   0.747135 0.605532 0.404327 0.592198
C13   C     C_1   0.134161 0.198285 0.321060 -0.011303
C14   C     C_1   0.208484 0.198781 0.169100 0.027431
C15   C     C_1   0.116890 0.231861 0.368631 -0.000726
C16   C     C_1   0.167114 0.748941 0.123368 0.001612
C17   C     C_2   0.141039 0.682821 0.226660 0.248816
C18   C     C_2   0.230159 0.679913 0.270933 -0.062104
C19   C     C_1   0.214672 0.653915 0.328742 0.018835
C20   C     C_1   0.154557 0.717986 0.169913 -0.049229
C21   C     C_1   0.192787 0.635021 0.375861 0.029351
C22   C     C_1   0.623815 0.755554 0.864008 0.011168
C23   C     C_R   0.101313 0.282382 0.423398 0.545969
C24   C     C_2   0.692554 0.699522 0.760754 -0.043427
C25   C     C_2   0.602744 0.716974 0.715099 0.279075
C26   C     C_1   0.644957 0.676683 0.660289 -0.048536
C27   C     C_1   0.657033 0.732025 0.817125 0.013162
C28   C     C_1   0.686927 0.642645 0.615951 -0.004578
C29   C     C_R   0.197691 0.170898 0.853108 0.051278
C30   C     C_R   0.105079 0.233634 0.640606 -0.039358
C31   C     C_R   0.137907 0.079054 0.706476 0.297897
C32   C     C_R   0.114672 0.121636 0.650544 0.252982
C33   C     C_R   0.108127 0.306444 0.685864 0.232882
C34   C     C_R   0.149073 0.616400 0.590606 0.589668
C35   C     C_R   0.138142 0.262771 0.742285 0.046417
C36   C     C_R   0.149668 0.149031 0.752403 -0.092929
C37   C     C_R   0.172475 0.107412 0.808357 -0.174208
C38   C     C_R   0.191081 0.281163 0.844895 0.222157
C39   C     C_R   0.157939 0.329394 0.788921 0.135009
C40   C     C_R   0.136054 0.748388 0.851282 0.040542
C41   C     C_R   0.183326 0.634126 0.649669 0.058374
C42   C     C_R   0.331613 0.595956 0.736719 0.262630
C43   C     C_R   0.310181 0.586207 0.677159 0.298129
C44   C     C_R   0.079242 0.691185 0.679835 -0.113508
C45   C     C_R   0.749566 0.602569 0.565884 0.541953
C46   C     C_R   0.098682 0.705409 0.737134 0.013328
C47   C     C_R   0.225110 0.659382 0.766261 0.001398
C48   C     C_R   0.241837 0.681654 0.823570 -0.168118
C49   C     C_R   0.010226 0.790363 0.822280 0.088720
C50   C     C_R   0.992011 0.767308 0.765088 -0.099740
C51   C     C_R   0.265637 0.110107 0.069365 0.553434
C52   C     C_R   0.601686 0.774167 0.081020 0.589202
C53   C     C_R   0.189732 0.787847 0.069864 0.556146
C54   C     C_R   0.241012 0.114303 0.908059 0.602680
C55   C     C_R   0.572646 0.776519 0.917839 0.545242
C56   C     C_R   0.100415 0.277070 0.583957 0.514309
C57   C     C_R   0.165659 0.787219 0.906899 0.568172
C58   C     C_R   0.673396 0.752798 0.138970 0.028163
C59   C     C_R   0.685664 0.643144 0.345434 0.054511
C60   C     C_R   0.637541 0.574147 0.252794 0.113996
Cr1   Cr    Cr6+3 0.189770 0.415650 0.511620 1.091232
Cr2   Cr    Cr6+3 0.930400 0.667320 0.496770 1.055671
Cr3   Cr    Cr6+3 0.879870 0.417010 0.491650 1.052585
Cr4   Cr    Cr6+3 0.149500 0.973980 0.985330 1.073082
Cr5   Cr    Cr6+3 0.457000 0.976510 0.994660 1.096648
Cr6   Cr    Cr6+3 0.411170 0.724270 0.995270 1.039140
H1    H     H_    0.794662 0.655543 0.756470 0.075134
H2    H     H_    0.175792 0.023203 0.818148 0.141867
H3    H     H_    0.338945 0.654981 0.845803 0.163186
H4    H     H_    0.895304 0.801919 0.742014 0.111177
H5    H     H_    0.980480 0.724005 0.658628 0.143305
H6    H     H_    0.313103 0.701623 0.264298 0.081451
O1    O     O_R   0.196340 0.303200 0.448500 -0.500885
O2    O     O_R   0.811960 0.658090 0.547150 -0.505349
O3    O     O_R   0.757930 0.506140 0.547110 -0.492883
O4    O     O_R   0.988670 0.321620 0.556040 -0.516189
O5    O     O_3   0.000020 0.499990 0.500010 -0.280207
O6    O     O_R   0.113660 0.883270 0.047820 -0.485668
O7    O     O_R   0.186930 0.068530 0.043990 -0.488876
O8    O     O_R   0.377770 0.089040 0.054220 -0.486228
O9    O     O_R   0.562800 0.872960 0.056970 -0.441106
O10   O     O_R   0.555390 0.700940 0.062700 -0.515585
O11   O     O_R   0.295020 0.731920 0.049950 -0.501416
O12   O     O_R   0.199310 0.519670 0.454880 -0.490246
O13   O     O_R   0.094290 0.884230 0.921550 -0.469669
O14   O     O_R   0.168980 0.069410 0.926940 -0.513918
O15   O     O_R   0.358400 0.089990 0.927950 -0.478941
O16   O     O_R   0.544850 0.873850 0.939920 -0.496078
O17   O     O_R   0.536020 0.701900 0.936430 -0.504396
O18   O     O_R   0.277070 0.732810 0.932890 -0.524540
O19   O     O_3   0.339220 0.891590 0.991750 -0.281076
O20   O     O_R   0.045660 0.691380 0.441680 -0.501506
O21   O     O_R   0.811930 0.659460 0.430950 -0.477229
O22   O     O_R   0.757900 0.507620 0.421760 -0.476954
O23   O     O_R   0.988630 0.322990 0.439840 -0.496010
O24   O     O_R   0.196380 0.301720 0.573850 -0.473991
O25   O     O_R   0.199350 0.518300 0.571080 -0.440778
O26   O     O_R   0.045700 0.689900 0.567030 -0.526991
O27   O     O_3   0.714290 0.553183 0.139272 -0.649956
H7    H     H_    0.630752 0.544597 0.126733 0.373338
O28   O     O_3   0.035831 0.655294 0.235760 -0.674081
H8    H     H_    0.981736 0.661935 0.198532 0.330892
O29   O     O_3   0.472970 0.772776 0.720684 -0.669807
H9    H     H_    0.422763 0.777700 0.682585 0.347231
O30   O     O_3   0.216914 0.337769 0.892479 -0.695969
H10   H     H_    0.205371 0.416208 0.882037 0.321056
O31   O     O_3   0.151597 0.967498 0.714410 -0.636610
H11   H     H_    0.227586 0.930994 0.743171 0.335075
N1    N     N_3   0.151045 0.442624 0.779038 -0.551289
H12   H     H_    0.241236 0.446432 0.793593 0.225140
H13   H     H_    0.079428 0.498399 0.801380 0.222639
O32   O     O_3   0.107705 0.049169 0.607144 -0.637281
H14   H     H_    0.084084 0.090323 0.569674 0.318219
O33   O     O_3   0.085353 0.419680 0.675386 -0.657758
H15   H     H_    0.023839 0.447881 0.640268 0.323815
O34   O     O_3   0.688640 0.936544 0.140301 -0.672359
H16   H     H_    0.663582 0.001766 0.165674 0.341591
N2    N     N_3   0.902524 0.860296 0.850043 -0.590588
H17   H     H_    0.835801 0.820431 0.848684 0.221413
H18   H     H_    0.858343 0.937261 0.826817 0.248730
O35   O     O_3   0.455405 0.543014 0.764347 -0.695787
H19   H     H_    0.449023 0.510727 0.801397 0.318761
O36   O     O_3   0.409095 0.529407 0.645003 -0.679321
H20   H     H_    0.493344 0.503311 0.669547 0.373665
N3    N     N_3   0.593678 0.497718 0.218987 -0.620325
H21   H     H_    0.652689 0.414429 0.231648 0.253041
H22   H     H_    0.498005 0.511610 0.225214 0.219084
O37   O     O_3   0.762492 0.905648 0.260512 -0.721474
H23   H     H_    0.814577 0.931632 0.236719 0.351292
N4    N     N_3   0.594010 0.493487 0.338933 -0.596612
H24   H     H_    0.497217 0.510430 0.323192 0.222996
H25   H     H_    0.650062 0.410810 0.329300 0.245917
N5    N     N_3   0.715649 0.823916 0.355193 -0.576171
H26   H     H_    0.808461 0.825216 0.354462 0.304799
H27   H     H_    0.643936 0.901966 0.341484 0.271974
O38   O     O_3   0.166702 0.056888 0.246373 -0.704082
H28   H     H_    0.151366 0.016982 0.279110 0.324840
N6    N     N_3   0.169169 0.346206 0.242401 -0.624470
H29   H     H_    0.257614 0.353665 0.237560 0.230788
H30   H     H_    0.097847 0.404715 0.213796 0.263208

loop_
_geom_bond_atom_site_label_1
_geom_bond_atom_site_label_2
_ccdc_geom_bond_type
C1    C21   S    
O28   H8    S    
C56   O4    A    
C6    C58   A    
Cr2   O5    S    
N4    H25   S    
C35   C36   A    
C9    C51   S    
C24   C27   S    
C48   H3    S    
C4    C8    A    
O37   H23   S    
C34   O25   A    
O33   H15   S    
Cr1   O24   S    
O36   H20   S    
Cr6   O18   S    
C16   C53   S    
C1    O12   A    
Cr3   O22   S    
C33   O33   S    
C5    C6    A    
C36   C37   A    
C19   C21   T    
N1    H13   S    
C54   O15   A    
C2    C60   A    
Cr3   O4    S    
C40   C49   A    
C37   H2    S    
Cr3   O23   S    
C17   C20   S    
O34   H16   S    
C44   H5    S    
C56   O24   A    
C18   C19   S    
C55   O16   A    
C17   O28   S    
N2    H17   S    
C24   H1    S    
C2    N4    S    
Cr6   O11   S    
Cr2   O26   S    
C12   C59   S    
C8    O37   S    
C47   C48   A    
Cr1   O5    S    
Cr2   O20   S    
C29   C38   A    
O31   H11   S    
C7    C58   A    
C30   C33   A    
C15   C23   S    
Cr5   O8    S    
Cr5   O19   S    
C41   C43   A    
C12   O22   A    
C34   C41   S    
C31   O31   S    
C23   O1    A    
Cr4   O14   S    
O32   H14   S    
C44   C46   A    
Cr5   O15   S    
Cr6   O17   S    
C51   O7    A    
C18   H6    S    
C28   C45   S    
C57   O18   A    
C7    C8    A    
C24   C25   D    
C10   C14   S    
C54   O14   A    
C2    C59   A    
C25   O29   S    
Cr1   O1    S    
C25   C26   S    
C30   C56   S    
C45   O2    A    
C3    N5    S    
C7    O34   S    
C35   C39   A    
C9    C14   T    
Cr6   O10   S    
N5    H26   S    
Cr5   O9    S    
C49   N2    S    
C39   N1    S    
C16   C20   T    
C41   C44   A    
C17   C18   D    
C52   O10   A    
O35   H19   S    
C22   C55   S    
C52   C58   S    
C1    O20   A    
C22   C27   T    
C13   C15   T    
N3    H21   S    
Cr4   O7    S    
C12   O21   A    
C42   C43   A    
C3    C4    A    
C43   O36   S    
Cr4   O13   S    
Cr5   O16   S    
N5    H27   S    
Cr3   O5    S    
C40   C48   A    
C46   C47   A    
C60   N3    S    
C40   C57   S    
C32   O32   S    
C5    C60   A    
Cr4   O6    S    
C31   C32   A    
Cr1   O25   S    
O38   H28   S    
Cr1   O12   S    
Cr6   O19   S    
N6    H30   S    
O30   H10   S    
C46   C50   A    
C26   C28   T    
O27   H7    S    
C53   O11   A    
C45   O3    A    
C6    O27   S    
C34   O26   A    
C38   O30   S    
C53   O6    A    
C50   H4    S    
C55   O17   A    
C11   O38   S    
C30   C32   A    
C11   C13   S    
C38   C39   A    
Cr3   O3    S    
C51   O8    A    
C33   C35   A    
C23   O23   A    
N4    H24   S    
C42   C47   A    
C52   O9    A    
N2    H18   S    
C10   C11   D    
C4    C5    A    
C49   C50   A    
C29   C54   S    
Cr2   O21   S    
C29   C37   A    
O29   H9    S    
N3    H22   S    
C31   C36   A    
Cr2   O2    S    
C10   N6    S    
Cr4   O19   S    
N1    H12   S    
C57   O13   A    
N6    H29   S    
C42   O35   S    
C3    C59   A    
