data_mof_unit_58702.cif
_audit_creation_date              2012-12-10T17:45:34-0500
_audit_creation_method            fapswitch 2.2
_symmetry_space_group_name_H-M    P1
_symmetry_Int_Tables_number       1
_space_group_crystal_system       triclinic
_cell_length_a                    11.52848
_cell_length_b                    10.671145
_cell_length_c                    9.964981
_cell_angle_alpha                 89.618745
_cell_angle_beta                  89.674394
_cell_angle_gamma                 93.239452
_cell_volume                      1223.90417415

loop_
_atom_site_label
_atom_site_type_symbol
_atom_type_description
_atom_site_fract_x
_atom_site_fract_y
_atom_site_fract_z
_atom_type_partial_charge
C1    C     C_R   0.501743 0.258829 0.501869 0.912273
C2    C     C_R   0.550287 0.871878 0.494574 -0.170023
C3    C     C_R   0.301946 0.395747 0.138016 0.077539
C4    C     C_R   0.282210 0.500229 0.500329 0.905068
C5    C     C_R   0.197036 0.388144 0.068324 -0.299651
C6    C     C_R   0.200771 0.376759 0.930171 -0.216540
C7    C     C_R   0.307258 0.389545 0.864131 0.722531
C8    C     C_R   0.404667 0.447917 0.928580 -0.120935
C9    C     C_R   0.403663 0.448913 0.072608 -0.037865
C10   C     C_R   0.592243 0.547105 0.070525 0.655525
C11   C     C_R   0.592730 0.545397 0.928249 0.560538
C12   C     C_R   0.575886 0.039185 0.868592 0.611653
C13   C     C_R   0.517095 0.739042 0.498755 0.937468
C14   C     C_R   0.717747 0.498804 0.499676 0.926411
C15   C     C_1   0.161612 0.499161 0.500843 -0.160415
C16   C     C_1   0.059306 0.498228 0.500451 0.018627
C17   C     C_1   0.940530 0.497642 0.499598 0.044993
C18   C     C_1   0.838270 0.497800 0.499178 -0.063488
C19   C     C_R   0.529168 0.102429 0.760243 -0.314746
C20   C     C_2   0.741648 0.800432 0.686558 0.561430
C21   C     C_2   0.308555 0.288941 0.230432 0.535291
C22   C     C_R   0.640297 0.934789 0.846269 0.514412
C23   C     C_R   0.647218 0.885178 0.716753 -0.202608
C24   C     C_R   0.579823 0.936240 0.613175 -0.073942
C25   C     C_R   0.540307 0.057208 0.627315 -0.011918
C26   C     C_R   0.518036 0.125028 0.506289 -0.168972
C27   C     C_R   0.529629 0.066370 0.381820 -0.235227
C28   C     C_R   0.537450 0.939160 0.375530 0.682975
F1    F     F_    0.317916 0.319931 0.752801 -0.666436
F2    F     F_    0.690011 0.587177 0.862541 -0.637538
F3    F     F_    0.565401 0.084835 0.994570 -0.586526
F4    F     F_    0.698155 0.884368 0.950021 -0.574264
F5    F     F_    0.530028 0.882996 0.253661 -0.561660
F6    F     F_    0.686549 0.597375 0.135451 -0.561097
H1    H     H_    0.528676 0.117271 0.288051 0.274395
H2    H     H_    0.124419 0.339810 0.877662 0.186198
H3    H     H_    0.482341 0.182998 0.785789 0.262129
H4    H     H_    0.117074 0.357147 0.119450 0.179714
H5    H     H_    0.794405 0.765906 0.766911 0.178780
H6    H     H_    0.259052 0.284566 0.323393 0.031420
N1    N     N_R   0.498930 0.498800 0.142780 -0.193544
N2    N     N_R   0.498900 0.498720 0.857170 -0.191798
O1    O     O_R   0.500000 0.316780 0.614690 -0.574986
O2    O     O_2   0.358198 0.196931 0.194598 -0.541347
O3    O     O_R   0.499990 0.316750 0.385360 -0.632825
O4    O     O_R   0.334450 0.500030 0.614670 -0.561909
O5    O     O_R   0.334440 0.500000 0.385330 -0.658279
O6    O     O_R   0.500010 0.683250 0.614640 -0.620128
O7    O     O_R   0.500000 0.683220 0.385310 -0.532348
O8    O     O_R   0.665560 0.500000 0.614670 -0.568957
O9    O     O_R   0.665550 0.499970 0.385330 -0.556094
O10   O     O_2   0.767996 0.776094 0.571220 -0.598036
Zn1   Zn    Zn3+2 0.500010 0.500020 0.653130 1.045540
Zn2   Zn    Zn3+2 0.499990 0.499980 0.346870 1.069193

loop_
_geom_bond_atom_site_label_1
_geom_bond_atom_site_label_2
_ccdc_geom_bond_type
O3    Zn2   S    
C13   O6    A    
C23   C24   A    
C6    C7    A    
C7    F1    S    
C21   O2    D    
C14   C18   S    
C9    N1    A    
C14   O9    A    
C20   C23   S    
O9    Zn2   S    
C4    C15   S    
O1    Zn1   S    
C17   C18   T    
C7    C8    A    
C10   F6    S    
C4    O4    A    
C5    H4    S    
C10   N1    A    
N1    Zn2   S    
C1    O3    A    
C26   C27   A    
O6    Zn1   S    
C21   H6    S    
C22   F4    S    
O5    Zn2   S    
C3    C9    A    
C5    C6    A    
O4    Zn1   S    
C6    H2    S    
C28   F5    S    
C12   F3    S    
C2    C24   A    
C1    C26   S    
C19   C25   A    
C13   O7    A    
N2    Zn1   S    
C3    C21   S    
O8    Zn1   S    
C10   C11   A    
C14   O8    A    
C15   C16   T    
C12   C22   A    
C24   C25   A    
C12   C19   A    
C11   N2    A    
C20   O10   D    
C27   C28   A    
C2    C13   S    
C20   H5    S    
C22   C23   A    
C16   C17   S    
C2    C28   A    
C19   H3    S    
C27   H1    S    
C25   C26   A    
C1    O1    A    
O7    Zn2   S    
C11   F2    S    
C8    N2    A    
C8    C9    A    
C3    C5    A    
C4    O5    A    
