data_mof_unit_41462.cif
_audit_creation_date              2012-12-10T16:57:48-0500
_audit_creation_method            fapswitch 2.2
_symmetry_space_group_name_H-M    P1
_symmetry_Int_Tables_number       1
_space_group_crystal_system       triclinic
_cell_length_a                    10.628212
_cell_length_b                    10.915469
_cell_length_c                    9.716523
_cell_angle_alpha                 90.303116
_cell_angle_beta                  90.584168
_cell_angle_gamma                 90.611695
_cell_volume                      1127.0932188

loop_
_atom_site_label
_atom_site_type_symbol
_atom_type_description
_atom_site_fract_x
_atom_site_fract_y
_atom_site_fract_z
_atom_type_partial_charge
C1    C     C_R   0.493005 0.265400 0.499588 0.783572
C2    C     C_3   0.958003 0.591301 0.418280 -0.126071
C3    C     C_3   0.038523 0.481950 0.370204 -0.176149
C4    C     C_3   0.122486 0.500538 0.498471 -0.032917
C5    C     C_2   0.505952 0.932949 0.388396 -0.102321
C6    C     C_2   0.518234 0.866424 0.502817 -0.279452
C7    C     C_2   0.514326 0.066680 0.394415 -0.252729
C8    C     C_2   0.466556 0.134280 0.497701 -0.152892
C9    C     C_2   0.425424 0.431156 0.921922 0.095408
C10   C     C_2   0.441135 0.417744 0.076261 -0.036388
C11   C     C_R   0.259391 0.499688 0.499410 0.827144
C12   C     C_R   0.504976 0.734535 0.500411 0.833187
C13   C     C_R   0.740570 0.501083 0.500639 0.783021
C14   C     C_3   0.039978 0.412827 0.580256 0.495303
C15   C     C_3   0.955358 0.391785 0.453007 -0.255455
C16   C     C_3   0.877349 0.501511 0.501673 -0.039054
C17   C     C_3   0.960970 0.520932 0.630486 -0.233834
C18   C     C_3   0.044211 0.609897 0.546417 -0.227814
Cu1   Cu    Cu3+1 0.500030 0.500020 0.638630 0.994878
Cu2   Cu    Cu3+1 0.499970 0.499980 0.361370 0.945702
H1    H     H_    0.916154 0.302755 0.415926 0.133463
H2    H     H_    0.348586 0.381298 0.872132 0.133526
H3    H     H_    0.397953 0.338777 0.124760 0.138848
H4    H     H_    0.517238 0.582080 0.109400 0.231126
H5    H     H_    0.926884 0.536499 0.736688 0.149298
H6    H     H_    0.083690 0.698867 0.583381 0.153197
H7    H     H_    0.920503 0.664948 0.351538 0.140319
H8    H     H_    0.072874 0.466899 0.263985 0.154556
H9    H     H_    0.495323 0.889507 0.288055 0.165993
H10   H     H_    0.537808 0.909938 0.601656 0.139892
H11   H     H_    0.567278 0.110501 0.312812 0.167596
N1    N     N_2   0.498620 0.498660 0.846910 -0.019437
N2    N     N_2   0.498590 0.498630 0.153040 -0.263171
O1    O     O_R   0.500020 0.321960 0.617040 -0.537601
O2    O     O_R   0.499980 0.321920 0.382900 -0.584088
O3    O     O_R   0.316870 0.499990 0.617050 -0.572819
O4    O     O_R   0.316830 0.499950 0.382910 -0.592238
O5    O     O_R   0.500020 0.678080 0.617100 -0.617714
O6    O     O_R   0.499980 0.678040 0.382960 -0.588757
O7    O     O_R   0.683170 0.500050 0.617090 -0.578375
O8    O     O_R   0.683130 0.500010 0.382950 -0.566192
C19   C     C_2   0.373935 0.085107 0.598462 0.862872
O9    O     O_2   0.372202 0.125384 0.716101 -0.601954
O10   O     O_R   0.286249 0.995329 0.557219 -0.754082
H12   H     H_    0.229865 0.967842 0.634914 0.314043
O11   O     O_3   0.612932 0.521704 0.904297 -0.485017
C20   C     C_3   0.642185 0.646879 0.885038 0.190081
H13   H     H_    0.559793 0.706278 0.906088 0.113920
H14   H     H_    0.675659 0.663932 0.779540 0.182722
C21   C     C_3   0.748975 0.684239 0.982781 -0.900765
H15   H     H_    0.832970 0.627316 0.963106 0.254428
H16   H     H_    0.774359 0.782008 0.966467 0.207731
H17   H     H_    0.720336 0.672226 0.091454 0.254070
O12   O     O_3   0.092057 0.321581 0.665198 -0.577433
C22   C     C_3   0.994132 0.252380 0.724915 0.063950
H18   H     H_    0.946030 0.194482 0.645361 0.141240
H19   H     H_    0.923751 0.311995 0.775711 0.150002
C23   C     C_3   0.049183 0.169067 0.834483 -0.742152
H20   H     H_    0.098335 0.224718 0.915020 0.244187
H21   H     H_    0.972699 0.114915 0.883036 0.189914
H22   H     H_    0.117044 0.105141 0.787553 0.261684

loop_
_geom_bond_atom_site_label_1
_geom_bond_atom_site_label_2
_ccdc_geom_bond_type
C21   H16   S    
C22   H18   S    
C5    C7    S    
C2    H7    S    
Cu1   O5    S    
C10   H3    S    
C2    C18   S    
C1    C8    S    
C2    C16   S    
C9    C10   S    
Cu1   Cu2   S    
H4    N2    S    
C18   H6    S    
C4    C18   S    
C12   O6    A    
C13   O8    A    
C2    C3    S    
C17   H5    S    
C7    C8    D    
C20   H14   S    
O11   C20   S    
C4    C11   S    
C12   O5    A    
Cu2   O4    S    
C14   C17   S    
C19   O10   S    
C23   H22   S    
Cu2   N2    S    
C6    C12   S    
C11   O3    A    
C6    H10   S    
C8    C19   S    
C1    O1    A    
Cu2   O8    S    
C20   C21   S    
C5    H9    S    
Cu1   O3    S    
C22   H19   S    
C4    C14   S    
C5    C6    D    
C9    H2    S    
C13   C16   S    
C21   H17   S    
C7    H11   S    
C19   O9    D    
Cu1   N1    S    
C23   H21   S    
C15   C16   S    
C14   O12   S    
C15   H1    S    
C3    C15   S    
O10   H12   S    
C1    O2    A    
C17   C18   S    
C10   N2    D    
Cu1   O7    S    
C22   C23   S    
C11   O4    A    
Cu2   O6    S    
O12   C22   S    
C3    H8    S    
C13   O7    A    
C9    N1    D    
C21   H15   S    
C23   H20   S    
C14   C15   S    
Cu2   O2    S    
N1    O11   S    
C3    C4    S    
C20   H13   S    
C16   C17   S    
Cu1   O1    S    
