data_mof_unit_43728.cif
_audit_creation_date              2012-12-11T17:15:59-0500
_audit_creation_method            fapswitch 2.2
_symmetry_space_group_name_H-M    P1
_symmetry_Int_Tables_number       1
_space_group_crystal_system       triclinic
_cell_length_a                    14.617529
_cell_length_b                    7.228091
_cell_length_c                    13.455315
_cell_angle_alpha                 90.000118
_cell_angle_beta                  99.411471
_cell_angle_gamma                 90.000066
_cell_volume                      1402.50978075

loop_
_atom_site_label
_atom_site_type_symbol
_atom_type_description
_atom_site_fract_x
_atom_site_fract_y
_atom_site_fract_z
_atom_type_partial_charge
O1    O     O_R   0.398210 0.494340 0.401550 -0.531661
O2    O     O_R   0.601790 0.994340 0.598450 -0.531663
O3    O     O_R   0.586310 0.821730 0.403360 -0.543869
O4    O     O_R   0.413690 0.321730 0.596640 -0.543870
C1    C     C_R   0.615099 0.655262 0.381495 0.669978
C2    C     C_R   0.384902 0.155262 0.618506 0.669975
O5    O     O_R   0.397970 0.823900 0.389580 -0.535208
O6    O     O_R   0.602030 0.323900 0.610420 -0.535209
O7    O     O_R   0.412100 0.996500 0.584560 -0.540165
O8    O     O_R   0.587900 0.496500 0.415440 -0.540163
C3    C     C_R   0.365069 0.655222 0.362974 0.721052
C4    C     C_R   0.634931 0.155222 0.637026 0.721050
O9    O     O_3   0.504860 0.661550 0.563990 -0.375605
O10   O     O_3   0.495140 0.161550 0.436010 -0.375601
V1    V     V_3+5 0.499100 0.935510 0.488130 1.385644
V2    V     V_3+5 0.500900 0.435510 0.511870 1.385643
C5    C     C_1   0.715951 0.144623 0.716967 -0.195298
C6    C     C_1   0.284049 0.644622 0.283033 -0.195293
C7    C     C_1   0.783851 0.134107 0.783316 -0.203898
C8    C     C_1   0.216148 0.634107 0.216684 -0.203892
C9    C     C_3   0.279293 0.228983 0.865500 0.403529
C10   C     C_3   0.720696 0.728915 0.134489 0.403482
H1    H     H_    0.307086 0.141411 0.932209 0.006565
H2    H     H_    0.692912 0.641292 0.067797 0.006578
C11   C     C_3   0.352475 0.234249 0.792858 -0.360033
C12   C     C_3   0.647520 0.734189 0.207136 -0.360033
H3    H     H_    0.373706 0.379645 0.781581 0.166228
H4    H     H_    0.626280 0.879574 0.218393 0.166245
H5    H     H_    0.130508 0.385705 0.733685 0.175730
H6    H     H_    0.869453 0.885775 0.266277 0.175740
H7    H     H_    0.240881 0.400027 0.631347 0.148653
H8    H     H_    0.759092 0.900056 0.368628 0.148662
C13   C     C_3   0.150397 0.242921 0.714886 -0.310451
C14   C     C_3   0.849592 0.742984 0.285099 -0.310443
C15   C     C_3   0.213794 0.935922 0.780267 -0.396183
C16   C     C_3   0.786235 0.435926 0.219767 -0.396209
C17   C     C_3   0.188043 0.133934 0.812564 0.046533
C18   C     C_3   0.811959 0.633933 0.187439 0.046567
H9    H     H_    0.150656 0.863283 0.741757 0.168389
H10   H     H_    0.849384 0.363341 0.258294 0.168357
H11   H     H_    0.242272 0.852804 0.847933 0.164120
H12   H     H_    0.757773 0.352756 0.152115 0.164154
C19   C     C_3   0.313640 0.146231 0.689300 0.065648
C20   C     C_3   0.686363 0.646231 0.310702 0.065635
C21   C     C_3   0.224109 0.252537 0.643933 -0.327372
C22   C     C_3   0.775880 0.752580 0.356053 -0.327404
C23   C     C_3   0.286024 0.943208 0.708540 -0.328170
C24   C     C_3   0.713999 0.443217 0.291487 -0.328200
H13   H     H_    0.348447 0.862711 0.742028 0.151906
H14   H     H_    0.651588 0.362697 0.258006 0.151929
H15   H     H_    0.086627 0.174566 0.674911 0.114506
H16   H     H_    0.913376 0.674690 0.325082 0.114500
O11   O     O_R   0.912140 0.786650 0.084610 -0.508985
O12   O     O_R   0.087860 0.286650 0.915390 -0.508972
O13   O     O_R   0.102040 0.454810 0.110430 -0.533502
O14   O     O_R   0.897960 0.954810 0.889570 -0.533508
C25   C     C_R   0.135030 0.623554 0.136882 0.727166
C26   C     C_R   0.864969 0.123554 0.863118 0.727180
O15   O     O_R   0.913690 0.457060 0.096650 -0.549529
O16   O     O_R   0.086310 0.957060 0.903350 -0.549526
O17   O     O_R   0.898200 0.284560 0.901540 -0.535832
O18   O     O_R   0.101800 0.784560 0.098460 -0.535835
C27   C     C_R   0.884456 0.625343 0.117630 0.656118
C28   C     C_R   0.115546 0.125343 0.882371 0.656119
O19   O     O_3   0.995160 0.617270 0.936040 -0.374031
O20   O     O_3   0.004840 0.117270 0.063960 -0.374038
V3    V     V_3+5 0.000900 0.343280 0.011870 1.437488
V4    V     V_3+5 0.999100 0.843280 0.988130 1.437477
O21   O     O_3   0.259672 0.412187 0.894026 -0.545375
C29   C     C_3   0.320076 0.464980 0.982230 -0.275454
H17   H     H_    0.394032 0.450254 0.973150 0.119436
H18   H     H_    0.305757 0.383396 0.048066 0.137868
H19   H     H_    0.307625 0.612798 0.997724 0.149312
O22   O     O_3   0.740288 0.912114 0.105929 -0.545385
C30   C     C_3   0.679891 0.964804 0.017698 -0.275407
H20   H     H_    0.605927 0.949868 0.026728 0.119404
H21   H     H_    0.694308 0.883279 0.951883 0.137926
H22   H     H_    0.692250 0.112686 0.002211 0.149280
H23   H     H_    0.256646 0.875633 0.635960 0.150858
H24   H     H_    0.743377 0.375679 0.364073 0.150858
H25   H     H_    0.194753 0.192797 0.569291 0.125866
H26   H     H_    0.805243 0.692870 0.430694 0.125884
H27   H     H_    0.415971 0.158714 0.827897 0.078013
H28   H     H_    0.584034 0.658630 0.172112 0.078017

loop_
_geom_bond_atom_site_label_1
_geom_bond_atom_site_label_2
_ccdc_geom_bond_type
C3    C6    S    
C13   C21   S    
C16   H12   S    
O1    C3    A    
C23   H23   S    
C15   C23   S    
C11   C19   S    
C2    O7    A    
C12   C20   S    
C25   O18   A    
C23   H13   S    
O5    C3    A    
C15   C17   S    
C10   C18   S    
H5    C13   S    
O11   V4    S    
C14   H16   S    
O15   V3    S    
C22   H26   S    
C4    C5    S    
C29   H17   S    
C14   C22   S    
C26   O17   A    
C24   H14   S    
O20   V3    S    
O2    C4    A    
O6    V2    S    
H8    C22   S    
C20   C22   S    
C7    C26   S    
O22   C30   S    
H6    C14   S    
C16   H10   S    
O4    C2    A    
O12   V3    S    
O14   V4    S    
C13   C17   S    
C9    O21   S    
O4    V2    S    
C15   H9    S    
C30   H20   S    
C30   H21   S    
O17   V3    S    
O6    C4    A    
O19   V4    S    
C29   H19   S    
O1    V2    S    
O2    V1    S    
C19   C21   S    
C1    C20   S    
C2    C19   S    
O13   C25   A    
H7    C21   S    
C10   H2    S    
C13   H15   S    
C10   O22   S    
C16   C18   S    
C17   C28   S    
O3    V1    S    
C18   C27   S    
C9    C11   S    
C12   H28   S    
C14   C18   S    
O15   C27   A    
C21   H25   S    
O3    C1    A    
O13   V3    S    
C11   H3    S    
C12   H4    S    
O18   V4    S    
O16   C28   A    
C24   H24   S    
C9    H1    S    
O7    V1    S    
C1    O8    A    
O8    V2    S    
O11   C27   A    
O12   C28   A    
O5    V1    S    
C5    C7    T    
O14   C26   A    
C16   C24   S    
C6    C8    T    
O21   C29   S    
C15   H11   S    
C30   H22   S    
C9    C17   S    
O16   V4    S    
C10   C12   S    
O9    V2    S    
C11   H27   S    
O10   V1    S    
C29   H18   S    
C8    C25   S    
C19   C23   S    
C20   C24   S    
