data_mof_unit_8032.cif
_audit_creation_date              2012-12-10T17:17:30-0500
_audit_creation_method            fapswitch 2.2
_symmetry_space_group_name_H-M    P1
_symmetry_Int_Tables_number       1
_space_group_crystal_system       triclinic
_cell_length_a                    10.201338
_cell_length_b                    10.591628
_cell_length_c                    12.697289
_cell_angle_alpha                 91.656862
_cell_angle_beta                  110.365492
_cell_angle_gamma                 95.073234
_cell_volume                      1278.51154564

loop_
_atom_site_label
_atom_site_type_symbol
_atom_type_description
_atom_site_fract_x
_atom_site_fract_y
_atom_site_fract_z
_atom_type_partial_charge
C1    C     C_R   0.053479 0.734163 0.497501 0.803772
C2    C     C_R   0.226808 0.562764 0.831159 -0.284279
C3    C     C_2   0.091257 0.871394 0.511563 0.198651
C4    C     C_R   0.139804 0.526985 0.711790 0.920671
C5    C     C_2   0.044637 0.938909 0.580365 0.456078
C6    C     C_2   0.936207 0.132231 0.532446 0.200573
C7    C     C_2   0.054195 0.075458 0.579202 0.475963
C8    C     C_2   0.425259 0.528423 0.480357 0.603895
C9    C     C_2   0.567295 0.490886 0.484214 0.642732
C10   C     C_R   0.951916 0.266527 0.511208 0.788160
C11   C     C_R   0.862013 0.474989 0.288708 0.936954
C12   C     C_R   0.434874 0.520663 0.987131 0.006443
C13   C     C_R   0.761590 0.387331 0.979089 0.456571
C14   C     C_R   0.780784 0.441792 0.170468 -0.362612
C15   C     C_R   0.169009 0.614164 0.906691 0.345719
C16   C     C_R   0.241776 0.612938 0.022667 0.522771
C17   C     C_R   0.371407 0.564298 0.062508 -0.275147
C18   C     C_3   0.717642 0.078600 0.397382 -0.276759
C19   C     C_3   0.109076 0.909719 0.340593 -0.314889
C20   C     C_3   0.415730 0.722117 0.408221 -0.249684
C21   C     C_3   0.238349 0.283604 0.328715 0.034551
C22   C     C_3   0.546389 0.313300 0.694811 -0.133212
C23   C     C_R   0.370259 0.539922 0.872602 -0.206538
C24   C     C_3   0.912885 0.385972 0.882114 -0.072577
C25   C     C_3   0.500774 0.282562 0.171575 -0.243293
C26   C     C_3   0.064943 0.797289 0.879487 -0.089405
C27   C     C_3   0.454423 0.744814 0.754887 -0.092228
C28   C     C_R   0.565577 0.468033 0.021675 -0.136388
C29   C     C_R   0.629011 0.435948 0.941918 -0.293389
C30   C     C_R   0.563850 0.463238 0.829567 0.478822
C31   C     C_R   0.453491 0.538524 0.803621 0.469432
C32   C     C_R   0.635535 0.443768 0.133515 0.430186
C33   C     C_R   0.841799 0.400374 0.094166 0.475435
F1    F     F_    0.973834 0.364515 0.131507 -0.683582
F2    F     F_    0.966465 0.882992 0.637382 -0.644445
F3    F     F_    0.571359 0.388596 0.419320 -0.672844
F4    F     F_    0.682452 0.654419 0.609361 -0.512891
F5    F     F_    0.184565 0.655133 0.097192 -0.686936
F6    F     F_    0.185051 0.140010 0.611600 -0.668267
H1    H     H_    0.422676 0.568655 0.152601 0.222352
H2    H     H_    0.518725 0.721217 0.396419 0.151396
H3    H     H_    0.248492 0.349353 0.264435 0.160193
H4    H     H_    0.128661 0.272340 0.326738 0.198408
H5    H     H_    0.263225 0.189262 0.305736 0.111491
H6    H     H_    0.588654 0.285009 0.629147 0.215348
H7    H     H_    0.431614 0.319204 0.653763 0.212246
H8    H     H_    0.563558 0.237224 0.755398 0.184532
H9    H     H_    0.878769 0.477101 0.847008 0.242728
H10   H     H_    0.937191 0.330892 0.816782 0.157790
H11   H     H_    0.010763 0.402045 0.957014 0.187111
H12   H     H_    0.772395 0.064161 0.336486 0.109131
H13   H     H_    0.413069 0.277459 0.089054 0.157199
H14   H     H_    0.455919 0.248563 0.234676 0.208967
H15   H     H_    0.579191 0.216954 0.168606 0.126291
H16   H     H_    0.138120 0.834321 0.837087 0.138519
H17   H     H_    0.105728 0.832146 0.969573 0.155660
H18   H     H_    0.963177 0.836507 0.839440 0.239619
H19   H     H_    0.552620 0.767032 0.829542 0.125847
H20   H     H_    0.361872 0.770609 0.774527 0.097623
H21   H     H_    0.463802 0.805571 0.687658 0.239027
H22   H     H_    0.676520 0.172712 0.389428 0.229881
H23   H     H_    0.625867 0.005440 0.374576 0.193034
H24   H     H_    0.001633 0.941402 0.311400 0.140308
H25   H     H_    0.104934 0.808428 0.313033 0.192208
H26   H     H_    0.171730 0.966108 0.299077 0.191339
H27   H     H_    0.328493 0.684378 0.329856 0.178164
H28   H     H_    0.401962 0.822708 0.424088 0.234426
N1    N     N_2   0.313640 0.446500 0.454900 0.019979
N2    N     N_2   0.686360 0.553430 0.545150 0.133238
O1    O     O_R   0.936910 0.692950 0.509080 -0.545118
O2    O     O_3   0.175409 0.931277 0.458244 -0.583793
O3    O     O_3   0.411790 0.654464 0.501293 -0.554833
O4    O     O_3   0.333431 0.324908 0.436578 -0.561353
O5    O     O_3   0.617162 0.431585 0.747484 -0.596563
O6    O     O_3   0.804478 0.315689 0.906354 -0.600810
O7    O     O_3   0.563532 0.408607 0.204196 -0.556101
O8    O     O_3   0.041036 0.663593 0.867171 -0.589333
O9    O     O_3   0.435874 0.616227 0.714887 -0.536571
O10   O     O_R   0.138320 0.658600 0.480130 -0.563897
O11   O     O_R   0.002900 0.525670 0.675280 -0.564560
O12   O     O_R   0.204310 0.491320 0.646330 -0.567665
O13   O     O_R   0.861680 0.341400 0.519870 -0.579468
O14   O     O_R   0.063090 0.307050 0.490920 -0.574653
O15   O     O_R   0.795690 0.508680 0.353670 -0.565396
O16   O     O_R   0.997100 0.474330 0.324720 -0.593782
O17   O     O_3   0.805129 0.064042 0.509161 -0.561720
Zn1   Zn    Zn3+2 0.865520 0.522940 0.519330 1.127409
Zn2   Zn    Zn3+2 0.134480 0.477060 0.480670 1.066141

loop_
_geom_bond_atom_site_label_1
_geom_bond_atom_site_label_2
_ccdc_geom_bond_type
C8    C9    S    
F4    N2    S    
C20   H28   S    
C19   O2    S    
O15   Zn1   S    
C27   O9    S    
C26   H16   S    
C14   C33   A    
C20   H2    S    
C12   C23   A    
C18   O17   S    
C12   C28   A    
C13   C29   A    
C28   C29   A    
C9    N2    D    
C4    O11   A    
O11   Zn1   S    
C27   H21   S    
C30   C31   A    
C30   O5    S    
C11   C14   S    
O13   Zn1   S    
C21   O4    S    
C10   O14   A    
C21   H4    S    
C4    O12   A    
C13   O6    S    
C19   H24   S    
C16   C17   A    
C12   C17   A    
C9    F3    S    
N2    Zn1   S    
O14   Zn2   S    
O1    Zn1   S    
O10   Zn2   S    
C18   H12   S    
C24   H11   S    
C8    O3    S    
C26   O8    S    
C24   H9    S    
C28   C32   A    
C25   H15   S    
C14   C32   A    
C5    C7    S    
C18   H23   S    
N1    O4    S    
C10   O13   A    
C1    C3    S    
C17   H1    S    
C23   C31   A    
C3    O2    S    
C13   C33   A    
C29   C30   A    
C21   H5    S    
C19   H25   S    
C33   F1    S    
C24   O6    S    
C2    C15   A    
C22   H7    S    
C8    N1    D    
N1    Zn2   S    
C22   O5    S    
C31   O9    S    
O16   Zn2   S    
C20   H27   S    
C24   H10   S    
C25   H14   S    
C3    C5    D    
C27   H19   S    
C26   H17   S    
C32   O7    S    
C18   H22   S    
C6    C7    D    
C11   O15   A    
C1    O1    A    
C6    O17   S    
C25   O7    S    
C25   H13   S    
C27   H20   S    
C15   O8    S    
C11   O16   A    
C1    O10   A    
C2    C4    S    
C5    F2    S    
C19   H26   S    
C26   H18   S    
C22   H8    S    
O12   Zn2   S    
C6    C10   S    
C21   H3    S    
C22   H6    S    
C2    C23   A    
C7    F6    S    
C20   O3    S    
C15   C16   A    
C16   F5    S    
