data_mof_unit_42119.cif
_audit_creation_date              2012-10-26T20:08:14-0400
_audit_creation_method            fapswitch 2.2
_symmetry_space_group_name_H-M    P1
_symmetry_Int_Tables_number       1
_space_group_crystal_system       triclinic
_cell_length_a                    10.885999
_cell_length_b                    10.85657
_cell_length_c                    9.627893
_cell_angle_alpha                 91.603647
_cell_angle_beta                  91.511515
_cell_angle_gamma                 89.070957
_cell_volume                      1136.89097324

loop_
_atom_site_label
_atom_site_type_symbol
_atom_type_description
_atom_site_fract_x
_atom_site_fract_y
_atom_site_fract_z
_atom_type_partial_charge
C1    C     C_R   0.497526 0.262421 0.498470 0.539497
C2    C     C_R   0.437464 0.068088 0.604910 -0.058202
C3    C     C_R   0.494829 0.871702 0.500216 0.014212
C4    C     C_R   0.492641 0.128479 0.496134 0.033387
C5    C     C_R   0.452144 0.403267 0.068946 0.251691
C6    C     C_R   0.551936 0.594836 0.931213 0.236013
C7    C     C_R   0.451515 0.405080 0.920645 0.061609
C8    C     C_R   0.546253 0.595882 0.079643 0.003981
C9    C     C_R   0.262852 0.496817 0.497929 0.547802
C10   C     C_R   0.737454 0.503886 0.502168 0.540815
C11   C     C_R   0.182944 0.855380 0.229536 0.069015
C12   C     C_R   0.498206 0.737652 0.501012 0.549056
C13   C     C_R   0.763637 0.204301 0.797265 0.084026
C14   C     C_R   0.142961 0.779687 0.334176 -0.090155
C15   C     C_R   0.826440 0.256394 0.689820 -0.062082
C16   C     C_R   0.121014 0.654200 0.306303 -0.006928
C17   C     C_R   0.882782 0.370056 0.709700 0.003985
C18   C     C_R   0.146052 0.601818 0.172479 0.106580
C19   C     C_R   0.876899 0.434692 0.839704 0.087136
C20   C     C_R   0.196578 0.677150 0.072845 -0.124279
C21   C     C_R   0.813171 0.380996 0.947133 -0.115797
C22   C     C_R   0.212253 0.802803 0.099908 -0.152916
C23   C     C_R   0.872222 0.507478 0.506926 -0.023290
C24   C     C_R   0.756954 0.267085 0.926205 -0.129417
C25   C     C_R   0.933668 0.591784 0.426874 0.012689
C26   C     C_R   0.067090 0.411298 0.576088 0.095426
C27   C     C_2   0.186971 0.990133 0.253127 0.579372
C28   C     C_2   0.704811 0.084839 0.772045 0.550389
C29   C     C_2   0.117511 0.471473 0.130941 0.575151
C30   C     C_2   0.932291 0.558696 0.865086 0.582591
C31   C     C_2   0.865584 0.698812 0.369187 0.583727
C32   C     C_2   0.130091 0.304119 0.641993 0.554740
C33   C     C_3   0.407003 0.180940 0.071199 -0.300855
C34   C     C_R   0.128970 0.494828 0.493807 0.013872
C35   C     C_3   0.656974 0.796630 0.940778 -0.294967
C36   C     C_R   0.940043 0.424625 0.589570 -0.015759
C37   C     C_R   0.061657 0.582007 0.414390 -0.020143
C38   C     C_R   0.545869 0.060037 0.387620 -0.110513
C39   C     C_R   0.439322 0.939977 0.607521 -0.087062
C40   C     C_R   0.546199 0.932249 0.389081 -0.097076
Cu1   Cu    Cu3+1 0.500000 0.500020 0.640660 1.004048
Cu2   Cu    Cu3+1 0.500000 0.499980 0.359340 0.974144
H1    H     H_    0.245871 0.859445 0.018620 0.142091
H2    H     H_    0.397774 0.894488 0.692892 0.139831
H3    H     H_    0.589403 0.880822 0.305036 0.157128
H4    H     H_    0.394655 0.119958 0.688856 0.150591
H5    H     H_    0.215305 0.132709 0.387477 0.358559
H6    H     H_    0.699693 0.926250 0.656435 0.349326
H7    H     H_    0.132519 0.333759 0.987240 0.368180
H8    H     H_    0.941999 0.712300 0.987155 0.354556
H9    H     H_    0.802657 0.601371 0.203703 0.338500
H10   H     H_    0.134600 0.120015 0.665502 0.351685
H11   H     H_    0.321949 0.322013 0.191357 0.302356
H12   H     H_    0.709323 0.227715 0.011251 0.141582
H13   H     H_    0.394774 0.110638 0.150497 0.177577
H14   H     H_    0.498704 0.164670 0.026859 0.170546
H15   H     H_    0.334097 0.170388 0.989060 0.180728
H16   H     H_    0.684276 0.652342 0.798515 0.296548
H17   H     H_    0.575631 0.850463 0.976737 0.171545
H18   H     H_    0.713246 0.852266 0.873718 0.201630
H19   H     H_    0.718165 0.773682 0.029508 0.206877
H20   H     H_    0.412892 0.329596 0.860255 0.178966
H21   H     H_    0.581295 0.671833 0.141762 0.162054
H22   H     H_    0.121237 0.819701 0.435164 0.182670
H23   H     H_    0.829477 0.210116 0.588636 0.184932
H24   H     H_    0.218916 0.640266 0.970773 0.194667
H25   H     H_    0.806523 0.426857 0.047862 0.163669
H26   H     H_    0.589627 0.105268 0.303541 0.138621
N1    N     N_R   0.500030 0.500030 0.852070 -0.246695
N2    N     N_R   0.499970 0.499970 0.147930 -0.249293
N3    N     N_2   0.399980 0.302385 0.136325 -0.476263
N4    N     N_2   0.618458 0.687096 0.863893 -0.484358
O1    O     O_R   0.499990 0.319660 0.618740 -0.510866
O2    O     O_R   0.210975 0.039457 0.386358 -0.691232
O3    O     O_2   0.619785 0.055220 0.843497 -0.605609
O4    O     O_R   0.745610 0.006462 0.664341 -0.665715
O5    O     O_2   0.056952 0.407160 0.204691 -0.528162
O6    O     O_R   0.158237 0.422375 0.004226 -0.683597
O7    O     O_2   0.005801 0.599827 0.785323 -0.513405
O8    O     O_R   0.900853 0.629110 0.982320 -0.735774
O9    O     O_2   0.867416 0.797868 0.432270 -0.455077
O10   O     O_R   0.798627 0.687979 0.244909 -0.691289
O11   O     O_2   0.214188 0.319067 0.726491 -0.519869
O12   O     O_R   0.500010 0.680340 0.381260 -0.512793
O13   O     O_R   0.087144 0.185435 0.612292 -0.680377
O14   O     O_R   0.499990 0.319630 0.381170 -0.486182
O15   O     O_R   0.500010 0.680370 0.618830 -0.486311
O16   O     O_R   0.319650 0.500020 0.618780 -0.441551
O17   O     O_R   0.680350 0.499980 0.381220 -0.496108
O18   O     O_R   0.319640 0.500000 0.381210 -0.519423
O19   O     O_R   0.680360 0.500000 0.618790 -0.524545
O20   O     O_2   0.166789 0.058688 0.156229 -0.526432

loop_
_geom_bond_atom_site_label_1
_geom_bond_atom_site_label_2
_ccdc_geom_bond_type
C25   C31   S    
C6    N1    A    
C26   C32   S    
C34   C37   A    
Cu1   Cu2   S    
H6    O4    S    
C2    H4    S    
C6    N4    S    
C31   O10   S    
C20   H24   S    
H10   O13   S    
C19   C21   A    
C9    O16   A    
C11   C14   A    
C24   H12   S    
C15   H23   S    
Cu2   N2    S    
H7    O6    S    
C12   O12   A    
C35   H17   S    
Cu1   O16   S    
C3    C12   S    
C25   C37   A    
C2    C39   A    
C26   C34   A    
C29   O6    S    
C10   O17   A    
C13   C28   S    
Cu2   O14   S    
C17   C36   S    
C27   O2    S    
C16   C37   S    
C30   O8    S    
C33   H14   S    
C3    C39   A    
C21   H25   S    
C40   H3    S    
Cu1   O15   S    
C27   O20   D    
Cu2   O12   S    
C5    C7    A    
C6    C8    A    
C13   C24   A    
C35   H18   S    
Cu2   O18   S    
C2    C4    A    
C7    H20   S    
C5    N2    A    
C22   H1    S    
C11   C27   S    
C14   H22   S    
C33   H13   S    
C35   H19   S    
C18   C29   S    
H9    O10   S    
C30   O7    D    
C26   C36   A    
Cu1   O19   S    
C38   H26   S    
C35   N4    S    
C13   C15   A    
C9    C34   S    
C14   C16   A    
C10   O19   A    
C20   C22   A    
H11   N3    S    
Cu1   N1    S    
C1    O14   A    
C15   C17   A    
C32   O11   D    
C33   H15   S    
C12   O15   A    
C3    C40   A    
H5    O2    S    
C4    C38   A    
H8    O8    S    
C9    O18   A    
C7    N1    A    
C39   H2    S    
C10   C23   S    
C11   C22   A    
C8    N2    A    
C31   O9    D    
C1    C4    S    
C1    O1    A    
Cu2   O17   S    
C5    N3    S    
C38   C40   A    
C19   C30   S    
H16   N4    S    
C32   O13   S    
C17   C19   A    
C18   C20   A    
C23   C25   A    
C33   N3    S    
C8    H21   S    
Cu1   O1    S    
C29   O5    D    
C16   C18   A    
C23   C36   A    
C21   C24   A    
C28   O3    D    
C28   O4    S    
