data_mof_unit_20770.cif
_audit_creation_date              2013-03-05T16:10:56-0500
_audit_creation_method            fapswitch 2.2
_symmetry_space_group_name_H-M    P1
_symmetry_Int_Tables_number       1
_space_group_crystal_system       triclinic
_cell_length_a                    15.5469
_cell_length_b                    14.680845
_cell_length_c                    9.884455
_cell_angle_alpha                 90.598046
_cell_angle_beta                  90.310636
_cell_angle_gamma                 89.705499
_cell_volume                      2255.85890978

loop_
_atom_site_label
_atom_site_type_symbol
_atom_site_description
_atom_site_fract_x
_atom_site_fract_y
_atom_site_fract_z
_atom_type_partial_charge
O1    O     O_R   0.091610 0.408380 0.614620 -0.584923
O2    O     O_R   0.908390 0.591620 0.385380 -0.602437
O3    O     O_R   0.908390 0.591620 0.614620 -0.543490
O4    O     O_R   0.091610 0.408380 0.385380 -0.583938
O5    O     O_R   0.908390 0.408380 0.385380 -0.577067
O6    O     O_R   0.091610 0.591620 0.614620 -0.605915
O7    O     O_R   0.091610 0.591620 0.385380 -0.537915
O8    O     O_R   0.908390 0.408380 0.614620 -0.585145
O9    O     O_R   0.591610 0.908380 0.614620 -0.571915
O10   O     O_R   0.408390 0.091620 0.385380 -0.579610
O11   O     O_R   0.408390 0.091620 0.614620 -0.590614
O12   O     O_R   0.591610 0.908380 0.385380 -0.575543
O13   O     O_R   0.408390 0.908380 0.385380 -0.523048
O14   O     O_R   0.591610 0.091620 0.614620 -0.597044
O15   O     O_R   0.591610 0.091620 0.385380 -0.544332
O16   O     O_R   0.408390 0.908380 0.614620 -0.608673
C1    C     C_R   0.126516 0.386925 0.499897 0.919796
C2    C     C_R   0.873469 0.612613 0.500037 0.934231
C3    C     C_R   0.872959 0.388499 0.499638 0.921879
C4    C     C_R   0.127350 0.610410 0.500645 0.952383
C5    C     C_R   0.626761 0.887820 0.500106 0.928091
C6    C     C_R   0.372332 0.110801 0.500147 0.915043
C7    C     C_R   0.377021 0.882210 0.498870 0.943559
C8    C     C_R   0.625538 0.114314 0.500405 0.938446
N1    N     N_R   1.000000 0.500000 0.857200 -0.231735
N2    N     N_R   1.000000 0.500000 0.142800 -0.230474
N3    N     N_R   0.500000 0.000000 0.857200 -0.231465
N4    N     N_R   0.500000 0.000000 0.142800 -0.220731
Zn1   Zn    Zn3+2 0.000000 0.500000 0.653120 1.075450
Zn2   Zn    Zn3+2 1.000000 0.500000 0.346880 1.079052
Zn3   Zn    Zn3+2 0.500000 0.000000 0.653120 1.062779
Zn4   Zn    Zn3+2 0.500000 0.000000 0.346880 1.101413
C9    C     C_R   0.000103 0.580235 0.073311 0.238840
C10   C     C_R   0.999391 0.419765 0.926794 0.237258
C11   C     C_R   0.000177 0.419744 0.070574 0.233731
C12   C     C_R   0.999144 0.580299 0.929513 0.231487
C13   C     C_R   0.493945 0.080061 0.073239 0.242666
C14   C     C_R   0.502938 0.919981 0.926404 0.237690
C15   C     C_R   0.509913 0.920080 0.069525 0.228038
C16   C     C_R   0.495043 0.080166 0.929419 0.223533
C17   C     C_R   0.766248 0.296044 0.375943 0.365937
C18   C     C_R   0.235008 0.701960 0.623381 0.425573
C19   C     C_R   0.241199 0.688263 0.377199 0.358225
C20   C     C_R   0.766746 0.297887 0.623098 0.459905
C21   C     C_R   0.230591 0.291197 0.623373 0.476226
C22   C     C_R   0.768466 0.707018 0.377122 0.434987
C23   C     C_R   0.770806 0.708611 0.624434 0.456570
C24   C     C_R   0.226734 0.286176 0.376029 0.465602
C25   C     C_R   0.293771 0.765093 0.373774 0.353232
C26   C     C_R   0.727253 0.214262 0.623709 0.430281
C27   C     C_R   0.725176 0.212229 0.376084 0.459746
C28   C     C_R   0.274855 0.784975 0.619022 0.415252
C29   C     C_R   0.730458 0.793125 0.624717 0.371212
C30   C     C_R   0.263588 0.200659 0.377577 0.478026
C31   C     C_R   0.267768 0.205835 0.624311 0.467356
C32   C     C_R   0.730305 0.791599 0.377098 0.460663
C33   C     C_R   0.205671 0.662990 0.501364 -0.405800
C34   C     C_R   0.796621 0.332211 0.499457 -0.502721
C35   C     C_R   0.799021 0.672005 0.500530 -0.449610
C36   C     C_R   0.200676 0.326459 0.499456 -0.558496
C37   C     C_R   0.697575 0.176757 0.500311 -0.445370
C38   C     C_R   0.310435 0.813641 0.495684 -0.392849
C39   C     C_R   0.295273 0.166993 0.500998 -0.567314
C40   C     C_R   0.701654 0.829058 0.500605 -0.504570
N5    N     N_R   0.003550 0.665178 0.145158 0.265175
O17   O     O_R   0.932239 0.707696 0.172619 -0.262925
O18   O     O_R   0.074005 0.712267 0.141781 -0.317423
N6    N     N_R   0.994391 0.334811 0.855240 0.259802
O19   O     O_R   0.065070 0.292317 0.823964 -0.264419
O20   O     O_R   0.924142 0.287629 0.863068 -0.262471
N7    N     N_R   0.002942 0.334575 0.139301 0.259512
O21   O     O_R   0.931049 0.295594 0.170297 -0.287596
O22   O     O_R   0.071089 0.283627 0.127083 -0.243983
N8    N     N_R   0.994282 0.665490 0.860987 0.264438
O23   O     O_R   0.065094 0.705741 0.827801 -0.270959
O24   O     O_R   0.925559 0.715316 0.875268 -0.273014
N9    N     N_R   0.493138 0.165187 0.144807 0.260680
O25   O     O_R   0.419973 0.205537 0.166667 -0.258312
O26   O     O_R   0.561987 0.214917 0.143688 -0.283367
N10   N     N_R   0.490231 0.835068 0.856680 0.264245
O27   O     O_R   0.555242 0.793405 0.801594 -0.286753
O28   O     O_R   0.422737 0.787320 0.885848 -0.289864
N11   N     N_R   0.537516 0.837077 0.132876 0.262104
O29   O     O_R   0.496001 0.803191 0.233577 -0.318516
O30   O     O_R   0.596863 0.787228 0.075991 -0.248857
N12   N     N_R   0.488098 0.165116 0.860556 0.259533
O31   O     O_R   0.557773 0.205566 0.822500 -0.273299
O32   O     O_R   0.419124 0.214306 0.876678 -0.241781
O33   O     O_3   0.772357 0.342332 0.255521 -0.654507
H1    H     H_    0.771253 0.408581 0.276105 0.346168
O34   O     O_3   0.223106 0.662761 0.747973 -0.604379
H2    H     H_    0.224089 0.595689 0.735031 0.330637
O35   O     O_3   0.224345 0.635887 0.262829 -0.700714
H3    H     H_    0.230022 0.673024 0.180614 0.393331
O36   O     O_3   0.775883 0.343652 0.744855 -0.598674
H4    H     H_    0.773597 0.409918 0.726558 0.348546
O37   O     O_3   0.224646 0.338035 0.744715 -0.591156
H5    H     H_    0.227837 0.404082 0.725459 0.328181
O38   O     O_3   0.774973 0.660758 0.255384 -0.600123
H6    H     H_    0.772424 0.594597 0.274049 0.328699
O39   O     O_3   0.783892 0.660782 0.742673 -0.667202
H7    H     H_    0.751256 0.689812 0.817527 0.422972
O40   O     O_3   0.217794 0.328490 0.252889 -0.587070
H8    H     H_    0.223825 0.395015 0.268296 0.354213
O41   O     O_3   0.325776 0.795594 0.252597 -0.661964
H9    H     H_    0.346120 0.742249 0.199327 0.380258
O42   O     O_3   0.719731 0.170913 0.746128 -0.598288
H10   H     H_    0.725238 0.104458 0.729163 0.332142
O43   O     O_3   0.711452 0.163722 0.257205 -0.666111
H11   H     H_    0.743121 0.192164 0.182018 0.420646
O44   O     O_3   0.278381 0.835721 0.737077 -0.603711
H12   H     H_    0.270227 0.900582 0.712822 0.327181
O45   O     O_3   0.723109 0.840054 0.745964 -0.654632
H13   H     H_    0.727029 0.906100 0.726962 0.346879
O46   O     O_3   0.268122 0.152331 0.257333 -0.589872
H14   H     H_    0.269514 0.086469 0.278562 0.343835
O47   O     O_3   0.276450 0.162574 0.746799 -0.590534
H15   H     H_    0.274238 0.095936 0.729744 0.334071
O48   O     O_3   0.721624 0.835391 0.255102 -0.597565
H16   H     H_    0.725912 0.901854 0.272658 0.345382

loop_
_geom_bond_atom_site_label_1
_geom_bond_atom_site_label_2
_geom_bond_distance
_ccdc_geom_bond_type
C17   O33   1.380736 S    
C22   O38   1.379487 S    
C21   C36   1.410367 A    
C8    C37   1.450948 S    
C23   O39   1.383271 S    
C22   C35   1.407884 A    
O2    C2    1.292987 A    
O13   Zn4   2.004683 S    
O36   H4    0.991794 S    
C27   C37   1.408705 A    
O14   Zn3   2.004681 S    
O37   H5    0.991625 S    
C9    N5    1.429714 S    
O15   Zn4   1.996402 S    
N9    O25   1.297898 A    
O10   C6    1.295783 A    
O16   Zn3   1.996404 S    
C24   C30   1.377542 A    
O35   H3    0.987901 S    
N8    O24   1.299221 A    
O8    Zn1   1.996404 S    
C17   C34   1.406487 A    
C18   O34   1.378555 S    
C13   C16   1.421792 A    
C14   C15   1.418219 A    
C29   C40   1.410295 A    
N12   O32   1.299336 A    
C30   C39   1.406690 A    
N3    C14   1.365982 A    
C16   N12   1.430339 S    
O46   H14   0.991668 S    
C9    C12   1.421374 A    
O13   C7    1.288678 A    
O3    C2    1.292830 A    
C10   C11   1.421172 A    
O14   C8    1.296105 A    
O3    Zn1   1.991886 S    
C5    C40   1.445557 S    
C6    C39   1.451089 S    
C7    C38   1.447657 S    
O38   H6    0.991586 S    
C20   C34   1.408774 A    
N6    O19   1.298009 A    
N5    O18   1.299030 A    
C31   C39   1.407956 A    
O42   H10   0.991540 S    
C32   C40   1.407319 A    
N1    C10   1.370361 A    
C23   C29   1.387395 A    
O11   Zn3   1.991886 S    
C27   O43   1.383746 S    
O7    Zn2   1.996402 S    
O12   Zn4   1.991886 S    
C18   C33   1.404373 A    
C29   O45   1.381113 S    
C24   C36   1.410715 A    
N9    O26   1.298920 A    
C3    C34   1.449632 S    
N1    Zn1   2.017220 S    
O8    C3    1.291614 A    
N8    O23   1.297467 A    
N3    Zn3   2.017220 S    
O39   H7    0.990858 S    
N4    Zn4   2.017220 S    
N10   O28   1.300237 A    
C10   N6    1.429607 S    
O34   H2    0.991670 S    
N7    O22   1.299176 A    
O9    Zn3   1.989471 S    
N12   O31   1.297393 A    
C19   C25   1.397130 A    
C25   O41   1.379377 S    
N1    C12   1.372275 A    
N4    C15   1.380781 A    
C24   O40   1.378335 S    
C13   N9    1.429638 S    
O12   C5    1.294013 A    
O7    C4    1.292697 A    
N2    C11   1.371249 A    
N2    C9    1.369742 A    
N11   O29   1.294392 A    
N3    C16   1.372131 A    
C30   O46   1.379779 S    
O1    Zn1   1.989471 S    
C12   N8    1.429986 S    
O4    C1    1.293842 A    
O15   C8    1.292018 A    
N11   O30   1.301206 A    
N2    Zn2   2.017220 S    
O16   C7    1.296600 A    
C26   O42   1.378859 S    
C32   O48   1.378110 S    
O45   H13   0.991805 S    
C31   O47   1.378712 S    
C20   C26   1.375568 A    
C25   C38   1.416940 A    
O44   H12   0.991685 S    
N10   O27   1.297999 A    
O48   H16   0.991775 S    
O5    C3    1.295916 A    
O6    C4    1.291856 A    
O41   H9    0.990593 S    
O11   C6    1.293060 A    
O1    C1    1.295023 A    
C28   O44   1.378870 S    
O2    Zn2   1.989471 S    
C4    C33   1.444995 S    
C15   N11   1.438331 S    
N7    O21   1.297907 A    
C11   N7    1.429547 S    
C20   O36   1.379213 S    
C21   O37   1.379580 S    
O43   H11   0.990783 S    
O9    C5    1.291841 A    
C14   N10   1.432181 S    
N4    C13   1.370449 A    
C19   O35   1.385141 S    
C19   C33   1.402858 A    
C1    C36   1.451475 S    
C23   C35   1.403863 A    
O10   Zn4   1.989471 S    
C2    C35   1.445513 S    
O6    Zn1   2.004681 S    
C21   C31   1.377449 A    
N6    O20   1.299380 A    
N5    O17   1.298086 A    
O5    Zn2   2.004683 S    
C22   C32   1.373424 A    
O40   H8    0.991710 S    
C26   C37   1.409352 A    
C28   C38   1.410591 A    
O33   H1    0.991653 S    
O47   H15   0.991726 S    
C17   C27   1.389211 A    
O4    Zn2   1.991886 S    
C18   C28   1.371170 A    
