data_mof_unit_63123.cif
_audit_creation_date              2012-12-10T17:24:28-0500
_audit_creation_method            fapswitch 2.2
_symmetry_space_group_name_H-M    P1
_symmetry_Int_Tables_number       1
_space_group_crystal_system       triclinic
_cell_length_a                    21.70796
_cell_length_b                    21.708128
_cell_length_c                    32.27157
_cell_angle_alpha                 89.994419
_cell_angle_beta                  89.924603
_cell_angle_gamma                 90.01158
_cell_volume                      15207.6144498

loop_
_atom_site_label
_atom_site_type_symbol
_atom_type_description
_atom_site_fract_x
_atom_site_fract_y
_atom_site_fract_z
_atom_type_partial_charge
C1    C     C_R   0.313748 0.499966 0.000049 -0.036142
C2    C     C_R   0.500009 0.313755 0.000006 -0.036134
C3    C     C_R   0.686249 0.499956 0.999949 -0.036203
C4    C     C_R   0.499999 0.686249 0.999996 -0.036324
C5    C     C_R   0.813751 0.999966 0.500049 -0.035825
C6    C     C_R   0.000009 0.813747 0.500005 -0.035818
C7    C     C_R   0.186252 0.999956 0.499949 -0.036138
C8    C     C_R   1.000000 0.186251 0.499994 -0.036117
C9    C     C_R   0.217534 0.468504 0.969009 -0.145111
C10   C     C_R   0.531753 0.217502 0.969065 -0.145545
C11   C     C_R   0.782578 0.531575 0.968978 -0.142721
C12   C     C_R   0.468412 0.782513 0.969040 -0.142298
C13   C     C_R   0.217430 0.531498 0.031056 -0.143275
C14   C     C_R   0.531568 0.782515 0.030962 -0.142551
C15   C     C_R   0.782451 0.468376 0.030939 -0.146077
C16   C     C_R   0.468278 0.217480 0.030951 -0.144751
C17   C     C_R   0.717538 0.968404 0.469055 -0.145454
C18   C     C_R   0.031470 0.717491 0.468935 -0.146318
C19   C     C_R   0.282583 0.031445 0.468917 -0.142586
C20   C     C_R   0.968492 0.282516 0.468999 -0.142496
C21   C     C_R   0.717434 0.031598 0.531011 -0.144961
C22   C     C_R   0.031497 0.282519 0.530991 -0.144092
C23   C     C_R   0.282456 0.968505 0.530997 -0.145965
C24   C     C_R   0.968558 0.717469 0.531079 -0.145607
C25   C     C_R   0.281581 0.469292 0.968634 -0.146714
C26   C     C_R   0.530938 0.281551 0.968675 -0.146954
C27   C     C_R   0.718527 0.530751 0.968583 -0.146401
C28   C     C_R   0.469228 0.718464 0.968649 -0.146136
C29   C     C_R   0.281481 0.530665 0.031453 -0.146590
C30   C     C_R   0.530765 0.718466 0.031346 -0.146296
C31   C     C_R   0.718403 0.469173 0.031319 -0.147008
C32   C     C_R   0.469087 0.281529 0.031339 -0.146805
C33   C     C_R   0.781585 0.969193 0.468679 -0.147209
C34   C     C_R   0.030656 0.781539 0.468550 -0.147026
C35   C     C_R   0.218532 0.030622 0.468525 -0.146574
C36   C     C_R   0.969307 0.218466 0.468611 -0.146452
C37   C     C_R   0.781485 0.030764 0.531409 -0.147343
C38   C     C_R   0.030692 0.218470 0.531375 -0.146974
C39   C     C_R   0.218409 0.969302 0.531376 -0.147082
C40   C     C_R   0.969367 0.781518 0.531463 -0.147463
C41   C     C_R   0.118847 0.500006 0.000015 0.784052
C42   C     C_R   0.500005 0.118849 0.000003 0.783423
C43   C     C_R   0.881152 0.499995 0.999981 0.783690
C44   C     C_R   0.499995 0.881152 0.000001 0.785675
C45   C     C_R   0.618848 0.000006 0.500015 0.783176
C46   C     C_R   0.000005 0.618847 0.500003 0.781578
C47   C     C_R   0.381153 0.999995 0.499980 0.783337
C48   C     C_R   0.999995 0.381152 0.499997 0.784933
C49   C     C_R   0.999864 0.499920 0.079320 0.806580
C50   C     C_R   0.499889 0.000145 0.079320 0.807304
C51   C     C_R   0.000079 0.499954 0.920681 0.807299
C52   C     C_R   0.500071 0.000099 0.920683 0.808048
C53   C     C_R   0.499916 0.999959 0.579318 0.805225
C54   C     C_R   0.999921 0.500101 0.579320 0.806310
C55   C     C_R   0.500134 0.999921 0.420679 0.806859
C56   C     C_R   0.000084 0.500175 0.420679 0.806197
C57   C     C_R   0.038432 0.456923 0.272125 0.270263
C58   C     C_R   0.540429 0.039940 0.272117 0.276935
C59   C     C_R   0.957803 0.538063 0.272230 0.278462
C60   C     C_R   0.459774 0.958761 0.272207 0.269064
C61   C     C_R   0.041145 0.539436 0.727802 0.276531
C62   C     C_R   0.540158 0.958869 0.727806 0.277069
C63   C     C_R   0.958190 0.460543 0.727864 0.271290
C64   C     C_R   0.460698 0.041317 0.727862 0.275596
C65   C     C_R   0.539857 0.958603 0.772160 0.265537
C66   C     C_R   0.041342 0.539221 0.772137 0.276315
C67   C     C_R   0.460930 0.041563 0.772192 0.278669
C68   C     C_R   0.957861 0.460885 0.772215 0.271591
C69   C     C_R   0.538811 0.041514 0.227812 0.277041
C70   C     C_R   0.038760 0.457319 0.227764 0.269728
C71   C     C_R   0.460158 0.958393 0.227856 0.269081
C72   C     C_R   0.957706 0.538054 0.227907 0.278085
C73   C     C_R   0.998739 0.498086 0.293745 -0.252005
C74   C     C_R   0.500355 0.999115 0.293742 -0.249597
C75   C     C_R   0.999582 0.500084 0.706260 -0.253003
C76   C     C_R   0.500289 0.999949 0.706261 -0.254407
C77   C     C_R   0.500473 0.000169 0.793747 -0.252320
C78   C     C_R   0.999755 0.499888 0.793748 -0.252803
C79   C     C_R   0.499189 0.000254 0.206255 -0.249493
C80   C     C_R   0.998460 0.497972 0.206259 -0.252801
C81   C     C_R   0.185522 0.500012 0.000025 -0.012485
C82   C     C_R   0.500015 0.185528 0.000008 -0.013228
C83   C     C_R   0.814476 0.499983 0.999963 -0.012909
C84   C     C_R   0.499987 0.814475 0.000003 -0.013131
C85   C     C_R   0.685524 0.000012 0.500026 -0.012659
C86   C     C_R   0.000015 0.685520 0.500008 -0.011564
C87   C     C_R   0.314479 0.999983 0.499962 -0.012344
C88   C     C_R   0.999989 0.314478 0.499998 -0.012722
C89   C     C_R   0.500001 0.619221 0.999998 0.784172
C90   C     C_R   0.380778 0.499989 0.000020 0.784016
C91   C     C_R   0.500001 0.380780 0.000002 0.783853
C92   C     C_R   0.619221 0.499989 0.999979 0.783939
C93   C     C_R   0.000001 0.119222 0.499998 0.784376
C94   C     C_R   0.880779 0.999989 0.500020 0.784092
C95   C     C_R   0.000000 0.880778 0.500002 0.784118
C96   C     C_R   0.119222 0.999990 0.499979 0.784396
C97   C     C_1   0.999982 0.499338 0.338608 0.251738
C98   C     C_1   0.500545 0.999026 0.338614 0.247829
C99   C     C_1   0.999434 0.500272 0.661390 0.250634
C100  C     C_1   0.499983 0.999685 0.661387 0.255671
C101  C     C_1   0.500544 0.000291 0.838619 0.247606
C102  C     C_1   0.000047 0.499607 0.838615 0.250639
C103  C     C_1   0.499004 0.000518 0.161385 0.247992
C104  C     C_1   0.998919 0.498634 0.161387 0.251254
C105  C     C_1   0.999371 0.499419 0.123791 -0.017576
C106  C     C_1   0.499396 0.000419 0.123793 -0.025080
C107  C     C_1   0.000129 0.499716 0.876209 -0.018455
C108  C     C_1   0.500344 0.000259 0.876217 -0.021598
C109  C     C_1   0.499878 0.999763 0.623787 -0.012221
C110  C     C_1   0.999616 0.500257 0.623795 -0.018173
C111  C     C_1   0.500412 0.999469 0.376205 -0.024927
C112  C     C_1   0.000327 0.499978 0.376204 -0.018847
Cu1   Cu    Cu3+1 0.000000 0.561730 0.000000 1.028838
Cu2   Cu    Cu3+1 0.438270 0.000000 0.000000 1.024010
Cu3   Cu    Cu3+1 0.000000 0.438270 0.000000 1.020847
Cu4   Cu    Cu3+1 0.561730 0.000000 0.000000 1.024671
Cu5   Cu    Cu3+1 0.500000 0.061730 0.500000 1.028763
Cu6   Cu    Cu3+1 0.938270 0.500000 0.500000 1.026305
Cu7   Cu    Cu3+1 0.500000 0.938270 0.500000 1.021814
Cu8   Cu    Cu3+1 0.061730 0.500000 0.500000 1.024320
Cu9   Cu    Cu3+1 0.500000 0.500000 0.958920 1.017311
Cu10  Cu    Cu3+1 0.500000 0.500000 0.041080 1.016893
Cu11  Cu    Cu3+1 0.000000 0.000000 0.458920 1.016364
Cu12  Cu    Cu3+1 1.000000 0.000000 0.541080 1.014904
O1    O     O_R   0.090200 0.552120 0.999920 -0.576924
O2    O     O_R   0.447880 0.090200 0.999920 -0.576581
O3    O     O_R   0.909800 0.447880 0.999920 -0.576903
O4    O     O_R   0.552120 0.909800 0.999920 -0.576133
O5    O     O_R   0.090200 0.447880 0.000080 -0.576410
O6    O     O_R   0.447880 0.909800 0.000080 -0.577252
O7    O     O_R   0.909800 0.552120 0.000080 -0.577012
O8    O     O_R   0.552120 0.090200 0.000080 -0.577231
O9    O     O_R   0.590200 0.052120 0.499920 -0.576926
O10   O     O_R   0.947880 0.590200 0.499920 -0.577102
O11   O     O_R   0.409800 0.947880 0.499920 -0.576666
O12   O     O_R   0.052120 0.409800 0.499920 -0.576897
O13   O     O_R   0.590200 0.947880 0.500080 -0.576775
O14   O     O_R   0.947880 0.409800 0.500080 -0.576481
O15   O     O_R   0.409800 0.052120 0.500080 -0.576838
O16   O     O_R   0.052120 0.590200 0.500080 -0.576462
O17   O     O_R   1.000000 0.552120 0.059780 -0.565320
O18   O     O_R   0.447880 0.000000 0.059780 -0.579238
O19   O     O_R   1.000000 0.447880 0.059780 -0.576430
O20   O     O_R   0.552120 0.000000 0.059780 -0.564968
O21   O     O_R   1.000000 0.447880 0.940220 -0.576127
O22   O     O_R   0.447880 0.000000 0.940220 -0.565932
O23   O     O_R   1.000000 0.552120 0.940220 -0.566695
O24   O     O_R   0.552120 0.000000 0.940220 -0.577475
O25   O     O_R   0.500000 0.052120 0.559780 -0.567216
O26   O     O_R   0.947880 0.500000 0.559780 -0.575634
O27   O     O_R   0.500000 0.947880 0.559780 -0.572241
O28   O     O_R   0.052120 0.500000 0.559780 -0.565811
O29   O     O_R   0.500000 0.947880 0.440220 -0.578874
O30   O     O_R   0.947880 0.500000 0.440220 -0.562772
O31   O     O_R   0.500000 0.052120 0.440220 -0.564808
O32   O     O_R   0.052120 0.500000 0.440220 -0.578387
O33   O     O_R   0.500000 0.590200 0.965310 -0.579259
O34   O     O_R   0.409800 0.500000 0.965310 -0.579669
O35   O     O_R   0.500000 0.409800 0.965310 -0.579475
O36   O     O_R   0.590200 0.500000 0.965310 -0.579197
O37   O     O_R   0.500000 0.409800 0.034690 -0.579505
O38   O     O_R   0.409800 0.500000 0.034690 -0.579360
O39   O     O_R   0.500000 0.590200 0.034690 -0.579438
O40   O     O_R   0.590200 0.500000 0.034690 -0.579731
O41   O     O_R   1.000000 0.090200 0.465310 -0.579312
O42   O     O_R   0.909800 0.000000 0.465310 -0.579647
O43   O     O_R   0.000000 0.909800 0.465310 -0.579736
O44   O     O_R   0.090200 0.000000 0.465310 -0.579250
O45   O     O_R   1.000000 0.909800 0.534690 -0.579836
O46   O     O_R   0.909800 0.000000 0.534690 -0.579738
O47   O     O_R   1.000000 0.090200 0.534690 -0.579778
O48   O     O_R   0.090200 0.000000 0.534690 -0.579994
S1    S     S_3+6 0.089308 0.406383 0.198983 0.089301
O49   O     O_2   0.155024 0.416340 0.212358 -0.163703
O50   O     O_2   0.071392 0.340565 0.207897 -0.224703
O51   O     O_3   0.088175 0.415653 0.147118 -0.558621
H1    H     H_    0.081682 0.373430 0.135501 0.374979
S2    S     S_3+6 0.584608 0.097182 0.199166 0.086259
O52   O     O_2   0.559711 0.160789 0.207630 -0.194869
O53   O     O_2   0.650736 0.094090 0.213171 -0.201739
O54   O     O_3   0.584729 0.087587 0.147428 -0.564760
H2    H     H_    0.626564 0.099601 0.138082 0.381730
S3    S     S_3+6 0.905764 0.587639 0.199323 0.084991
O55   O     O_2   0.840489 0.566615 0.206451 -0.191867
O56   O     O_2   0.912507 0.652920 0.214427 -0.205136
O57   O     O_3   0.917072 0.588610 0.147686 -0.563560
H3    H     H_    0.905023 0.631051 0.138630 0.381078
S4    S     S_3+6 0.410202 0.906807 0.199170 0.090560
O58   O     O_2   0.417514 0.841572 0.214909 -0.156635
O59   O     O_2   0.344058 0.927038 0.205591 -0.231222
O60   O     O_3   0.423402 0.904257 0.147547 -0.556626
H4    H     H_    0.382438 0.912850 0.134467 0.371855
S5    S     S_3+6 0.094328 0.587791 0.800818 0.086086
O61   O     O_2   0.159246 0.566914 0.792643 -0.186562
O62   O     O_2   0.087309 0.653455 0.786732 -0.208494
O63   O     O_3   0.084523 0.587414 0.852545 -0.565895
H5    H     H_    0.092869 0.630067 0.861755 0.382208
S6    S     S_3+6 0.589030 0.906254 0.800854 0.090375
O64   O     O_2   0.574811 0.840920 0.788774 -0.163988
O65   O     O_2   0.655300 0.919770 0.790579 -0.221355
O66   O     O_3   0.581872 0.909646 0.852711 -0.557724
H6    H     H_    0.623812 0.919033 0.863519 0.373092
S7    S     S_3+6 0.905229 0.411993 0.800983 0.088729
O67   O     O_2   0.840073 0.425474 0.788276 -0.165701
O68   O     O_2   0.919521 0.345697 0.791465 -0.223183
O69   O     O_3   0.907635 0.420176 0.852770 -0.562826
H7    H     H_    0.910780 0.377933 0.864173 0.376800
S8    S     S_3+6 0.412136 0.094317 0.800901 0.086074
O70   O     O_2   0.432419 0.159401 0.792546 -0.187145
O71   O     O_2   0.346421 0.086763 0.787082 -0.208240
O72   O     O_3   0.413045 0.084891 0.852603 -0.564775
H8    H     H_    0.370662 0.094598 0.862198 0.381548
S9    S     S_3+6 0.590289 0.907400 0.699066 0.086756
O73   O     O_2   0.656196 0.918732 0.711101 -0.174255
O74   O     O_2   0.573612 0.841850 0.709274 -0.218531
O75   O     O_3   0.587066 0.914578 0.647240 -0.564929
H9    H     H_    0.591007 0.872072 0.636095 0.380153
S10   S     S_3+6 0.092351 0.589885 0.699034 0.086067
O76   O     O_2   0.074598 0.655752 0.707075 -0.187547
O77   O     O_2   0.157576 0.579761 0.713132 -0.207773
O78   O     O_3   0.091657 0.579920 0.647335 -0.564871
H10   H     H_    0.134540 0.586980 0.638068 0.382682
S11   S     S_3+6 0.410035 0.092224 0.699202 0.085513
O79   O     O_2   0.344201 0.074456 0.707476 -0.187953
O80   O     O_2   0.420064 0.157556 0.713130 -0.207228
O81   O     O_3   0.419673 0.091109 0.647509 -0.565034
H11   H     H_    0.411104 0.133822 0.637961 0.381837
S12   S     S_3+6 0.906355 0.410809 0.699191 0.088813
O82   O     O_2   0.916203 0.344983 0.711902 -0.166720
O83   O     O_2   0.840980 0.428772 0.708818 -0.222172
O84   O     O_3   0.914518 0.412868 0.647386 -0.561711
H12   H     H_    0.872437 0.417970 0.636065 0.377524
S13   S     S_3+6 0.594820 0.087243 0.300679 0.086414
O85   O     O_2   0.659067 0.063994 0.292240 -0.195519
O86   O     O_2   0.590052 0.153255 0.286585 -0.201037
O87   O     O_3   0.585120 0.087199 0.352417 -0.564204
H13   H     H_    0.596184 0.129297 0.361708 0.382067
S14   S     S_3+6 0.088287 0.405268 0.300800 0.089399
O88   O     O_2   0.077245 0.339803 0.287238 -0.162776
O89   O     O_2   0.154462 0.422051 0.292040 -0.225380
O90   O     O_3   0.078603 0.406196 0.352642 -0.559570
H14   H     H_    0.120832 0.411597 0.364413 0.374317
S15   S     S_3+6 0.409788 0.907196 0.300968 0.090531
O91   O     O_2   0.344353 0.912527 0.285295 -0.156719
O92   O     O_2   0.432046 0.841720 0.294540 -0.231448
O93   O     O_3   0.406880 0.920216 0.352592 -0.555815
H15   H     H_    0.416554 0.879463 0.365660 0.372244
S16   S     S_3+6 0.907329 0.588985 0.301014 0.084952
O94   O     O_2   0.927479 0.654623 0.294258 -0.194184
O95   O     O_2   0.842190 0.581523 0.285851 -0.203750
O96   O     O_3   0.906216 0.576878 0.352566 -0.561564
H16   H     H_    0.863651 0.588864 0.361664 0.381230
H17   H     H_    0.192931 0.444288 0.944863 0.151893
H18   H     H_    0.556166 0.192868 0.944986 0.151927
H19   H     H_    0.807271 0.555893 0.944874 0.153421
H20   H     H_    0.444123 0.807155 0.944947 0.153189
H21   H     H_    0.192745 0.555734 0.055192 0.152792
H22   H     H_    0.555859 0.807157 0.055056 0.153471
H23   H     H_    0.807044 0.444081 0.055052 0.151698
H24   H     H_    0.443863 0.192829 0.055030 0.152772
H25   H     H_    0.692936 0.944110 0.444944 0.152064
H26   H     H_    0.055662 0.692854 0.444756 0.151103
H27   H     H_    0.307277 0.055661 0.444768 0.153197
H28   H     H_    0.944265 0.307158 0.444878 0.153573
H29   H     H_    0.692750 0.055911 0.555112 0.152337
H30   H     H_    0.055730 0.307162 0.555110 0.152323
H31   H     H_    0.307051 0.944311 0.555156 0.151511
H32   H     H_    0.944364 0.692815 0.555257 0.151217
H33   H     H_    0.305985 0.445251 0.944292 0.161867
H34   H     H_    0.555162 0.305932 0.944397 0.161951
H35   H     H_    0.694202 0.554878 0.944282 0.162357
H36   H     H_    0.445126 0.694094 0.944357 0.161971
H37   H     H_    0.305813 0.554706 0.055790 0.162124
H38   H     H_    0.554874 0.694098 0.055635 0.161895
H39   H     H_    0.693988 0.445059 0.055631 0.161754
H40   H     H_    0.444858 0.305894 0.055616 0.162200
H41   H     H_    0.805991 0.945075 0.444371 0.161676
H42   H     H_    0.054660 0.805915 0.444171 0.161949
H43   H     H_    0.194210 0.054648 0.444178 0.162166
H44   H     H_    0.945265 0.194097 0.444292 0.161977
H45   H     H_    0.805819 0.054882 0.555711 0.161745
H46   H     H_    0.054742 0.194104 0.555692 0.161541
H47   H     H_    0.193996 0.945289 0.555734 0.161642
H48   H     H_    0.945358 0.805876 0.555840 0.161580

loop_
_geom_bond_atom_site_label_1
_geom_bond_atom_site_label_2
_ccdc_geom_bond_type
C27   H35   S    
S7    O67   D    
C1    C90   S    
C28   H36   S    
C5    C37   A    
C78   C102  S    
C43   C83   S    
O66   H6    S    
C77   C101  S    
S11   O79   D    
C67   C77   A    
C14   C84   A    
C71   S4    S    
C56   O32   A    
C58   S13   S    
Cu5   O9    S    
C94   O42   A    
C71   C79   A    
C5    C94   S    
S11   O81   S    
C9    C25   A    
O96   H16   S    
C54   O26   A    
C33   H41   S    
S9    O73   D    
C61   C75   A    
C55   O31   A    
C7    C96   S    
S7    O68   D    
S14   O90   S    
C54   C110  S    
C18   C86   A    
Cu10  O37   S    
C17   C33   A    
C80   C104  S    
S4    O60   S    
C17   C85   A    
Cu2   O18   S    
C13   C29   A    
C18   H26   S    
C19   C87   A    
S3    O56   D    
Cu2   O2    S    
S2    O53   D    
S9    O75   S    
Cu1   O1    S    
C51   O21   A    
C44   O6    A    
S15   O91   D    
C22   C38   A    
C13   C81   A    
Cu8   O32   S    
Cu3   O3    S    
O87   H13   S    
C12   C84   A    
C2    C32   A    
O90   H14   S    
C8    C36   A    
C57   C73   A    
Cu6   O26   S    
C13   H21   S    
C36   H44   S    
C74   C98   S    
C53   O27   A    
Cu4   O20   S    
Cu11  O42   S    
C96   O48   A    
C61   C66   A    
C93   O47   A    
Cu12  O45   S    
S4    O59   D    
C39   H47   S    
S8    O70   D    
S15   O92   D    
Cu9   O36   S    
C5    C33   A    
Cu5   O31   S    
Cu10  O40   S    
C11   H19   S    
C48   C88   S    
C59   S16   S    
Cu8   O16   S    
C22   C88   A    
C57   C70   A    
Cu1   O7    S    
S13   O85   D    
C59   C73   A    
C91   O35   A    
C57   S14   S    
Cu6   O10   S    
S16   O96   S    
C21   H29   S    
C59   C72   A    
Cu11  O43   S    
Cu5   O25   S    
S5    O63   S    
C101  C108  T    
S9    O74   D    
C34   H42   S    
C93   O41   A    
C100  C109  T    
Cu7   O29   S    
C16   H24   S    
C23   C87   A    
C24   H32   S    
C68   S7    S    
C53   O25   A    
Cu2   O6    S    
Cu12  O46   S    
C79   C103  S    
C70   S1    S    
Cu5   O15   S    
C8    C38   A    
C14   C30   A    
C51   C107  S    
C1    C29   A    
C104  C105  T    
C4    C28   A    
C50   O20   A    
S2    O52   D    
C21   C85   A    
C3    C27   A    
C96   O44   A    
C68   C78   A    
C66   C78   A    
S7    O69   S    
S14   O89   D    
Cu8   O28   S    
C4    C30   A    
C65   C77   A    
S16   O95   D    
C42   C82   S    
C70   C80   A    
O60   H4    S    
Cu7   O13   S    
C64   C67   A    
C41   O1    A    
Cu11  Cu12  S    
C61   S10   S    
Cu2   O22   S    
C56   O30   A    
C14   H22   S    
S3    O57   S    
C43   O3    A    
Cu4   O24   S    
C97   C112  T    
C38   H46   S    
O69   H7    S    
C42   O8    A    
C20   C36   A    
C15   C83   A    
C60   C71   A    
C11   C83   A    
O54   H2    S    
C99   C110  T    
C19   H27   S    
C10   C82   A    
Cu7   O11   S    
Cu10  O39   S    
C6    C34   A    
C64   S11   S    
C49   O17   A    
C3    C92   S    
C23   H31   S    
C47   C87   S    
C90   O34   A    
S14   O88   D    
C73   C97   S    
S3    O55   D    
C95   O45   A    
O78   H10   S    
C32   H40   S    
C69   S2    S    
C46   O10   A    
C30   H38   S    
S13   O86   D    
C22   H30   S    
S10   O77   D    
O72   H8    S    
Cu4   O8    S    
C11   C27   A    
S15   O93   S    
C41   C81   S    
S6    O66   S    
C75   C99   S    
C64   C76   A    
C47   O11   A    
C102  C107  T    
C2    C26   A    
S2    O54   S    
O75   H9    S    
C3    C31   A    
C18   C34   A    
C89   O33   A    
C51   O23   A    
S6    O64   D    
S1    O50   D    
C35   H43   S    
C43   O7    A    
C20   C88   A    
Cu11  O44   S    
S8    O71   D    
O51   H1    S    
C12   C28   A    
C19   C35   A    
S5    O61   D    
Cu9   O34   S    
Cu4   O4    S    
S12   O83   D    
C62   S9    S    
C6    C40   A    
C44   O4    A    
C69   C79   A    
C16   C32   A    
C31   H39   S    
C37   H45   S    
C66   S5    S    
C15   H23   S    
S16   O94   D    
C58   C74   A    
S10   O78   S    
C46   O16   A    
C4    C89   S    
Cu3   O5    S    
S1    O51   S    
C53   C109  S    
C55   O29   A    
Cu2   Cu4   S    
Cu3   O21   S    
O93   H15   S    
C40   H48   S    
C60   S15   S    
C52   O22   A    
C98   C111  T    
C62   C76   A    
C62   C65   A    
C55   C111  S    
C10   H18   S    
C7    C35   A    
C48   O12   A    
C49   C105  S    
C8    C93   S    
O81   H11   S    
C72   S3    S    
C16   C82   A    
O63   H5    S    
C44   C84   S    
C25   H33   S    
C95   O43   A    
C29   H37   S    
C54   O28   A    
S11   O80   D    
C58   C69   A    
C15   C31   A    
C63   S12   S    
C76   C100  S    
C63   C68   A    
C90   O38   A    
C45   O9    A    
C12   H20   S    
Cu10  O38   S    
C48   O14   A    
C45   C85   S    
C92   O36   A    
Cu1   O23   S    
Cu5   Cu7   S    
C92   O40   A    
C72   C80   A    
C45   O13   A    
C20   H28   S    
C41   O5    A    
Cu1   Cu3   S    
C10   C26   A    
S10   O76   D    
C26   H34   S    
C63   C75   A    
C91   O37   A    
S8    O72   S    
C23   C39   A    
C49   O19   A    
C60   C74   A    
C24   C40   A    
Cu1   O17   S    
Cu6   O30   S    
C103  C106  T    
C9    H17   S    
Cu12  O48   S    
Cu3   O19   S    
C17   H25   S    
C2    C91   S    
S13   O87   S    
Cu6   Cu8   S    
Cu9   O33   S    
Cu7   O27   S    
C42   O2    A    
Cu9   Cu10  S    
S12   O82   D    
C65   S6    S    
Cu11  O41   S    
C21   C37   A    
C52   C108  S    
C52   O24   A    
C6    C95   S    
Cu9   O35   S    
C47   O15   A    
O84   H12   S    
C50   C106  S    
C89   O39   A    
C7    C39   A    
S4    O58   D    
S6    O65   D    
S5    O62   D    
Cu8   O12   S    
O57   H3    S    
Cu6   O14   S    
S1    O49   D    
C24   C86   A    
C56   C112  S    
S12   O84   S    
C94   O46   A    
C67   S8    S    
C50   O18   A    
C46   C86   S    
C9    C81   A    
Cu12  O47   S    
C1    C25   A    
