data_mof_unit_13222.cif
_audit_creation_date              2012-12-10T17:11:06-0500
_audit_creation_method            fapswitch 2.2
_symmetry_space_group_name_H-M    P1
_symmetry_Int_Tables_number       1
_space_group_crystal_system       triclinic
_cell_length_a                    10.025942
_cell_length_b                    10.708708
_cell_length_c                    16.760432
_cell_angle_alpha                 89.814658
_cell_angle_beta                  85.2728
_cell_angle_gamma                 87.982515
_cell_volume                      1792.24894772

loop_
_atom_site_label
_atom_site_type_symbol
_atom_type_description
_atom_site_fract_x
_atom_site_fract_y
_atom_site_fract_z
_atom_type_partial_charge
C1    C     C_R   0.496585 0.737970 0.504545 0.804192
C2    C     C_R   0.356083 0.486578 0.786365 -0.162109
C3    C     C_R   0.437655 0.574922 0.136513 0.327098
C4    C     C_R   0.428538 0.575357 0.219987 0.469550
C5    C     C_R   0.645117 0.463192 0.217262 -0.240011
C6    C     C_R   0.654649 0.464662 0.134411 -0.234804
C7    C     C_R   0.550108 0.517728 0.094320 -0.071834
C8    C     C_2   0.477427 0.403667 0.983650 0.398017
C9    C     C_2   0.550699 0.497800 0.007914 0.459405
C10   C     C_R   0.530410 0.514150 0.260304 -0.212272
C11   C     C_2   0.595872 0.063638 0.540281 0.468044
C12   C     C_R   0.481883 0.493488 0.652827 0.873646
C13   C     C_2   0.512075 0.130745 0.497209 -0.346240
C14   C     C_2   0.599597 0.929568 0.531183 -0.289760
C15   C     C_2   0.486187 0.869583 0.523801 0.301125
C16   C     C_2   0.079764 0.403005 0.483521 -0.181069
C17   C     C_2   0.934174 0.414801 0.464963 0.638867
C18   C     C_R   0.502673 0.262657 0.500827 0.937149
C19   C     C_R   0.518391 0.503360 0.346951 0.890062
C20   C     C_R   0.472960 0.459627 0.736882 -0.052035
C21   C     C_R   0.580654 0.392429 0.766908 -0.079812
C22   C     C_R   0.575274 0.359899 0.846999 -0.132334
C23   C     C_R   0.463201 0.396206 0.897614 0.053464
C24   C     C_R   0.351722 0.455714 0.867125 -0.119072
H1    H     H_    0.670107 0.367165 0.728870 0.201656
H2    H     H_    0.740603 0.419686 0.101430 0.170803
H3    H     H_    0.450994 0.087769 0.455274 0.120053
H4    H     H_    0.697627 0.882373 0.524980 0.184740
H5    H     H_    0.130344 0.311871 0.479552 0.167652
H6    H     H_    0.103950 0.584937 0.489027 0.200967
H7    H     H_    0.724870 0.417724 0.247653 0.195870
H8    H     H_    0.265844 0.485735 0.906775 0.177459
H9    H     H_    0.271225 0.536115 0.763456 0.177224
H10   H     H_    0.662190 0.315329 0.870876 0.141012
N1    N     N_2   0.147950 0.498670 0.499150 -0.177031
N2    N     N_2   0.852290 0.498640 0.499130 0.001202
O1    O     O_R   0.386960 0.680940 0.500010 -0.608914
O2    O     O_R   0.613100 0.680900 0.499990 -0.610443
O3    O     O_R   0.373570 0.500040 0.615810 -0.598291
O4    O     O_R   0.599710 0.500000 0.615790 -0.555863
O5    O     O_R   0.386900 0.319100 0.500010 -0.628159
O6    O     O_R   0.613040 0.319060 0.499990 -0.534106
O7    O     O_R   0.400290 0.500000 0.384210 -0.572666
O8    O     O_R   0.626430 0.499960 0.384190 -0.606842
Zn1   Zn    Zn3+2 0.349000 0.500030 0.500020 0.997373
Zn2   Zn    Zn3+2 0.651000 0.499970 0.499980 1.089880
Cl1   Cl    Cl    0.703483 0.128608 0.606237 -0.580148
O9    O     O_3   0.363116 0.927166 0.550157 -0.577171
C25   C     C_3   0.267968 0.918501 0.492783 -0.225878
H11   H     H_    0.201343 0.839665 0.507641 0.208877
H12   H     H_    0.313849 0.909957 0.430141 0.091539
H13   H     H_    0.203887 0.005242 0.495760 0.185930
O10   O     O_3   0.880119 0.329304 0.415416 -0.586583
C26   C     C_3   0.971001 0.296029 0.349535 -0.355891
H14   H     H_    0.046959 0.225572 0.367327 0.167776
H15   H     H_    0.019930 0.378932 0.321322 0.177432
H16   H     H_    0.914604 0.252129 0.303440 0.198948
Cl2   Cl    Cl    0.892863 0.571876 0.586024 -0.545153
O11   O     O_3   0.315995 0.628599 0.261623 -0.558919
C27   C     C_3   0.342364 0.753504 0.279355 -0.256015
H17   H     H_    0.366841 0.808561 0.223938 0.173971
H18   H     H_    0.424493 0.758644 0.319903 0.115394
H19   H     H_    0.250802 0.797304 0.310650 0.183372
O12   O     O_3   0.620459 0.572151 0.950707 -0.619635
C28   C     C_3   0.676097 0.677131 0.984170 -0.231869
H20   H     H_    0.756069 0.648281 0.023238 0.166523
H21   H     H_    0.597525 0.737249 0.017245 0.175451
H22   H     H_    0.722992 0.734061 0.934801 0.206015
Cl3   Cl    Cl    0.305368 0.642155 0.085571 -0.604229
O13   O     O_3   0.404530 0.331557 0.040443 -0.613565
C29   C     C_3   0.364098 0.219265 0.007544 -0.262193
H23   H     H_    0.450424 0.166133 0.976294 0.157020
H24   H     H_    0.283796 0.237800 0.966674 0.177482
H25   H     H_    0.322054 0.159720 0.057039 0.198676

loop_
_geom_bond_atom_site_label_1
_geom_bond_atom_site_label_2
_ccdc_geom_bond_type
C12   O4    A    
C29   H25   S    
C23   C24   A    
C24   H8    S    
N2    Zn2   S    
C6    C7    A    
C1    C15   S    
C17   N2    D    
C9    O12   S    
C11   C13   D    
H6    N1    S    
C8    O13   S    
C8    C23   S    
C1    O1    A    
C10   C19   S    
O3    Zn1   S    
C25   H13   S    
O12   C28   S    
C12   C20   S    
C12   O3    A    
O11   C27   S    
C21   C22   A    
C19   O8    A    
O4    Zn2   S    
O7    Zn1   S    
C6    H2    S    
C5    H7    S    
C1    O2    A    
C27   H19   S    
C15   O9    S    
C4    O11   S    
C27   H18   S    
O9    C25   S    
C3    Cl3   S    
O10   C26   S    
O8    Zn2   S    
C28   H20   S    
C3    C7    A    
N2    Cl2   S    
C18   O6    A    
C16   N1    D    
C2    C24   A    
C5    C6    A    
C22   H10   S    
C11   C14   S    
C26   H15   S    
O2    Zn2   S    
C16   C17   S    
C28   H22   S    
O1    Zn1   S    
C3    C4    A    
N1    Zn1   S    
C17   O10   S    
C29   H23   S    
O13   C29   S    
C20   C21   A    
C2    H9    S    
C13   C18   S    
C25   H11   S    
O6    Zn2   S    
C18   O5    A    
C29   H24   S    
C5    C10   A    
C7    C9    S    
C2    C20   A    
O5    Zn1   S    
C26   H14   S    
C8    C9    D    
C21   H1    S    
C14   H4    S    
C16   H5    S    
C14   C15   D    
C11   Cl1   S    
C22   C23   A    
C13   H3    S    
C25   H12   S    
C4    C10   A    
C19   O7    A    
C27   H17   S    
C28   H21   S    
C26   H16   S    
