data_mof_unit_26761.cif
_audit_creation_date              2012-12-11T14:38:22-0500
_audit_creation_method            fapswitch 2.2
_symmetry_space_group_name_H-M    P1
_symmetry_Int_Tables_number       1
_space_group_crystal_system       triclinic
_cell_length_a                    19.495491
_cell_length_b                    11.222465
_cell_length_c                    19.653946
_cell_angle_alpha                 90.184881
_cell_angle_beta                  95.874663
_cell_angle_gamma                 89.819965
_cell_volume                      4277.41463495

loop_
_atom_site_label
_atom_site_type_symbol
_atom_type_description
_atom_site_fract_x
_atom_site_fract_y
_atom_site_fract_z
_atom_type_partial_charge
C1    C     C_R   0.725038 0.954260 0.360047 0.534334
C2    C     C_3   0.177534 0.466777 0.468401 -0.254687
C3    C     C_3   0.609804 0.582637 0.042408 -0.377069
C4    C     C_3   0.945124 0.017352 0.926621 0.048166
C5    C     C_3   0.887806 0.085352 0.957334 -0.373826
C6    C     C_3   0.054592 0.013984 0.075030 0.052884
C7    C     C_3   0.109792 0.082635 0.042389 -0.377061
C8    C     C_3   0.571496 0.398437 0.873195 -0.057128
C9    C     C_3   0.428075 0.395873 0.126932 -0.056436
C10   C     C_3   0.071488 0.898457 0.873198 -0.057129
C11   C     C_3   0.928072 0.895871 0.126935 -0.056430
C12   C     C_3   0.331232 0.090662 0.078062 -0.016272
C13   C     C_3   0.322719 0.965666 0.532108 -0.255179
C14   C     C_3   0.299468 0.097283 0.145742 -0.372096
C15   C     C_3   0.619647 0.091348 0.853467 0.014773
C16   C     C_3   0.684293 0.140498 0.826365 -0.385201
C17   C     C_3   0.831239 0.590638 0.078073 -0.016340
C18   C     C_3   0.799502 0.597182 0.145767 -0.372225
C19   C     C_3   0.119625 0.591384 0.853450 0.014773
C20   C     C_3   0.184298 0.640473 0.826371 -0.385174
C21   C     C_3   0.580319 0.896922 0.958843 0.004092
C22   C     C_3   0.574605 0.791899 0.909246 -0.378844
C23   C     C_3   0.461869 0.921182 0.110691 0.014246
C24   C     C_3   0.677534 0.966780 0.468402 -0.254688
C25   C     C_3   0.427473 0.799850 0.101528 -0.402099
C26   C     C_3   0.080333 0.396935 0.958835 0.004104
C27   C     C_3   0.074604 0.291904 0.909244 -0.378842
C28   C     C_3   0.961880 0.421178 0.110691 0.014263
C29   C     C_3   0.927482 0.299849 0.101532 -0.402093
C30   C     C_3   0.684118 0.231197 0.645416 -0.152587
C31   C     C_3   0.313719 0.227590 0.352482 -0.149309
C32   C     C_3   0.184128 0.731108 0.645410 -0.152572
C33   C     C_3   0.813717 0.727592 0.352481 -0.149305
C34   C     C_3   0.749942 0.287972 0.556790 0.137316
C35   C     C_3   0.249562 0.288119 0.442043 0.138106
C36   C     C_3   0.249937 0.787971 0.556792 0.137323
C37   C     C_3   0.749561 0.788121 0.442042 0.138107
C38   C     C_3   0.758724 0.422312 0.568262 0.080820
C39   C     C_3   0.241231 0.422669 0.431676 0.081370
C40   C     C_3   0.258723 0.922311 0.568263 0.080823
C41   C     C_R   0.274786 0.953566 0.640079 0.531230
C42   C     C_3   0.741230 0.922671 0.431677 0.081368
C43   C     C_3   0.742715 0.386711 0.436911 0.018284
C44   C     C_3   0.257558 0.385193 0.562764 0.017072
C45   C     C_3   0.242713 0.886708 0.436912 0.018286
C46   C     C_3   0.757557 0.885192 0.562764 0.017071
C47   C     C_3   0.806195 0.464630 0.454724 -0.286342
C48   C     C_3   0.194339 0.464556 0.545770 -0.283637
C49   C     C_3   0.306194 0.964627 0.454724 -0.286341
C50   C     C_3   0.694338 0.964554 0.545772 -0.283624
C51   C     C_3   0.753860 0.269834 0.479258 -0.158481
C52   C     C_R   0.225039 0.454258 0.360046 0.534332
C53   C     C_3   0.245997 0.269021 0.519515 -0.161914
C54   C     C_3   0.253858 0.769832 0.479260 -0.158491
C55   C     C_3   0.745996 0.769021 0.519515 -0.161919
C56   C     C_3   0.498787 0.323227 0.959813 0.523052
C57   C     C_3   0.502319 0.320958 0.039930 0.524022
C58   C     C_3   0.998779 0.823229 0.959813 0.523050
C59   C     C_3   0.002312 0.820959 0.039930 0.524030
C60   C     C_3   0.424671 0.137008 0.969630 -0.200393
C61   C     C_3   0.572902 0.125483 0.029694 -0.211321
C62   C     C_3   0.924669 0.637003 0.969631 -0.200388
C63   C     C_R   0.774786 0.453565 0.640079 0.531238
C64   C     C_3   0.072902 0.625493 0.029692 -0.211319
C65   C     C_3   0.553198 0.106242 0.951428 0.457637
C66   C     C_3   0.446111 0.106546 0.045637 0.455686
C67   C     C_3   0.053196 0.606248 0.951427 0.457643
C68   C     C_3   0.946112 0.606543 0.045637 0.455689
C69   C     C_R   0.536100 0.180662 0.338470 0.524490
C70   C     C_R   0.463995 0.180262 0.661578 0.512822
C71   C     C_R   0.036099 0.680662 0.338470 0.524486
C72   C     C_R   0.963994 0.680262 0.661578 0.512809
C73   C     C_3   0.487582 0.186747 0.933402 0.019679
C74   C     C_3   0.678233 0.451639 0.458704 -0.230152
C75   C     C_3   0.512761 0.182161 0.065485 0.007734
C76   C     C_3   0.987577 0.686748 0.933402 0.019671
C77   C     C_3   0.012759 0.682163 0.065484 0.007736
C78   C     C_1   0.755932 0.409545 0.900047 -0.043480
C79   C     C_1   0.243259 0.413215 0.099347 -0.047096
C80   C     C_1   0.255932 0.909546 0.900047 -0.043472
C81   C     C_1   0.743257 0.913221 0.099345 -0.047088
C82   C     C_1   0.732656 0.350006 0.024880 -0.024717
C83   C     C_1   0.265126 0.360824 0.973487 -0.041156
C84   C     C_1   0.232658 0.850008 0.024881 -0.024762
C85   C     C_3   0.322160 0.449138 0.541183 -0.229657
C86   C     C_1   0.765124 0.860824 0.973486 -0.041143
C87   C     C_1   0.743136 0.379061 0.956427 -0.016962
C88   C     C_1   0.255504 0.386867 0.042277 -0.041066
C89   C     C_1   0.243137 0.879062 0.956427 -0.016959
C90   C     C_1   0.755502 0.886872 0.042275 -0.041071
C91   C     C_1   0.727082 0.330563 0.084676 -0.024473
C92   C     C_1   0.270789 0.339585 0.914103 -0.017615
C93   C     C_1   0.227085 0.830569 0.084676 -0.024470
C94   C     C_1   0.770788 0.839584 0.914103 -0.017605
C95   C     C_R   0.736829 0.355451 0.363673 0.544737
C96   C     C_3   0.178232 0.951638 0.458705 -0.230151
C97   C     C_R   0.263625 0.353521 0.635895 0.545152
C98   C     C_R   0.236828 0.855448 0.363674 0.544739
C99   C     C_R   0.763626 0.853519 0.635895 0.545170
C100  C     C_R   0.722937 0.952968 0.163841 0.516690
C101  C     C_R   0.277035 0.952815 0.836296 0.510486
C102  C     C_R   0.222938 0.452965 0.163841 0.516681
C103  C     C_R   0.777035 0.452815 0.836296 0.510494
C104  C     C_R   0.534455 0.180722 0.139995 0.563404
C105  C     C_R   0.464927 0.181890 0.859858 0.540846
C106  C     C_R   0.034455 0.680723 0.139994 0.563399
C107  C     C_3   0.822159 0.949138 0.541183 -0.229655
C108  C     C_R   0.964922 0.681890 0.859859 0.540849
C109  C     C_R   0.722109 0.308258 0.156368 0.564259
C110  C     C_R   0.277170 0.311348 0.843712 0.560961
C111  C     C_R   0.222111 0.808262 0.156368 0.564287
C112  C     C_R   0.777170 0.811348 0.843711 0.560961
C113  C     C_1   0.485548 0.172713 0.594391 -0.018391
C114  C     C_1   0.514516 0.173642 0.405633 -0.018184
C115  C     C_1   0.985546 0.672713 0.594390 -0.018415
C116  C     C_1   0.014515 0.673642 0.405633 -0.018183
C117  C     C_1   0.504284 0.170305 0.464893 -0.020908
C118  C     C_3   0.822720 0.465669 0.532108 -0.255175
C119  C     C_1   0.495768 0.169837 0.535109 -0.020956
C120  C     C_1   0.004282 0.670305 0.464892 -0.020903
C121  C     C_1   0.995766 0.669837 0.535108 -0.020961
C122  C     C_3   0.689543 0.478685 0.535753 -0.200718
C123  C     C_3   0.310615 0.477509 0.464376 -0.200472
C124  C     C_3   0.189543 0.978687 0.535753 -0.200709
C125  C     C_3   0.810614 0.977510 0.464377 -0.200471
C126  C     C_3   0.445145 0.517359 0.926627 0.048163
C127  C     C_3   0.387825 0.585362 0.957338 -0.373821
C128  C     C_3   0.554602 0.513976 0.075039 0.052889
Cr1   Cr    Cr6+3 0.765780 0.160710 0.267420 0.977619
Cr2   Cr    Cr6+3 0.383970 0.323720 0.751490 0.988816
Cr3   Cr    Cr6+3 0.116030 0.823720 0.248510 0.990286
Cr4   Cr    Cr6+3 0.883970 0.823720 0.751490 0.988813
Cr5   Cr    Cr6+3 0.234220 0.160710 0.732580 0.974751
Cr6   Cr    Cr6+3 0.265780 0.660710 0.267420 0.977614
Cr7   Cr    Cr6+3 0.734220 0.660710 0.732580 0.974745
Cr8   Cr    Cr6+3 0.612200 0.009560 0.248850 0.967856
Cr9   Cr    Cr6+3 0.387800 0.009560 0.751150 1.005696
Cr10  Cr    Cr6+3 0.112200 0.509560 0.248850 0.967852
Cr11  Cr    Cr6+3 0.887800 0.509560 0.751150 1.005685
Cr12  Cr    Cr6+3 0.616030 0.323720 0.248510 0.990276
H1    H     H_    0.688650 0.572565 0.545486 0.109867
H2    H     H_    0.133505 0.404973 0.455137 0.126607
H3    H     H_    0.075336 0.608473 0.814887 0.140169
H4    H     H_    0.128507 0.494894 0.857660 0.166733
H5    H     H_    0.229077 0.630870 0.865659 0.170422
H6    H     H_    0.195235 0.589956 0.779995 0.108258
H7    H     H_    0.177677 0.735761 0.812573 0.122596
H8    H     H_    0.567106 0.864438 0.009079 0.158134
H9    H     H_    0.634069 0.929657 0.964976 0.140701
H10   H     H_    0.619741 0.732062 0.919870 0.100081
H11   H     H_    0.526401 0.742429 0.914721 0.129299
H12   H     H_    0.572916 0.821939 0.855413 0.163325
H13   H     H_    0.366519 0.902917 0.545044 0.126833
H14   H     H_    0.438926 0.971626 0.151414 0.175390
H15   H     H_    0.516627 0.900661 0.127315 0.169076
H16   H     H_    0.454469 0.745765 0.065125 0.129738
H17   H     H_    0.430634 0.752713 0.151350 0.101686
H18   H     H_    0.372669 0.808568 0.081311 0.164650
H19   H     H_    0.067144 0.364454 0.009080 0.158099
H20   H     H_    0.134082 0.429681 0.964943 0.140744
H21   H     H_    0.119747 0.232079 0.919852 0.100095
H22   H     H_    0.026409 0.242427 0.914743 0.129292
H23   H     H_    0.072887 0.321933 0.855407 0.163311
H24   H     H_    0.633504 0.904979 0.455137 0.126607
H25   H     H_    0.938945 0.471623 0.151417 0.175373
H26   H     H_    0.016640 0.400655 0.127306 0.169080
H27   H     H_    0.954456 0.245778 0.065106 0.129778
H28   H     H_    0.930670 0.252698 0.151350 0.101650
H29   H     H_    0.872669 0.308574 0.081345 0.164648
H30   H     H_    0.732869 0.192099 0.670245 0.107579
H31   H     H_    0.642212 0.167902 0.653696 0.132456
H32   H     H_    0.671941 0.315886 0.670839 0.135193
H33   H     H_    0.265325 0.185124 0.329278 0.107759
H34   H     H_    0.356527 0.165727 0.343976 0.135093
H35   H     H_    0.851974 0.433024 0.430169 0.137953
H36   H     H_    0.323645 0.311570 0.325635 0.136490
H37   H     H_    0.232837 0.691675 0.670175 0.107519
H38   H     H_    0.142103 0.668007 0.653663 0.132524
H39   H     H_    0.172118 0.815838 0.670913 0.135181
H40   H     H_    0.765323 0.685126 0.329278 0.107760
H41   H     H_    0.856525 0.665729 0.343975 0.135090
H42   H     H_    0.823643 0.811572 0.325634 0.136498
H43   H     H_    0.148541 0.433490 0.570209 0.137935
H44   H     H_    0.351973 0.933020 0.430170 0.137956
H45   H     H_    0.648540 0.933481 0.570209 0.137931
H46   H     H_    0.382279 0.203379 0.965766 0.132908
H47   H     H_    0.617992 0.185934 0.037379 0.154031
H48   H     H_    0.882273 0.703367 0.965769 0.132916
H49   H     H_    0.311508 0.571552 0.455744 0.107836
H50   H     H_    0.117989 0.685952 0.037374 0.154035
H51   H     H_    0.591203 0.042423 0.055774 0.121164
H52   H     H_    0.401979 0.056116 0.943250 0.170448
H53   H     H_    0.091209 0.542436 0.055772 0.121162
H54   H     H_    0.901980 0.556109 0.943251 0.170448
H55   H     H_    0.644488 0.446571 0.560835 0.168763
H56   H     H_    0.355462 0.445208 0.438747 0.169772
H57   H     H_    0.144488 0.946577 0.560839 0.168796
H58   H     H_    0.855462 0.945209 0.438748 0.169773
H59   H     H_    0.632015 0.393907 0.448033 0.163933
H60   H     H_    0.188652 0.072567 0.545486 0.109862
H61   H     H_    0.368179 0.390356 0.551179 0.163597
H62   H     H_    0.132013 0.893906 0.448035 0.163936
H63   H     H_    0.868178 0.890356 0.551179 0.163595
H64   H     H_    0.668421 0.535703 0.429520 0.101634
H65   H     H_    0.332428 0.532646 0.571030 0.103452
H66   H     H_    0.168419 0.035701 0.429520 0.101633
H67   H     H_    0.832427 0.032646 0.571031 0.103465
H68   H     H_    0.343976 0.052439 0.550279 0.137881
H69   H     H_    0.656447 0.054066 0.451053 0.138732
H70   H     H_    0.843976 0.552442 0.550280 0.137882
H71   H     H_    0.811507 0.071553 0.455745 0.107834
H72   H     H_    0.156446 0.554061 0.451049 0.138732
H73   H     H_    0.293430 0.053570 0.436312 0.194861
H74   H     H_    0.707545 0.053013 0.565050 0.193638
H75   H     H_    0.793431 0.553573 0.436312 0.194863
H76   H     H_    0.207548 0.553018 0.565042 0.193606
H77   H     H_    0.793186 0.236843 0.584720 0.096430
H78   H     H_    0.205906 0.238300 0.413998 0.097193
H79   H     H_    0.293181 0.736845 0.584724 0.096423
H80   H     H_    0.705905 0.738303 0.413998 0.097195
H81   H     H_    0.717932 0.201548 0.458200 0.139235
H82   H     H_    0.807795 0.244066 0.473988 0.085711
H83   H     H_    0.281946 0.199999 0.539716 0.138125
H84   H     H_    0.217931 0.701545 0.458202 0.139231
H85   H     H_    0.781945 0.699999 0.539714 0.138125
H86   H     H_    0.437529 0.536865 0.871051 0.133612
H87   H     H_    0.495466 0.553015 0.946696 0.123952
H88   H     H_    0.387092 0.565533 0.012372 0.176921
H89   H     H_    0.395476 0.682628 0.951279 0.106715
H90   H     H_    0.337138 0.561703 0.930058 0.161385
H91   H     H_    0.564013 0.532497 0.130719 0.133327
H92   H     H_    0.503306 0.549786 0.057118 0.125411
H93   H     H_    0.192039 0.243966 0.524710 0.085061
H94   H     H_    0.605424 0.569642 0.986523 0.169307
H95   H     H_    0.605756 0.678864 0.054299 0.074559
H96   H     H_    0.661254 0.551089 0.062665 0.158996
H97   H     H_    0.937505 0.036849 0.871045 0.133626
H98   H     H_    0.995444 0.053016 0.946686 0.123936
H99   H     H_    0.887074 0.065521 0.012368 0.176927
H100  H     H_    0.895456 0.182619 0.951276 0.106706
H101  H     H_    0.837118 0.061696 0.930055 0.161381
H102  H     H_    0.064008 0.032516 0.130708 0.133318
H103  H     H_    0.003294 0.049790 0.057111 0.125412
H104  H     H_    0.307793 0.744064 0.473991 0.085708
H105  H     H_    0.105376 0.069701 0.986501 0.169225
H106  H     H_    0.105783 0.178853 0.054317 0.074576
H107  H     H_    0.161238 0.051015 0.062598 0.159062
H108  H     H_    0.531097 0.455086 0.847156 0.104177
H109  H     H_    0.577614 0.317833 0.842553 0.158322
H110  H     H_    0.619408 0.450489 0.872213 0.116919
H111  H     H_    0.468785 0.450346 0.154315 0.103835
H112  H     H_    0.419069 0.315360 0.156916 0.177707
H113  H     H_    0.381011 0.451040 0.127077 0.115698
H114  H     H_    0.031085 0.955093 0.847157 0.104181
H115  H     H_    0.692039 0.743964 0.524709 0.085058
H116  H     H_    0.077621 0.817860 0.842555 0.158303
H117  H     H_    0.119395 0.950527 0.872222 0.116915
H118  H     H_    0.968786 0.950340 0.154316 0.103851
H119  H     H_    0.919064 0.815360 0.156919 0.177716
H120  H     H_    0.881011 0.951045 0.127082 0.115696
H121  H     H_    0.334188 0.997068 0.061614 0.164590
H122  H     H_    0.298082 0.140322 0.038573 0.137615
H123  H     H_    0.246925 0.060684 0.140965 0.123684
H124  H     H_    0.331224 0.045722 0.185579 0.156203
H125  H     H_    0.296982 0.191379 0.163000 0.146076
H126  H     H_    0.866521 0.402921 0.545044 0.126832
H127  H     H_    0.575344 0.108343 0.814907 0.140233
H128  H     H_    0.628580 0.994876 0.857711 0.166721
H129  H     H_    0.729080 0.130991 0.865652 0.170423
H130  H     H_    0.695251 0.089954 0.780005 0.108282
H131  H     H_    0.677630 0.235764 0.812532 0.122549
H132  H     H_    0.834196 0.497070 0.061593 0.164613
H133  H     H_    0.798068 0.640321 0.038615 0.137647
H134  H     H_    0.747001 0.560370 0.141053 0.123810
H135  H     H_    0.831343 0.545765 0.185594 0.156237
H136  H     H_    0.796916 0.691265 0.162982 0.146060
O1    O     O_R   0.783100 0.287550 0.345460 -0.529266
O2    O     O_R   0.454350 0.284910 0.836260 -0.516433
O3    O     O_R   0.045650 0.784910 0.163740 -0.503154
O4    O     O_R   0.954350 0.784910 0.836260 -0.516440
O5    O     O_R   0.677950 0.374280 0.185410 -0.485333
O6    O     O_R   0.322050 0.374280 0.814590 -0.478100
O7    O     O_R   0.177950 0.874280 0.185410 -0.485300
O8    O     O_R   0.822050 0.874280 0.814590 -0.478103
O9    O     O_3   0.664670 0.164660 0.254930 -0.267782
O10   O     O_3   0.335330 0.164660 0.745070 -0.273045
O11   O     O_3   0.164670 0.664660 0.254930 -0.267783
O12   O     O_R   0.216900 0.287550 0.654540 -0.528945
O13   O     O_3   0.835330 0.664660 0.745070 -0.273045
O14   O     O_R   0.760020 0.037400 0.337700 -0.521213
O15   O     O_R   0.239980 0.037400 0.662300 -0.521934
O16   O     O_R   0.260020 0.537400 0.337700 -0.521213
O17   O     O_R   0.739980 0.537400 0.662300 -0.521931
O18   O     O_R   0.666600 0.921990 0.332020 -0.534923
O19   O     O_R   0.333400 0.921990 0.667980 -0.534453
O20   O     O_R   0.166600 0.421990 0.332020 -0.534921
O21   O     O_R   0.833400 0.421990 0.667980 -0.534463
O22   O     O_R   0.557260 0.082670 0.312540 -0.500427
O23   O     O_R   0.283100 0.787550 0.345460 -0.529267
O24   O     O_R   0.442740 0.082670 0.687460 -0.503756
O25   O     O_R   0.057260 0.582670 0.312540 -0.500429
O26   O     O_R   0.942740 0.582670 0.687460 -0.503756
O27   O     O_R   0.548410 0.285740 0.316480 -0.525392
O28   O     O_R   0.451590 0.285740 0.683520 -0.527068
O29   O     O_R   0.048410 0.785740 0.316480 -0.525391
O30   O     O_R   0.951590 0.785740 0.683520 -0.527061
O31   O     O_R   0.680500 0.375040 0.327000 -0.503911
O32   O     O_R   0.319500 0.375040 0.673000 -0.502994
O33   O     O_R   0.180500 0.875040 0.327000 -0.503911
O34   O     O_R   0.716900 0.787550 0.654540 -0.528949
O35   O     O_R   0.819500 0.875040 0.673000 -0.502988
O36   O     O_R   0.780350 0.286720 0.192720 -0.532372
O37   O     O_R   0.219650 0.286720 0.807280 -0.534594
O38   O     O_R   0.280350 0.786720 0.192720 -0.532381
O39   O     O_R   0.719650 0.786720 0.807280 -0.534605
O40   O     O_R   0.757470 0.036630 0.196110 -0.518502
O41   O     O_R   0.242530 0.036630 0.803890 -0.525163
O42   O     O_R   0.257470 0.536630 0.196110 -0.518502
O43   O     O_R   0.742530 0.536630 0.803890 -0.525159
O44   O     O_R   0.663840 0.921160 0.179280 -0.531409
O45   O     O_R   0.554710 0.081900 0.170950 -0.537874
O46   O     O_R   0.336160 0.921160 0.820720 -0.501015
O47   O     O_R   0.163840 0.421160 0.179280 -0.531409
O48   O     O_R   0.836160 0.421160 0.820720 -0.501022
O49   O     O_3   0.438119 0.392899 0.935799 -0.514436
O50   O     O_3   0.562640 0.389788 0.064657 -0.512783
O51   O     O_3   0.938106 0.892892 0.935800 -0.514445
O52   O     O_3   0.062631 0.889793 0.064658 -0.512790
O53   O     O_3   0.563389 0.371609 0.942313 -0.547385
O54   O     O_3   0.437456 0.369607 0.057762 -0.553202
O55   O     O_3   0.063379 0.871618 0.942314 -0.547380
O56   O     O_R   0.445290 0.081900 0.829050 -0.483254
O57   O     O_3   0.937449 0.869601 0.057765 -0.553195
O58   O     O_3   0.396337 0.144486 0.089175 -0.579217
O59   O     O_3   0.611141 0.145388 0.917608 -0.561595
O60   O     O_3   0.896338 0.644485 0.089174 -0.579210
O61   O     O_3   0.111138 0.645390 0.917604 -0.561598
O62   O     O_3   0.532879 0.986055 0.934171 -0.526670
O63   O     O_3   0.458179 0.979882 0.046783 -0.560736
O64   O     O_3   0.032879 0.486057 0.934177 -0.526661
O65   O     O_3   0.958182 0.479879 0.046783 -0.560724
O66   O     O_3   0.684591 0.248384 0.574134 -0.604182
O67   O     O_R   0.054710 0.581900 0.170950 -0.537879
O68   O     O_3   0.314608 0.247827 0.423731 -0.605546
O69   O     O_3   0.184582 0.748395 0.574132 -0.604163
O70   O     O_3   0.814607 0.747829 0.423730 -0.605548
O71   O     O_R   0.945290 0.581900 0.829050 -0.483257
O72   O     O_R   0.545650 0.284910 0.163740 -0.503156

loop_
_geom_bond_atom_site_label_1
_geom_bond_atom_site_label_2
_ccdc_geom_bond_type
C22   H10   S    
C126  C127  S    
C95   O1    A    
C23   H15   S    
C35   C53   S    
C64   C77   S    
C80   C101  S    
C19   C20   S    
C16   H129  S    
C7    H106  S    
C1    O18   A    
C9    H111  S    
C117  C119  S    
C27   H22   S    
Cr8   O9    S    
C82   C87   S    
C49   H73   S    
C127  H89   S    
C56   C57   S    
C37   C42   S    
Cr11  O26   S    
C3    H95   S    
C44   C53   S    
C46   C55   S    
C4    H97   S    
C79   C102  S    
C26   H20   S    
Cr8   O18   S    
Cr12  O9    S    
C11   O57   S    
Cr6   O38   S    
C107  H67   S    
C28   H26   S    
C83   C88   S    
C128  H92   S    
C21   C22   S    
C33   H40   S    
C32   H38   S    
C24   H24   S    
C40   C124  S    
C95   O31   A    
C8    O53   S    
Cr1   O36   S    
C41   O15   A    
C69   C114  S    
Cr9   O19   S    
C21   O62   S    
C15   H128  S    
C86   C90   S    
C124  H57   S    
C82   C91   T    
C11   H119  S    
C68   O60   S    
C64   C67   S    
C49   H44   S    
C109  O5    A    
C59   O57   S    
C12   H122  S    
C52   O20   A    
C6    O52   S    
Cr7   O13   S    
C23   O63   S    
C81   C90   T    
Cr7   O39   S    
C69   O22   A    
C127  H88   S    
C20   H6    S    
C123  H56   S    
C62   H54   S    
Cr11  O13   S    
C16   H131  S    
C62   H48   S    
C34   O66   S    
Cr1   O40   S    
C68   C77   S    
C97   O32   A    
C56   C73   S    
C66   O63   S    
C9    H113  S    
C4    C5    S    
C17   H133  S    
C24   H69   S    
C96   H62   S    
C6    C7    S    
C57   O50   S    
C53   H83   S    
C62   C68   S    
Cr10  O25   S    
Cr1   O9    S    
Cr5   O41   S    
C67   O64   S    
C102  O47   A    
C51   H81   S    
C55   H115  S    
C58   O55   S    
C85   C123  S    
C84   C93   T    
C66   O58   S    
C61   C65   S    
Cr11  O48   S    
Cr5   O10   S    
C33   H42   S    
C61   H51   S    
Cr4   O13   S    
C37   H80   S    
C29   H29   S    
C43   C47   S    
Cr12  O72   S    
C44   C48   S    
C78   C87   T    
C115  C121  T    
C5    H100  S    
Cr11  O71   S    
C35   O68   S    
C32   O69   S    
Cr2   O10   S    
Cr3   O7    S    
C34   H77   S    
C58   C76   S    
Cr3   O33   S    
C72   C115  S    
C8    H110  S    
C34   C51   S    
Cr5   O15   S    
C29   H28   S    
C77   C106  S    
C7    H107  S    
C63   O17   A    
C71   O29   A    
C112  O8    A    
C31   O68   S    
C27   H23   S    
C21   H9    S    
Cr6   O23   S    
C112  O39   A    
C33   O70   S    
C46   C107  S    
C25   H16   S    
C105  O2    A    
C98   O23   A    
C36   H79   S    
C18   H136  S    
C31   H36   S    
C70   C113  S    
C24   C50   S    
Cr4   O4    S    
C13   H68   S    
C103  O48   A    
C21   H8    S    
C107  C125  S    
C3    C128  S    
Cr10  O11   S    
C116  C120  T    
C36   O69   S    
C107  H63   S    
C72   O26   A    
C73   C105  S    
C60   H52   S    
Cr5   O12   S    
C17   C18   S    
C10   H117  S    
Cr8   O45   S    
C101  O46   A    
C30   H32   S    
C41   O19   A    
C125  H58   S    
C2    H2    S    
C44   C85   S    
C97   O12   A    
C120  C121  S    
C22   H11   S    
C69   O27   A    
Cr2   O28   S    
C70   O28   A    
Cr4   O30   S    
C12   O58   S    
Cr1   O14   S    
C16   H130  S    
C110  O6    A    
C72   O30   A    
C30   O66   S    
C7    H105  S    
C57   C75   S    
Cr7   O17   S    
C27   H21   S    
C92   C110  S    
C74   H64   S    
Cr9   O10   S    
Cr8   O44   S    
C126  O49   S    
C94   C112  S    
C71   C116  S    
Cr4   O35   S    
C6    H103  S    
C114  C117  T    
C36   C54   S    
C37   C55   S    
C25   H18   S    
C4    H98   S    
C6    H102  S    
C99   O34   A    
C106  O3    A    
C122  H1    S    
C47   H35   S    
C18   H134  S    
C31   H34   S    
C57   O54   S    
C46   C99   S    
C19   H4    S    
C24   C42   S    
C126  H87   S    
Cr5   O37   S    
C122  H55   S    
C125  H71   S    
C126  H86   S    
C26   C27   S    
C10   H116  S    
C28   C29   S    
Cr6   O16   S    
C15   H127  S    
C45   C98   S    
C60   C73   S    
C61   H47   S    
C39   C123  S    
C80   C89   T    
C30   H30   S    
C13   C40   S    
C113  C119  T    
C47   C118  S    
C47   H75   S    
C43   C95   S    
C110  O37   A    
Cr3   O3    S    
C14   H125  S    
C85   H61   S    
Cr3   O29   S    
C60   C66   S    
C76   C108  S    
Cr10  O47   S    
C106  O67   A    
C62   C76   S    
C111  O7    A    
C79   C88   T    
C100  O40   A    
C101  O41   A    
C63   O21   A    
C103  O43   A    
C85   H65   S    
C9    H112  S    
C28   O65   S    
C104  O72   A    
C111  O38   A    
C2    C48   S    
C58   C59   S    
C127  H90   S    
C35   C39   S    
Cr9   O56   S    
C3    H96   S    
C54   H84   S    
C45   C49   S    
C98   O33   A    
Cr6   O11   S    
C26   H19   S    
C13   H13   S    
C38   C122  S    
C28   H25   S    
C93   C111  S    
C74   C122  S    
C56   O49   S    
C128  H91   S    
C33   H41   S    
C75   C104  S    
C128  O50   S    
Cr10  O67   S    
C53   H93   S    
C38   C63   S    
C5    H99   S    
C10   H114  S    
C71   O25   A    
C48   H43   S    
Cr11  O21   S    
C55   H85   S    
C81   C100  S    
C124  H60   S    
C2    H72   S    
C11   H120  S    
C29   H27   S    
C68   O65   S    
C43   C51   S    
C66   C75   S    
C109  O36   A    
C1    O14   A    
C12   H121  S    
C14   H123  S    
C38   C118  S    
C1    C42   S    
C74   H59   S    
C8    H108  S    
C23   H14   S    
C70   O24   A    
C20   H5    S    
C108  O71   A    
C17   O60   S    
C48   H76   S    
C10   O55   S    
C99   O35   A    
Cr12  O5    S    
Cr7   O43   S    
C59   C77   S    
C61   C75   S    
C83   C92   T    
C67   O61   S    
C3    H94   S    
C9    O54   S    
C50   H74   S    
C51   H82   S    
C15   C16   S    
C65   C73   S    
C26   O64   S    
C56   O53   S    
C86   C94   T    
C42   C125  S    
C118  H126  S    
C2    C39   S    
C32   H39   S    
Cr1   O1    S    
C123  H49   S    
Cr7   O34   S    
C43   C74   S    
C39   C52   S    
C65   O62   S    
C52   O16   A    
C17   H132  S    
Cr8   O22   S    
C22   H12   S    
C8    H109  S    
C96   C124  S    
C11   H118  S    
C36   C40   S    
Cr10  O20   S    
Cr9   O46   S    
C19   O61   S    
C4    O51   S    
C54   H104  S    
Cr2   O2    S    
C104  O45   A    
C65   O59   S    
C44   C97   S    
C96   H66   S    
C64   H53   S    
C20   H7    S    
C100  O44   A    
C14   H124  S    
C37   O70   S    
Cr12  O27   S    
C13   C49   S    
C40   C41   S    
C102  O42   A    
C12   C14   S    
C45   C54   S    
C25   H17   S    
C58   O51   S    
C84   C89   S    
C35   H78   S    
C18   H135  S    
C31   H33   S    
C105  O56   A    
C60   H46   S    
Cr4   O8    S    
C78   C103  S    
C34   C38   S    
C15   O59   S    
C64   H50   S    
C46   C50   S    
C59   O52   S    
C118  H70   S    
C91   C109  S    
Cr2   O6    S    
Cr3   O11   S    
C45   C96   S    
Cr2   O32   S    
C23   C25   S    
C32   H37   S    
C19   H3    S    
C30   H31   S    
Cr12  O31   S    
Cr6   O42   S    
Cr9   O24   S    
C67   C76   S    
C5    H101  S    
C108  O4    A    
C50   H45   S    
