data_mof_unit_61214.cif
_audit_creation_date              2012-12-10T18:30:48-0500
_audit_creation_method            fapswitch 2.2
_symmetry_space_group_name_H-M    P1
_symmetry_Int_Tables_number       1
_space_group_crystal_system       triclinic
_cell_length_a                    18.261539
_cell_length_b                    18.261507
_cell_length_c                    42.861326
_cell_angle_alpha                 89.995055
_cell_angle_beta                  89.994919
_cell_angle_gamma                 89.999797
_cell_volume                      14293.5329961

loop_
_atom_site_label
_atom_site_type_symbol
_atom_type_description
_atom_site_fract_x
_atom_site_fract_y
_atom_site_fract_z
_atom_type_partial_charge
C1    C     C_R   0.999857 0.500020 0.665774 0.802758
C2    C     C_R   0.497654 0.000156 0.131358 -0.054068
C3    C     C_3   0.199920 0.698001 0.750398 0.098244
C4    C     C_3   0.302721 0.799509 0.749900 0.108304
C5    C     C_3   0.200468 0.302704 0.250094 0.106897
C6    C     C_3   0.698013 0.199929 0.750400 0.097696
C7    C     C_3   0.799505 0.697266 0.250108 0.109249
C8    C     C_R   0.065750 0.500850 0.885220 -0.217717
C9    C     C_R   0.500750 0.934260 0.114776 -0.216295
C10   C     C_R   0.933854 0.490812 0.884960 -0.213163
C11   C     C_R   0.490962 0.066176 0.115043 -0.216043
C12   C     C_R   0.934258 0.500705 0.114777 -0.214828
C13   C     C_R   0.000156 0.497651 0.131359 -0.054356
C14   C     C_R   0.490830 0.933852 0.884959 -0.212942
C15   C     C_R   0.066179 0.491000 0.115043 -0.214356
C16   C     C_R   0.500830 0.065751 0.885220 -0.217483
C17   C     C_R   0.565751 0.000727 0.385221 -0.217492
C18   C     C_R   0.000753 0.434259 0.614777 -0.214830
C19   C     C_R   0.433836 0.990951 0.384960 -0.212926
C20   C     C_R   0.990949 0.566173 0.615043 -0.214359
C21   C     C_R   0.434280 0.001003 0.614773 -0.216289
C22   C     C_R   0.990879 0.433848 0.384961 -0.213164
C23   C     C_R   0.566157 0.990722 0.615047 -0.216042
C24   C     C_R   0.497632 0.999856 0.868641 -0.054172
C25   C     C_R   0.000781 0.565754 0.385220 -0.217720
C26   C     C_R   0.066926 0.496502 0.917892 -0.035674
C27   C     C_R   0.496398 0.933100 0.082104 -0.037234
C28   C     C_R   0.932555 0.486139 0.917615 -0.038468
C29   C     C_R   0.486297 0.067493 0.082388 -0.036506
C30   C     C_R   0.933101 0.496353 0.082105 -0.037651
C31   C     C_R   0.486156 0.932552 0.917615 -0.038444
C32   C     C_R   0.067497 0.486333 0.082388 -0.036900
C33   C     C_R   0.496482 0.066926 0.917892 -0.035647
C34   C     C_R   0.566916 0.996380 0.417893 -0.035637
C35   C     C_R   0.499851 0.997637 0.368641 -0.054187
C36   C     C_R   0.996402 0.433098 0.582105 -0.037652
C37   C     C_R   0.432524 0.986291 0.417615 -0.038463
C38   C     C_R   0.986278 0.567487 0.582388 -0.036901
C39   C     C_R   0.433115 0.996669 0.582102 -0.037217
C40   C     C_R   0.986207 0.432546 0.417616 -0.038462
C41   C     C_R   0.567469 0.986060 0.582392 -0.036550
C42   C     C_R   0.996429 0.566928 0.417892 -0.035679
C43   C     C_R   0.999745 0.488708 0.934278 -0.090247
C44   C     C_R   0.488734 0.000301 0.065722 -0.090254
C45   C     C_R   0.000304 0.488729 0.065723 -0.090244
C46   C     C_R   0.997650 0.500155 0.631359 -0.054350
C47   C     C_R   0.488708 0.999743 0.934277 -0.090230
C48   C     C_R   0.499719 0.988727 0.434278 -0.090246
C49   C     C_R   0.988726 0.500296 0.565723 -0.090243
C50   C     C_R   0.500291 0.988756 0.565723 -0.090294
C51   C     C_R   0.988705 0.499740 0.434278 -0.090240
C52   C     C_3   0.093204 0.207727 0.766765 -0.917568
C53   C     C_3   0.207675 0.906801 0.233321 -0.919381
C54   C     C_3   0.906799 0.792306 0.766649 -0.918418
C55   C     C_3   0.787994 0.108183 0.222219 -0.890806
C56   C     C_3   0.906800 0.207760 0.233256 -0.916987
C57   C     C_R   0.500158 0.997656 0.631359 -0.054043
C58   C     C_3   0.788018 0.891892 0.777692 -0.890201
C59   C     C_3   0.108046 0.788028 0.222308 -0.888801
C60   C     C_3   0.211995 0.108081 0.777761 -0.890304
C61   C     C_3   0.608080 0.711994 0.277760 -0.890306
C62   C     C_3   0.707761 0.406800 0.733255 -0.916991
C63   C     C_3   0.391892 0.288020 0.277691 -0.890199
C64   C     C_3   0.288027 0.608047 0.722307 -0.888803
C65   C     C_3   0.406800 0.707676 0.733320 -0.919383
C66   C     C_3   0.292307 0.406800 0.266647 -0.918417
C67   C     C_3   0.608185 0.287992 0.722218 -0.890810
C68   C     C_R   0.997633 0.499855 0.368642 -0.054264
C69   C     C_3   0.707726 0.593203 0.266764 -0.917567
C70   C     C_3   0.218057 0.338815 0.691601 -0.851918
C71   C     C_3   0.338884 0.781837 0.308387 -0.860046
C72   C     C_3   0.781819 0.661056 0.691614 -0.861335
C73   C     C_3   0.694447 0.207839 0.311395 -0.853812
C74   C     C_3   0.781931 0.338836 0.308405 -0.860267
C75   C     C_3   0.694243 0.791998 0.688611 -0.863633
C76   C     C_3   0.207973 0.694227 0.311382 -0.853747
C77   C     C_3   0.305588 0.207857 0.688613 -0.851309
C78   C     C_3   0.707860 0.805589 0.188613 -0.851364
C79   C     C_R   0.500592 0.988678 0.531511 0.419692
C80   C     C_3   0.838834 0.281933 0.808405 -0.860259
C81   C     C_3   0.291996 0.194240 0.188612 -0.863676
C82   C     C_3   0.194228 0.707971 0.811383 -0.853724
C83   C     C_3   0.281838 0.838882 0.808388 -0.860045
C84   C     C_3   0.161054 0.281816 0.191614 -0.861341
C85   C     C_3   0.707837 0.194449 0.811395 -0.853783
C86   C     C_3   0.838817 0.718059 0.191602 -0.851942
C87   C     C_2   0.139373 0.500447 0.933944 0.917062
C88   C     C_2   0.500196 0.860648 0.066049 0.919278
C89   C     C_2   0.859877 0.479308 0.933303 0.916656
C90   C     C_R   0.988640 0.499453 0.468490 0.419610
C91   C     C_2   0.479619 0.140191 0.066704 0.914222
C92   C     C_2   0.860647 0.500110 0.066050 0.919403
C93   C     C_2   0.479344 0.859872 0.933303 0.916697
C94   C     C_2   0.140197 0.479691 0.066703 0.914344
C95   C     C_2   0.500409 0.139374 0.933944 0.917097
C96   C     C_2   0.639370 0.000174 0.433946 0.917103
C97   C     C_2   0.000218 0.360647 0.566050 0.919393
C98   C     C_2   0.359828 0.979625 0.433302 0.916682
C99   C     C_2   0.979576 0.640182 0.566704 0.914354
C100  C     C_2   0.360684 0.000753 0.566042 0.919284
C101  C     C_R   0.499432 0.988665 0.468490 0.419674
C102  C     C_2   0.979453 0.359862 0.433304 0.916651
C103  C     C_2   0.640150 0.979111 0.566713 0.914221
C104  C     C_2   0.000295 0.639381 0.433943 0.917061
C105  C     C_R   0.499981 0.999849 0.334226 0.801744
C106  C     C_R   0.988651 0.500592 0.531511 0.419738
C107  C     C_R   0.000599 0.488654 0.031510 0.419736
C108  C     C_R   0.488643 0.999454 0.968490 0.419644
C109  C     C_R   0.999457 0.488643 0.968490 0.419622
C110  C     C_R   0.488658 0.000598 0.031510 0.419594
C111  C     C_R   0.140934 0.641550 0.750271 0.784858
C112  C     C_R   0.641539 0.859053 0.249734 0.785618
C113  C     C_R   0.857840 0.359777 0.749452 0.805188
C114  C     C_R   0.358440 0.140928 0.249724 0.784643
C115  C     C_R   0.857829 0.640213 0.250554 0.806311
C116  C     C_R   0.999849 0.499981 0.334226 0.801833
C117  C     C_R   0.359783 0.857827 0.749448 0.806462
C118  C     C_R   0.142162 0.359772 0.250547 0.806161
C119  C     C_R   0.641554 0.140938 0.750272 0.786220
C120  C     C_R   0.640938 0.141554 0.250272 0.786222
C121  C     C_R   0.140213 0.357829 0.750554 0.806311
C122  C     C_R   0.357827 0.859783 0.249448 0.806462
C123  C     C_R   0.859772 0.642161 0.750547 0.806160
C124  C     C_R   0.359053 0.141539 0.749734 0.785619
C125  C     C_R   0.859777 0.357839 0.249452 0.805189
C126  C     C_R   0.640928 0.858440 0.749724 0.784639
C127  C     C_R   0.500020 0.999858 0.665774 0.800851
C128  C     C_R   0.141550 0.640934 0.250271 0.784860
C129  C     C_3   0.161931 0.221145 0.746156 0.039818
C130  C     C_3   0.221149 0.838036 0.253895 0.040721
C131  C     C_3   0.838019 0.778824 0.746089 0.040669
C132  C     C_3   0.777505 0.160670 0.250406 0.041920
C133  C     C_3   0.838053 0.221170 0.253854 0.040078
C134  C     C_3   0.777477 0.839325 0.749535 0.042141
C135  C     C_3   0.160646 0.777488 0.250457 0.041785
C136  C     C_3   0.222482 0.160637 0.749591 0.042105
C137  C     C_3   0.660637 0.722482 0.249590 0.042106
C138  C     C_R   0.499858 0.000020 0.165774 0.800868
C139  C     C_3   0.721170 0.338053 0.753853 0.040079
C140  C     C_3   0.339325 0.277477 0.249534 0.042143
C141  C     C_3   0.277488 0.660646 0.750457 0.041784
C142  C     C_3   0.338036 0.721149 0.753894 0.040721
C143  C     C_3   0.278824 0.338019 0.246088 0.040668
C144  C     C_3   0.660671 0.277505 0.750405 0.041923
C145  C     C_3   0.721145 0.661930 0.246156 0.039818
C146  C     C_3   0.253225 0.314693 0.722881 -0.047669
C147  C     C_3   0.314744 0.746714 0.277102 -0.043480
C148  C     C_3   0.746696 0.685219 0.722897 -0.043326
C149  C     C_R   0.999981 0.499849 0.834226 0.801829
C150  C     C_3   0.691302 0.249205 0.279778 -0.059584
C151  C     C_3   0.746763 0.314713 0.277127 -0.044216
C152  C     C_3   0.691208 0.750707 0.720248 -0.055146
C153  C     C_3   0.249266 0.691216 0.279746 -0.060358
C154  C     C_3   0.308695 0.249197 0.720234 -0.061390
C155  C     C_3   0.749199 0.808696 0.220235 -0.061367
C156  C     C_3   0.814712 0.246763 0.777128 -0.044220
C157  C     C_3   0.250706 0.191207 0.220249 -0.055126
C158  C     C_3   0.191217 0.749266 0.779747 -0.060369
C159  C     C_3   0.246715 0.814743 0.777103 -0.043482
C160  C     C_R   0.499849 0.999981 0.834226 0.801741
C161  C     C_3   0.185218 0.246695 0.222898 -0.043319
C162  C     C_3   0.749204 0.191303 0.779778 -0.059601
C163  C     C_3   0.814694 0.753225 0.222882 -0.047656
C164  C     C_3   0.241701 0.300613 0.781135 -0.465483
C165  C     C_3   0.300571 0.758343 0.218856 -0.465287
C166  C     C_3   0.758321 0.699412 0.781140 -0.463192
C167  C     C_3   0.693513 0.247131 0.220770 -0.444773
C168  C     C_3   0.758277 0.300658 0.218875 -0.465299
C169  C     C_3   0.693552 0.752936 0.779250 -0.445148
C170  C     C_3   0.247042 0.693578 0.220743 -0.444945
C171  C     C_R   0.000020 0.499858 0.165774 0.802759
C172  C     C_3   0.306455 0.247074 0.779243 -0.446306
C173  C     C_3   0.747072 0.806454 0.279243 -0.446303
C174  C     C_3   0.800659 0.258275 0.718875 -0.465312
C175  C     C_3   0.252937 0.193553 0.279251 -0.445143
C176  C     C_3   0.193578 0.747043 0.720744 -0.444953
C177  C     C_3   0.258342 0.800572 0.718856 -0.465294
C178  C     C_3   0.199414 0.258322 0.281140 -0.463186
C179  C     C_3   0.747132 0.193511 0.720771 -0.444777
C180  C     C_3   0.800611 0.741700 0.281136 -0.465484
C181  C     C_3   0.197266 0.299505 0.750108 0.109254
C182  C     C_R   0.999855 0.497633 0.868641 -0.054260
C183  C     C_3   0.299508 0.802721 0.249899 0.108297
C184  C     C_3   0.802704 0.700468 0.750094 0.106904
C185  C     C_3   0.699929 0.198013 0.250400 0.097688
C186  C     C_3   0.802719 0.299530 0.249901 0.109010
C187  C     C_3   0.699907 0.801978 0.749595 0.097551
C188  C     C_3   0.198001 0.699920 0.250398 0.098237
C189  C     C_3   0.300054 0.197984 0.749607 0.099520
C190  C     C_3   0.697984 0.800054 0.249607 0.099514
C191  C     C_3   0.799530 0.302719 0.749901 0.109019
C192  C     C_3   0.301978 0.199908 0.249595 0.097544
H1    H     H_    0.141265 0.217580 0.721787 0.155131
H2    H     H_    0.717586 0.358698 0.778226 0.154871
H3    H     H_    0.069097 0.741701 0.220183 0.227249
H4    H     H_    0.073884 0.837662 0.225596 0.240055
H5    H     H_    0.207152 0.138362 0.800083 0.254887
H6    H     H_    0.162342 0.073930 0.774506 0.240470
H7    H     H_    0.258319 0.069124 0.779877 0.226837
H8    H     H_    0.638360 0.707151 0.300082 0.254887
H9    H     H_    0.569123 0.758317 0.279876 0.226837
H10   H     H_    0.573928 0.662341 0.274504 0.240471
H11   H     H_    0.713318 0.394381 0.708061 0.247106
H12   H     H_    0.652406 0.429441 0.737806 0.243676
H13   H     H_    0.375307 0.281637 0.228674 0.158575
H14   H     H_    0.746172 0.451806 0.738866 0.248154
H15   H     H_    0.361619 0.292946 0.300014 0.255954
H16   H     H_    0.430817 0.241679 0.279833 0.226810
H17   H     H_    0.426075 0.337641 0.274401 0.239614
H18   H     H_    0.292928 0.638297 0.699978 0.255310
H19   H     H_    0.337661 0.573884 0.725594 0.240054
H20   H     H_    0.241701 0.569098 0.720182 0.227250
H21   H     H_    0.394409 0.713152 0.708120 0.247275
H22   H     H_    0.451795 0.746104 0.738921 0.247171
H23   H     H_    0.429436 0.652334 0.737907 0.243649
H24   H     H_    0.281643 0.624679 0.771320 0.158492
H25   H     H_    0.286802 0.394436 0.291850 0.247762
H26   H     H_    0.347661 0.429411 0.262063 0.243321
H27   H     H_    0.253907 0.451809 0.261029 0.247314
H28   H     H_    0.638520 0.292861 0.699908 0.255749
H29   H     H_    0.569259 0.241652 0.720082 0.226666
H30   H     H_    0.574006 0.337630 0.725466 0.239699
H31   H     H_    0.713219 0.605653 0.291957 0.247036
H32   H     H_    0.652389 0.570532 0.262201 0.243770
H33   H     H_    0.746174 0.548212 0.261174 0.248055
H34   H     H_    0.180451 0.296476 0.682259 0.262915
H35   H     H_    0.358649 0.717619 0.778273 0.154983
H36   H     H_    0.187333 0.390806 0.694437 0.229683
H37   H     H_    0.261074 0.351173 0.674106 0.244716
H38   H     H_    0.296537 0.819401 0.317756 0.261316
H39   H     H_    0.351287 0.738793 0.325864 0.244501
H40   H     H_    0.390852 0.812600 0.305546 0.229769
H41   H     H_    0.819389 0.703393 0.682238 0.260880
H42   H     H_    0.812577 0.609087 0.694461 0.229817
H43   H     H_    0.738775 0.648651 0.674140 0.244295
H44   H     H_    0.749301 0.183951 0.315768 0.246453
H45   H     H_    0.680588 0.245081 0.330933 0.249864
H46   H     H_    0.282346 0.358615 0.221705 0.154721
H47   H     H_    0.652622 0.164155 0.312742 0.251823
H48   H     H_    0.819547 0.296503 0.317748 0.261434
H49   H     H_    0.812648 0.390832 0.305564 0.229770
H50   H     H_    0.738915 0.351183 0.325901 0.244516
H51   H     H_    0.749078 0.815888 0.684193 0.246244
H52   H     H_    0.680330 0.754705 0.669098 0.248911
H53   H     H_    0.652408 0.835677 0.687276 0.251053
H54   H     H_    0.184070 0.749054 0.315802 0.246485
H55   H     H_    0.164308 0.652379 0.312718 0.251716
H56   H     H_    0.245267 0.680313 0.330896 0.249817
H57   H     H_    0.624629 0.281710 0.771244 0.158474
H58   H     H_    0.250744 0.183959 0.684229 0.247161
H59   H     H_    0.319455 0.245118 0.669079 0.250442
H60   H     H_    0.347426 0.164186 0.687267 0.251556
H61   H     H_    0.683962 0.750745 0.184229 0.247158
H62   H     H_    0.664189 0.847427 0.187268 0.251575
H63   H     H_    0.745121 0.819457 0.169080 0.250422
H64   H     H_    0.796500 0.319550 0.817748 0.261440
H65   H     H_    0.851180 0.238918 0.825902 0.244521
H66   H     H_    0.890829 0.312650 0.805565 0.229766
H67   H     H_    0.315886 0.249075 0.184193 0.246224
H68   H     H_    0.717582 0.641265 0.221786 0.155133
H69   H     H_    0.335675 0.152405 0.187276 0.251070
H70   H     H_    0.254703 0.180327 0.169099 0.248910
H71   H     H_    0.249055 0.684067 0.815801 0.246489
H72   H     H_    0.180315 0.745265 0.830896 0.249824
H73   H     H_    0.152380 0.664306 0.812718 0.251711
H74   H     H_    0.319403 0.796534 0.817756 0.261323
H75   H     H_    0.312602 0.890851 0.805547 0.229764
H76   H     H_    0.238796 0.851285 0.825865 0.244504
H77   H     H_    0.203391 0.319386 0.182238 0.260871
H78   H     H_    0.148649 0.238772 0.174141 0.244294
H79   H     H_    0.263754 0.356322 0.785913 0.199187
H80   H     H_    0.109086 0.312575 0.194461 0.229822
H81   H     H_    0.683948 0.249304 0.815768 0.246457
H82   H     H_    0.664153 0.152625 0.812742 0.251815
H83   H     H_    0.745078 0.180592 0.830934 0.249875
H84   H     H_    0.796479 0.680453 0.182259 0.262910
H85   H     H_    0.851177 0.761076 0.174107 0.244708
H86   H     H_    0.890809 0.687334 0.194438 0.229687
H87   H     H_    0.201201 0.475769 0.971503 0.358138
H88   H     H_    0.475408 0.798879 0.028488 0.359613
H89   H     H_    0.801048 0.444340 0.970254 0.361037
H90   H     H_    0.356275 0.736303 0.214051 0.199765
H91   H     H_    0.444767 0.199107 0.029761 0.359469
H92   H     H_    0.798892 0.475278 0.028490 0.359606
H93   H     H_    0.444388 0.801034 0.970254 0.361044
H94   H     H_    0.199125 0.444881 0.029755 0.359458
H95   H     H_    0.475722 0.201194 0.971505 0.358142
H96   H     H_    0.701140 0.975369 0.471508 0.358146
H97   H     H_    0.975439 0.298873 0.528489 0.359602
H98   H     H_    0.300919 0.944817 0.470258 0.361067
H99   H     H_    0.944713 0.699081 0.529757 0.359455
H100  H     H_    0.298837 0.976218 0.528473 0.359621
H101  H     H_    0.736286 0.643707 0.785948 0.200425
H102  H     H_    0.944534 0.300997 0.470254 0.361030
H103  H     H_    0.698940 0.944126 0.529755 0.359492
H104  H     H_    0.975548 0.701184 0.471501 0.358136
H105  H     H_    0.217620 0.858648 0.278274 0.154982
H106  H     H_    0.641515 0.278935 0.221647 0.186794
H107  H     H_    0.736232 0.356374 0.214098 0.199556
H108  H     H_    0.641549 0.721132 0.778412 0.186893
H109  H     H_    0.278842 0.641572 0.221580 0.186565
H110  H     H_    0.358459 0.278870 0.778377 0.186419
H111  H     H_    0.778868 0.858458 0.278378 0.186422
H112  H     H_    0.856376 0.236230 0.714099 0.199552
H113  H     H_    0.221133 0.141550 0.278413 0.186894
H114  H     H_    0.141571 0.778843 0.721581 0.186562
H115  H     H_    0.236302 0.856276 0.714052 0.199758
H116  H     H_    0.858615 0.782347 0.721705 0.154726
H117  H     H_    0.143708 0.236288 0.285949 0.200427
H118  H     H_    0.778937 0.141513 0.721648 0.186794
H119  H     H_    0.856320 0.763753 0.285914 0.199190
H120  H     H_    0.206070 0.286103 0.801212 0.200253
H121  H     H_    0.286027 0.794012 0.198796 0.200937
H122  H     H_    0.793986 0.713969 0.801196 0.202605
H123  H     H_    0.691191 0.213663 0.199126 0.210291
H124  H     H_    0.793903 0.286147 0.198797 0.201117
H125  H     H_    0.691277 0.786459 0.800880 0.211292
H126  H     H_    0.213517 0.691319 0.199114 0.210420
H127  H     H_    0.781709 0.124629 0.271245 0.158477
H128  H     H_    0.308755 0.213583 0.800884 0.208273
H129  H     H_    0.713581 0.808753 0.300884 0.208274
H130  H     H_    0.786150 0.293901 0.698797 0.201110
H131  H     H_    0.286461 0.191279 0.300880 0.211297
H132  H     H_    0.191318 0.713519 0.699114 0.210416
H133  H     H_    0.294010 0.786029 0.698797 0.200936
H134  H     H_    0.213971 0.293988 0.301196 0.202610
H135  H     H_    0.713666 0.191188 0.699126 0.210282
H136  H     H_    0.786100 0.706068 0.301212 0.200254
H137  H     H_    0.285987 0.363403 0.730083 0.148521
H138  H     H_    0.858696 0.217587 0.278227 0.154870
H139  H     H_    0.363457 0.713981 0.269876 0.148427
H140  H     H_    0.713958 0.636511 0.730131 0.147724
H141  H     H_    0.635184 0.273170 0.278836 0.139916
H142  H     H_    0.713995 0.363424 0.269923 0.147890
H143  H     H_    0.635097 0.726731 0.721236 0.139190
H144  H     H_    0.273251 0.635108 0.278758 0.139536
H145  H     H_    0.364808 0.273170 0.721186 0.140085
H146  H     H_    0.773171 0.864810 0.221187 0.140083
H147  H     H_    0.863422 0.213995 0.769925 0.147891
H148  H     H_    0.226731 0.135096 0.221237 0.139190
H149  H     H_    0.781637 0.875308 0.728675 0.158581
H150  H     H_    0.135109 0.773251 0.778759 0.139536
H151  H     H_    0.213982 0.863457 0.769877 0.148427
H152  H     H_    0.136511 0.213957 0.230132 0.147724
H153  H     H_    0.773169 0.135185 0.778838 0.139917
H154  H     H_    0.863403 0.785988 0.230084 0.148520
H155  H     H_    0.116848 0.506043 0.872554 0.196041
H156  H     H_    0.505841 0.883149 0.127440 0.196322
H157  H     H_    0.882852 0.488014 0.872092 0.196637
H158  H     H_    0.488261 0.117182 0.127913 0.196063
H159  H     H_    0.883144 0.505762 0.127440 0.196647
H160  H     H_    0.124679 0.781643 0.271321 0.158493
H161  H     H_    0.488047 0.882849 0.872091 0.196630
H162  H     H_    0.117186 0.488335 0.127912 0.196373
H163  H     H_    0.506008 0.116851 0.872554 0.196024
H164  H     H_    0.616861 0.005812 0.372556 0.196029
H165  H     H_    0.005849 0.383149 0.627440 0.196643
H166  H     H_    0.382828 0.988257 0.372092 0.196648
H167  H     H_    0.988244 0.617178 0.627913 0.196369
H168  H     H_    0.383185 0.006288 0.627435 0.196285
H169  H     H_    0.988135 0.382841 0.372093 0.196636
H170  H     H_    0.617146 0.987822 0.627921 0.196074
H171  H     H_    0.218283 0.124637 0.728742 0.158636
H172  H     H_    0.005921 0.616858 0.372554 0.196050
H173  H     H_    0.105654 0.213221 0.791958 0.247037
H174  H     H_    0.048213 0.246175 0.761175 0.248054
H175  H     H_    0.070533 0.152390 0.762202 0.243769
H176  H     H_    0.213151 0.894411 0.208121 0.247274
H177  H     H_    0.152334 0.929436 0.237909 0.243649
H178  H     H_    0.246103 0.951796 0.238923 0.247172
H179  H     H_    0.894434 0.786801 0.791851 0.247760
H180  H     H_    0.951808 0.753907 0.761030 0.247313
H181  H     H_    0.929410 0.847660 0.762064 0.243322
H182  H     H_    0.624638 0.718283 0.228741 0.158641
H183  H     H_    0.792863 0.138518 0.199909 0.255755
H184  H     H_    0.837631 0.074005 0.225468 0.239698
H185  H     H_    0.741654 0.069257 0.220083 0.226666
H186  H     H_    0.894383 0.213316 0.208062 0.247108
H187  H     H_    0.951806 0.246171 0.238867 0.248154
H188  H     H_    0.929442 0.152405 0.237807 0.243676
H189  H     H_    0.792943 0.861618 0.800015 0.255951
H190  H     H_    0.837639 0.926074 0.774402 0.239615
H191  H     H_    0.741678 0.930817 0.779834 0.226810
H192  H     H_    0.138295 0.792930 0.199979 0.255311
N1    N     N_R   0.999954 0.424518 0.984478 -0.066565
N2    N     N_R   0.052738 0.500237 0.515524 -0.153116
N3    N     N_R   0.499729 0.924541 0.484479 -0.066536
N4    N     N_R   0.924520 0.500202 0.515531 -0.066615
N5    N     N_R   0.500054 0.924548 0.515532 -0.066700
N6    N     N_R   0.052733 0.499768 0.484468 -0.153239
N7    N     N_R   0.500373 0.052765 0.515524 -0.153133
N8    N     N_R   0.924515 0.499884 0.484478 -0.066565
N9    N     N_R   0.424526 0.000256 0.015531 -0.066657
N10   N     N_R   0.999708 0.552736 0.984468 -0.153239
N11   N     N_R   0.552744 0.000190 0.015523 -0.153163
N12   N     N_R   0.000178 0.552741 0.015524 -0.153120
N13   N     N_R   0.424519 0.999937 0.984478 -0.066522
N14   N     N_R   0.000273 0.424523 0.015531 -0.066608
N15   N     N_R   0.552737 0.999720 0.984467 -0.153213
N16   N     N_R   0.499895 0.052759 0.484467 -0.153195
O1    O     O_3   1.000000 0.500000 0.750000 -0.472502
O2    O     O_R   0.561290 0.999980 0.680680 -0.644191
O3    O     O_R   0.000020 0.561290 0.319320 -0.645348
O4    O     O_R   0.438710 0.000020 0.680680 -0.644678
O5    O     O_R   0.500020 0.938710 0.180680 -0.644679
O6    O     O_R   0.938710 0.499980 0.819320 -0.640906
O7    O     O_R   0.499980 0.061290 0.180680 -0.644207
O8    O     O_R   0.061290 0.500020 0.819320 -0.645348
O9    O     O_R   0.499980 0.938710 0.819320 -0.640669
O10   O     O_R   0.061290 0.499980 0.180680 -0.641401
O11   O     O_R   0.500020 0.061290 0.819320 -0.645117
O12   O     O_3   0.500000 0.000000 0.250000 -0.471689
O13   O     O_R   0.938710 0.500020 0.180680 -0.641752
O14   O     O_R   0.086240 0.647480 0.731820 -0.650323
O15   O     O_R   0.647480 0.913760 0.268180 -0.647931
O16   O     O_R   0.913760 0.352520 0.731820 -0.655780
O17   O     O_R   0.352520 0.086240 0.268180 -0.650325
O18   O     O_R   0.913760 0.647480 0.268180 -0.652241
O19   O     O_R   0.352520 0.913760 0.731820 -0.652272
O20   O     O_R   0.086240 0.352520 0.268180 -0.654782
O21   O     O_R   0.647480 0.086240 0.731820 -0.646848
O22   O     O_R   0.586240 0.147480 0.231820 -0.646856
O23   O     O_3   1.000000 0.500000 0.250000 -0.472502
O24   O     O_R   0.147480 0.413760 0.768180 -0.652239
O25   O     O_R   0.413760 0.852520 0.231820 -0.652276
O26   O     O_R   0.852520 0.586240 0.768180 -0.654780
O27   O     O_R   0.413760 0.147480 0.768180 -0.647928
O28   O     O_R   0.852520 0.413760 0.231820 -0.655780
O29   O     O_R   0.586240 0.852520 0.768180 -0.650322
O30   O     O_R   0.147480 0.586240 0.231820 -0.650325
O31   O     O_R   0.852520 0.413810 0.768170 -0.645796
O32   O     O_R   0.413810 0.147480 0.231830 -0.649808
O33   O     O_R   0.147480 0.586190 0.768170 -0.649149
O34   O     O_3   0.500000 0.000000 0.750000 -0.471691
O35   O     O_R   0.586190 0.852520 0.231830 -0.649640
O36   O     O_R   0.147480 0.413810 0.231830 -0.646065
O37   O     O_R   0.586190 0.147480 0.768170 -0.650011
O38   O     O_R   0.852520 0.586190 0.231830 -0.645764
O39   O     O_R   0.413810 0.852520 0.768170 -0.646450
O40   O     O_R   0.352520 0.913810 0.268170 -0.646448
O41   O     O_R   0.913810 0.647480 0.731830 -0.646066
O42   O     O_R   0.647480 0.086190 0.268170 -0.650006
O43   O     O_R   0.086190 0.352520 0.731830 -0.645766
O44   O     O_R   0.647480 0.913810 0.731830 -0.649810
O45   O     O_R   0.000020 0.438710 0.680680 -0.641755
O46   O     O_R   0.086190 0.647480 0.268170 -0.649146
O47   O     O_R   0.352520 0.086190 0.731830 -0.649649
O48   O     O_R   0.913810 0.352520 0.268170 -0.645795
O49   O     O_2   0.191278 0.529794 0.920914 -0.613942
O50   O     O_R   0.149335 0.469615 0.963490 -0.776448
O51   O     O_2   0.529420 0.808675 0.079080 -0.610119
O52   O     O_R   0.469363 0.850758 0.036502 -0.775857
O53   O     O_2   0.804687 0.501378 0.920121 -0.610254
O54   O     O_R   0.853548 0.446404 0.962615 -0.772960
O55   O     O_2   0.501816 0.195329 0.079885 -0.613537
O56   O     O_R   0.438710 0.999980 0.319320 -0.640680
O57   O     O_R   0.446718 0.146600 0.037397 -0.773691
O58   O     O_2   0.808661 0.529317 0.079078 -0.610263
O59   O     O_R   0.850772 0.469258 0.036506 -0.775848
O60   O     O_2   0.501429 0.804687 0.920121 -0.610203
O61   O     O_R   0.446439 0.853534 0.962614 -0.772949
O62   O     O_2   0.195327 0.501902 0.079886 -0.613839
O63   O     O_R   0.146618 0.446808 0.037393 -0.773613
O64   O     O_2   0.529739 0.191289 0.920913 -0.613896
O65   O     O_R   0.469580 0.149327 0.963491 -0.776446
O66   O     O_2   0.691338 0.029413 0.420917 -0.613887
O67   O     O_R   0.999980 0.561290 0.680680 -0.641397
O68   O     O_R   0.649265 0.969319 0.463492 -0.776458
O69   O     O_2   0.029464 0.308685 0.579078 -0.610258
O70   O     O_R   0.969377 0.350749 0.536505 -0.775855
O71   O     O_2   0.304687 0.001800 0.420115 -0.610217
O72   O     O_R   0.353424 0.946762 0.462620 -0.772940
O73   O     O_2   0.001742 0.695330 0.579886 -0.613832
O74   O     O_R   0.946684 0.646576 0.537394 -0.773619
O75   O     O_2   0.308823 0.030182 0.579069 -0.610129
O76   O     O_R   0.350685 0.969960 0.536494 -0.775878
O77   O     O_2   0.001593 0.304696 0.420126 -0.610250
O78   O     O_R   0.561290 0.000020 0.319320 -0.645113
O79   O     O_R   0.946542 0.353498 0.462614 -0.772960
O80   O     O_2   0.695375 0.001025 0.579913 -0.613552
O81   O     O_R   0.646438 0.946278 0.537387 -0.773714
O82   O     O_2   0.029583 0.691318 0.420912 -0.613940
O83   O     O_R   0.969452 0.649311 0.463488 -0.776449
O84   O     O_R   0.999980 0.438710 0.319320 -0.640910
Zn1   Zn    Zn3+2 0.087550 0.500010 0.775970 0.953221
Zn2   Zn    Zn3+2 0.000010 0.412450 0.724030 0.952932
Zn3   Zn    Zn3+2 0.412450 0.999990 0.275970 0.954829
Zn4   Zn    Zn3+2 0.999990 0.587550 0.724030 0.954037
Zn5   Zn    Zn3+2 0.412450 0.000010 0.724030 0.953993
Zn6   Zn    Zn3+2 0.999990 0.412450 0.275970 0.953303
Zn7   Zn    Zn3+2 0.587550 0.999990 0.724030 0.955134
Zn8   Zn    Zn3+2 0.000010 0.587550 0.275970 0.953224
Zn9   Zn    Zn3+2 0.500010 0.912450 0.224030 0.954003
Zn10  Zn    Zn3+2 0.912450 0.499990 0.775970 0.953304
Zn11  Zn    Zn3+2 0.499990 0.087550 0.224030 0.955123
Zn12  Zn    Zn3+2 0.912450 0.500010 0.224030 0.952936
Zn13  Zn    Zn3+2 0.499990 0.912450 0.775970 0.954831
Zn14  Zn    Zn3+2 0.087550 0.499990 0.224030 0.954035
Zn15  Zn    Zn3+2 0.500010 0.087550 0.775970 0.954657
Zn16  Zn    Zn3+2 0.587550 0.000010 0.275970 0.954662

loop_
_geom_bond_atom_site_label_1
_geom_bond_atom_site_label_2
_ccdc_geom_bond_type
O23   Zn6   S    
C131  H116  S    
O10   Zn14  S    
C103  O80   D    
C8    C26   A    
C32   C45   A    
C30   C45   A    
C99   O74   S    
C4    C177  S    
C179  H118  S    
C140  H13   S    
C150  C185  S    
C142  H35   S    
C8    H155  S    
C58   C134  S    
C126  O29   A    
C101  N3    A    
C11   H158  S    
C67   H28   S    
C34   C96   S    
C73   H47   S    
C4    C142  S    
O34   Zn7   S    
H96   O68   S    
C1    C46   S    
C5    C143  S    
H88   O52   S    
C8    C182  A    
C167  C185  S    
C76   C153  S    
C107  N12   A    
C115  O38   A    
C69   C145  S    
C53   H178  S    
C86   H85   S    
C93   O60   D    
H89   O54   S    
C19   C37   A    
O43   Zn2   S    
C110  N9    A    
C165  H121  S    
C94   O63   S    
O6    Zn10  S    
C3    C158  S    
C36   C97   S    
C62   C139  S    
C22   H169  S    
C89   O53   D    
O84   Zn6   S    
C169  H125  S    
C174  C191  S    
O27   Zn15  S    
C149  O6    A    
C50   C79   S    
C85   C162  S    
C132  H127  S    
C64   H18   S    
C76   H56   S    
C134  H149  S    
C52   H173  S    
C152  C187  S    
C124  C189  S    
C161  H152  S    
C125  O48   A    
C81   H67   S    
C123  O26   A    
C127  O2    A    
C2    C138  S    
C173  H111  S    
C15   C32   A    
C166  C184  S    
C169  C187  S    
C54   H181  S    
O14   Zn4   S    
C66   C143  S    
C59   H3    S    
O22   Zn11  S    
C7    C163  S    
C168  H107  S    
C25   H172  S    
C54   H180  S    
C177  H115  S    
C5    C161  S    
C98   O71   D    
C65   H21   S    
C66   H27   S    
O19   Zn5   S    
C131  C184  S    
C146  C154  S    
C93   O61   S    
C176  H114  S    
C20   H167  S    
C177  H133  S    
C179  H135  S    
C68   C116  S    
C56   H188  S    
N7    N16   A    
C154  C189  S    
C63   H16   S    
C29   C44   A    
C158  C159  S    
C33   C47   A    
C178  H117  S    
C159  H151  S    
C17   C34   A    
C29   C91   S    
C157  H148  S    
O8    Zn1   S    
C125  O28   A    
C119  O21   A    
C126  C187  S    
C80   H64   S    
C146  C181  S    
C21   H168  S    
C165  H90   S    
C70   H34   S    
C70   H36   S    
C170  H109  S    
O34   Zn5   S    
H97   O70   S    
C49   C106  S    
O36   Zn14  S    
O47   Zn5   S    
C23   C41   A    
C172  C189  S    
H104  O83   S    
C58   H191  S    
C97   O69   D    
O33   Zn1   S    
C88   O51   D    
C48   C101  S    
C108  N13   A    
C82   H73   S    
C55   H184  S    
C74   H48   S    
C78   C155  S    
C74   H50   S    
C3    C176  S    
C55   C132  S    
C149  O8    A    
C71   H39   S    
C64   H20   S    
C19   C35   A    
C80   H65   S    
C52   H175  S    
C59   H192  S    
C62   H14   S    
C155  H146  S    
C84   C161  S    
C18   H165  S    
C166  H101  S    
C71   C147  S    
C144  H57   S    
C81   H69   S    
C73   C150  S    
C3    C141  S    
C140  C143  S    
C14   C31   A    
C122  O25   A    
C54   H179  S    
H100  O76   S    
C178  H134  S    
O38   Zn12  S    
C85   H82   S    
C73   H45   S    
C84   H77   S    
C78   H63   S    
C53   H176  S    
C65   H23   S    
C66   H25   S    
C130  C183  S    
C51   C90   S    
C82   C158  S    
C64   C141  S    
C15   H162  S    
C104  O83   S    
C14   C24   A    
C67   H29   S    
C73   H44   S    
C164  C181  S    
C27   C44   A    
C26   C87   S    
C120  O42   A    
C117  O39   A    
C16   H163  S    
C28   C89   S    
C168  H124  S    
O56   Zn3   S    
C154  H145  S    
C79   N7    A    
C60   C136  S    
C148  C184  S    
O26   Zn10  S    
O42   Zn16  S    
C173  H129  S    
C124  O27   A    
C147  C153  S    
C2    C11   A    
C37   C98   S    
C174  H130  S    
C168  C186  S    
O67   Zn4   S    
C58   H189  S    
C30   C92   S    
C175  C192  S    
O78   Zn16  S    
N1    N14   A    
C155  C163  S    
C166  H122  S    
C108  N15   A    
C72   C148  S    
C69   H31   S    
H102  O79   S    
C35   C105  S    
C112  O15   A    
C61   H10   S    
C170  H126  S    
H95   O65   S    
C180  H119  S    
O23   Zn14  S    
C118  O20   A    
C120  O22   A    
C77   H60   S    
C117  O19   A    
C137  H182  S    
C62   H12   S    
C122  C183  S    
O1    Zn4   S    
C82   H72   S    
O16   Zn2   S    
C74   C151  S    
C164  C172  S    
C6    C144  S    
C160  O9    A    
C160  O11   A    
H99   O74   S    
O15   Zn16  S    
O34   Zn15  S    
C23   C57   A    
C110  N11   A    
C78   H61   S    
C164  H79   S    
C105  O56   A    
C148  C152  S    
C100  O75   D    
N3    N5    A    
C132  C185  S    
C57   C127  S    
C164  H120  S    
C60   H6    S    
C40   C51   A    
C152  H143  S    
C136  C189  S    
C91   O55   D    
C122  O40   A    
C70   H37   S    
O12   Zn3   S    
H94   O63   S    
H87   O50   S    
C19   H166  S    
C85   H81   S    
C7    C180  S    
C146  H137  S    
C86   H86   S    
C4    C117  S    
C5    C178  S    
C112  C190  S    
C137  C190  S    
C136  H171  S    
O29   Zn13  S    
C13   C171  S    
O32   Zn11  S    
C12   C13   A    
C47   C108  S    
C170  C188  S    
C150  C151  S    
C63   H15   S    
C43   C109  S    
C2    C9    A    
C20   C46   A    
C45   C107  S    
C77   H58   S    
O9    Zn13  S    
C151  C186  S    
C90   N8    A    
C6    C119  S    
C130  C135  S    
C52   H174  S    
O1    Zn2   S    
C131  C134  S    
C120  C185  S    
C162  H153  S    
C38   C49   A    
C107  N14   A    
C91   O57   S    
C92   O59   S    
C112  O35   A    
C52   C129  S    
C137  C145  S    
C83   H76   S    
C139  C191  S    
C4    C159  S    
C163  H154  S    
C173  C190  S    
H93   O61   S    
C72   H41   S    
C14   H161  S    
C95   O64   D    
C98   O72   S    
N9    N13   A    
C75   H52   S    
O17   Zn3   S    
C87   O50   S    
C3    C111  S    
O5    Zn9   S    
C104  O82   D    
C138  O7    A    
C103  O81   S    
C153  H144  S    
O34   Zn13  S    
C115  O18   A    
C31   C47   A    
C135  H160  S    
N2    N6    A    
C25   C68   A    
C63   H17   S    
C67   C144  S    
C18   C46   A    
C141  H24   S    
C175  C178  S    
C128  O46   A    
C113  O16   A    
C17   H164  S    
C81   C157  S    
C99   O73   D    
C148  H140  S    
C167  C168  S    
C111  O33   A    
C173  C180  S    
C85   H83   S    
C86   H84   S    
C123  C184  S    
C155  C190  S    
C158  H150  S    
C88   O52   S    
C94   O62   D    
O1    Zn10  S    
C6    C179  S    
C106  N4    A    
C89   O54   S    
C22   C68   A    
C156  C191  S    
N10   N12   A    
C60   H5    S    
C116  O84   A    
C111  O14   A    
O21   Zn7   S    
C167  H106  S    
C90   N6    A    
C76   H55   S    
C80   H66   S    
C105  O78   A    
O31   Zn10  S    
C157  C161  S    
C41   C50   A    
C9    C27   A    
C121  C181  S    
C10   C28   A    
C165  C170  S    
O41   Zn4   S    
O1    Zn1   S    
O2    Zn7   S    
C12   C30   A    
C128  C188  S    
C134  C187  S    
C83   H74   S    
O40   Zn3   S    
C38   C99   S    
C69   H33   S    
C25   C42   A    
O48   Zn6   S    
C153  C188  S    
O12   Zn9   S    
C5    C118  S    
C28   C43   A    
C72   H43   S    
C84   H78   S    
C113  O31   A    
C167  H123  S    
C114  O32   A    
O45   Zn2   S    
C157  C192  S    
C65   H22   S    
C66   H26   S    
C176  H132  S    
C61   C137  S    
C9    H156  S    
C59   C135  S    
C138  O5    A    
C169  H108  S    
C40   C102  S    
C56   H187  S    
C102  O77   D    
C114  O17   A    
C17   C35   A    
C18   C36   A    
C36   C49   A    
C150  H141  S    
C118  O36   A    
C109  N10   A    
C123  O41   A    
C165  C183  S    
C32   C94   S    
C121  O43   A    
C171  O10   A    
C63   C140  S    
C147  H139  S    
C56   C133  S    
C56   H186  S    
C54   C131  S    
C96   O68   S    
C58   H190  S    
C97   O70   S    
C151  H142  S    
C109  N1    A    
O46   Zn8   S    
C59   H4    S    
C92   O58   D    
O4    Zn5   S    
C7    C115  S    
C106  N2    A    
C121  O24   A    
O12   Zn16  S    
C60   H7    S    
C61   H9    S    
O24   Zn1   S    
C74   H49   S    
N11   N15   A    
C6    C162  S    
C53   H177  S    
C132  C133  S    
C116  O3    A    
C71   H40   S    
C64   H19   S    
C77   H59   S    
C42   C104  S    
C75   H53   S    
C139  H2    S    
C42   C51   A    
O18   Zn8   S    
O3    Zn8   S    
C126  O44   A    
C156  C162  S    
C81   H70   S    
C175  H113  S    
O25   Zn9   S    
C172  H128  S    
C145  H68   S    
C143  H46   S    
C79   N5    A    
C33   C95   S    
C61   H8    S    
C26   C43   A    
C80   C156  S    
O12   Zn11  S    
O23   Zn8   S    
C113  C191  S    
C114  C192  S    
C84   H80   S    
C130  H105  S    
O20   Zn6   S    
C78   H62   S    
C75   H51   S    
C100  O76   S    
C133  H138  S    
C55   H183  S    
C31   C93   S    
C124  O47   A    
C41   C103  S    
C125  C186  S    
C171  O13   A    
C1    O45   A    
C67   H30   S    
C55   H185  S    
C21   C57   A    
C77   C154  S    
C1    O67   A    
C129  C136  S    
C20   C38   A    
C139  C144  S    
O13   Zn12  S    
C21   C39   A    
C75   C152  S    
N4    N8    A    
C22   C40   A    
C83   C159  S    
C156  H147  S    
C87   O49   D    
O44   Zn7   S    
C133  C186  S    
C70   C146  S    
O28   Zn12  S    
C175  H131  S    
C176  C177  S    
C172  H110  S    
C13   C15   A    
C140  C192  S    
C101  N16   A    
C174  H112  S    
C135  C188  S    
C119  O37   A    
C147  C183  S    
C129  C181  S    
O23   Zn12  S    
C37   C48   A    
H91   O57   S    
H92   O59   S    
C128  O30   A    
C76   H54   S    
C86   C163  S    
C129  H1    S    
C24   C160  S    
C12   H159  S    
C180  H136  S    
O7    Zn11  S    
C127  O4    A    
C69   H32   S    
C83   H75   S    
O35   Zn9   S    
C16   C33   A    
H98   O72   S    
C141  C142  S    
C65   C142  S    
C23   H170  S    
C39   C100  S    
C149  C182  S    
C10   C182  A    
C71   H38   S    
C72   H42   S    
C102  O79   S    
C27   C88   S    
C62   H11   S    
H103  O81   S    
C96   O66   D    
O30   Zn14  S    
C95   O65   S    
C39   C50   A    
C34   C48   A    
C11   C29   A    
C166  C169  S    
C16   C24   A    
C82   H71   S    
C53   C130  S    
O39   Zn13  S    
C10   H157  S    
C7    C145  S    
C174  C179  S    
O37   Zn15  S    
O11   Zn15  S    
C44   C110  S    
