data_mof_unit_51657.cif
_audit_creation_date              2013-03-05T15:41:55-0500
_audit_creation_method            fapswitch 2.2
_symmetry_space_group_name_H-M    P1
_symmetry_Int_Tables_number       1
_space_group_crystal_system       triclinic
_cell_length_a                    25.159893
_cell_length_b                    16.861596
_cell_length_c                    15.664291
_cell_angle_alpha                 90.12962
_cell_angle_beta                  49.354492
_cell_angle_gamma                 90.135295
_cell_volume                      5042.17483426

loop_
_atom_site_label
_atom_site_type_symbol
_atom_site_description
_atom_site_fract_x
_atom_site_fract_y
_atom_site_fract_z
_atom_type_partial_charge
C1    C     C_R   0.359419 0.152604 0.741694 -0.173002
C2    C     C_R   0.666539 0.889752 0.195519 -0.030264
C3    C     C_R   0.646982 0.147466 0.243007 -0.129754
C4    C     C_R   0.349753 0.856068 0.764098 -0.126949
C5    C     C_R   0.853433 0.647633 0.756349 -0.147293
C6    C     C_R   0.167519 0.394159 0.192739 -0.022811
C7    C     C_R   0.163419 0.620437 0.203524 -0.105966
C8    C     C_R   0.832993 0.393037 0.806595 -0.022626
H1    H     H_    0.318674 0.173763 0.743371 0.167948
H2    H     H_    0.719161 0.894168 0.164556 0.168140
H3    H     H_    0.693793 0.164343 0.227021 0.210970
H4    H     H_    0.299683 0.843817 0.788762 0.213965
H5    H     H_    0.806515 0.664385 0.772540 0.192606
H6    H     H_    0.219971 0.401472 0.161729 0.144830
H7    H     H_    0.215879 0.622840 0.173534 0.178906
H8    H     H_    0.780342 0.399303 0.838347 0.142415
N1    N     N_R   0.389620 0.081040 0.705440 -0.051775
N2    N     N_R   0.610380 0.918960 0.294560 -0.060962
N3    N     N_R   0.610380 0.081040 0.294560 -0.060255
N4    N     N_R   0.389620 0.918960 0.705440 -0.064517
N5    N     N_R   0.889620 0.581040 0.705440 -0.054004
N6    N     N_R   0.110380 0.418960 0.294560 -0.062752
N7    N     N_R   0.110380 0.581040 0.294560 -0.053087
N8    N     N_R   0.889620 0.418960 0.705440 -0.061314
C9    C     C_R   0.615522 0.106649 0.591828 0.185731
C10   C     C_R   0.408549 0.853442 0.408288 0.264256
C11   C     C_R   0.384392 0.103661 0.407724 0.193372
C12   C     C_R   0.613418 0.884462 0.589945 0.167083
C13   C     C_R   0.117445 0.597798 0.591104 0.213098
C14   C     C_R   0.914623 0.349790 0.406983 0.253408
C15   C     C_R   0.882927 0.597148 0.408420 0.201594
C16   C     C_R   0.086957 0.350991 0.593068 0.241057
N9    N     N_R   0.582320 0.079840 0.556630 -0.126595
N10   N     N_R   0.417680 0.920160 0.443370 -0.116249
N11   N     N_R   0.417680 0.079840 0.443370 -0.119567
N12   N     N_R   0.582320 0.920160 0.556630 -0.122201
N13   N     N_R   0.082320 0.579840 0.556630 -0.122211
N14   N     N_R   0.917680 0.420160 0.443370 -0.116887
N15   N     N_R   0.917680 0.579840 0.443370 -0.111219
N16   N     N_R   0.082320 0.420160 0.556630 -0.120470
C17   C     C_R   0.688247 0.111013 0.406861 0.507972
C18   C     C_R   0.327930 0.860239 0.594079 0.486437
C19   C     C_R   0.310053 0.106414 0.593555 0.490536
C20   C     C_R   0.684918 0.879941 0.403219 0.511929
C21   C     C_R   0.190653 0.600611 0.406184 0.560901
C22   C     C_R   0.838665 0.350808 0.591741 0.535425
C23   C     C_R   0.809056 0.598622 0.592958 0.495297
C24   C     C_R   0.162438 0.351667 0.407813 0.537578
N17   N     N_R   0.627920 0.078930 0.443400 -0.132138
N18   N     N_R   0.372080 0.921070 0.556600 -0.134136
N19   N     N_R   0.372080 0.078930 0.556600 -0.131950
N20   N     N_R   0.627920 0.921070 0.443400 -0.121512
N21   N     N_R   0.127920 0.578930 0.443400 -0.116793
N22   N     N_R   0.872080 0.421070 0.556600 -0.142684
N23   N     N_R   0.872080 0.578930 0.556600 -0.119599
N24   N     N_R   0.127920 0.421070 0.443400 -0.143104
C25   C     C_R   0.557587 0.144678 0.245282 0.037062
C26   C     C_R   0.441889 0.854286 0.753853 0.061892
C27   C     C_R   0.445697 0.148719 0.745305 0.063807
C28   C     C_R   0.579282 0.894315 0.194376 0.057528
C29   C     C_R   0.074594 0.618906 0.204644 -0.031508
C30   C     C_R   0.920576 0.395997 0.806365 0.056606
C31   C     C_R   0.942214 0.644357 0.755785 0.024988
C32   C     C_R   0.080382 0.398029 0.192129 0.063253
H9    H     H_    0.520053 0.162338 0.236914 0.156665
H10   H     H_    0.480830 0.832009 0.755989 0.149728
H11   H     H_    0.484263 0.169254 0.749637 0.160052
H12   H     H_    0.553760 0.903135 0.160445 0.202904
H13   H     H_    0.045835 0.622416 0.175837 0.193658
H14   H     H_    0.946913 0.404873 0.838945 0.211941
H15   H     H_    0.979115 0.660871 0.766141 0.170977
H16   H     H_    0.054382 0.407864 0.159098 0.202018
N25   N     N_R   0.555090 0.077730 0.294590 -0.049598
N26   N     N_R   0.444910 0.922270 0.705410 -0.043367
N27   N     N_R   0.444910 0.077730 0.705410 -0.036829
N28   N     N_R   0.555090 0.922270 0.294590 -0.074793
N29   N     N_R   0.055090 0.577730 0.294590 -0.053423
N30   N     N_R   0.944910 0.422270 0.705410 -0.074125
N31   N     N_R   0.944910 0.577730 0.705410 -0.048402
N32   N     N_R   0.055090 0.422270 0.294590 -0.075135
C33   C     C_R   0.392318 0.196096 0.770210 -0.084682
C34   C     C_R   0.648574 0.873151 0.130854 -0.097097
C35   C     C_R   0.614325 0.189594 0.212698 -0.083175
C36   C     C_R   0.382900 0.812169 0.791488 -0.088848
C37   C     C_R   0.885954 0.689655 0.787263 -0.076153
C38   C     C_R   0.150345 0.379364 0.126711 -0.104594
C39   C     C_R   0.142823 0.643922 0.144559 -0.066983
C40   C     C_R   0.850842 0.376742 0.871236 -0.106832
C41   C     C_R   0.681815 0.129461 0.498140 -0.213036
C42   C     C_R   0.353349 0.813100 0.502395 -0.234607
C43   C     C_R   0.317082 0.124060 0.501296 -0.207765
C44   C     C_R   0.675221 0.854040 0.495476 -0.209367
C45   C     C_R   0.186316 0.611938 0.496922 -0.248430
C46   C     C_R   0.865260 0.303695 0.499313 -0.207167
C47   C     C_R   0.815167 0.613102 0.501468 -0.188809
C48   C     C_R   0.136670 0.305066 0.500266 -0.209804
Ni1   Ni    Ni4+2 0.382970 1.000000 0.629840 0.207748
Ni2   Ni    Ni4+2 0.617030 1.000000 0.370160 0.201348
Ni3   Ni    Ni4+2 0.882970 0.500000 0.629840 0.199276
Ni4   Ni    Ni4+2 0.117030 0.500000 0.370160 0.198012
Ni5   Ni    Ni4+2 0.514540 1.000000 0.629840 0.321030
Ni6   Ni    Ni4+2 0.485460 1.000000 0.370160 0.291691
Ni7   Ni    Ni4+2 0.014540 0.500000 0.629840 0.294500
Ni8   Ni    Ni4+2 0.985460 0.500000 0.370160 0.285874
C49   C     C_3   0.286977 0.229474 0.420037 -0.168678
C50   C     C_3   0.677753 0.735661 0.601405 -0.091193
C51   C     C_3   0.713913 0.231653 0.580235 -0.165777
C52   C     C_3   0.341412 0.670910 0.438356 -0.185667
C53   C     C_3   0.806065 0.725194 0.398452 -0.158834
C54   C     C_3   0.155584 0.178454 0.584183 -0.133656
C55   C     C_3   0.212634 0.731619 0.557000 -0.173905
C56   C     C_3   0.844514 0.180123 0.412690 -0.139857
C57   C     C_3   0.777388 0.798200 0.475826 -0.219506
C58   C     C_3   0.216493 0.126908 0.485402 -0.170302
C59   C     C_3   0.279827 0.770415 0.453315 -0.160513
C60   C     C_3   0.783512 0.128253 0.510601 -0.166032
C61   C     C_3   0.227078 0.279927 0.518394 -0.224468
C62   C     C_3   0.706662 0.661921 0.524224 -0.165898
C63   C     C_3   0.773915 0.282455 0.482687 -0.217789
C64   C     C_3   0.273118 0.630854 0.542013 -0.159470
H17   H     H_    0.805098 0.855374 0.457019 0.150308
H18   H     H_    0.213464 0.062902 0.472228 0.157194
H19   H     H_    0.282496 0.828646 0.417672 0.170501
H20   H     H_    0.786071 0.063737 0.521562 0.165902
H21   H     H_    0.231292 0.343606 0.531665 0.162492
H22   H     H_    0.679227 0.604421 0.544022 0.153012
H23   H     H_    0.770114 0.346647 0.471491 0.166309
H24   H     H_    0.269905 0.572093 0.576944 0.173576
H25   H     H_    0.341610 0.250400 0.353512 0.152658
H26   H     H_    0.624270 0.740711 0.684628 0.174114
H27   H     H_    0.659554 0.252714 0.648089 0.160817
H28   H     H_    0.395047 0.646934 0.390930 0.181364
H29   H     H_    0.859526 0.721611 0.314960 0.167193
H30   H     H_    0.101659 0.155466 0.649575 0.188830
H31   H     H_    0.158964 0.756115 0.605757 0.149394
H32   H     H_    0.897956 0.156566 0.345877 0.191671
C65   C     C_3   0.709272 0.787798 0.498178 0.172718
C66   C     C_3   0.264518 0.162684 0.503488 0.206482
C67   C     C_3   0.314784 0.750023 0.501589 0.169305
C68   C     C_3   0.735119 0.166589 0.495163 0.201247
C69   C     C_3   0.178584 0.245401 0.500225 0.169099
C70   C     C_3   0.775103 0.672846 0.501143 0.190540
C71   C     C_3   0.822810 0.245395 0.498370 0.167948
C72   C     C_3   0.238053 0.652651 0.493988 0.196985
C73   C     C_3   0.238204 0.194790 0.401648 -0.009006
C74   C     C_3   0.746919 0.745589 0.578470 -0.002370
C75   C     C_3   0.763068 0.194455 0.596024 -0.005602
C76   C     C_3   0.305618 0.691097 0.390008 -0.005388
C77   C     C_3   0.736810 0.715125 0.421373 -0.071587
C78   C     C_3   0.204543 0.213037 0.602275 -0.003415
C79   C     C_3   0.247997 0.711002 0.605326 -0.009632
C80   C     C_3   0.795138 0.217185 0.397220 -0.012449
H33   H     H_    0.250563 0.185945 0.320141 0.188927
H34   H     H_    0.751699 0.759526 0.642487 0.199198
H35   H     H_    0.751360 0.183948 0.676710 0.188210
H36   H     H_    0.332303 0.684091 0.299732 0.206630
H37   H     H_    0.731270 0.703203 0.357794 0.185208
H38   H     H_    0.189746 0.223284 0.685332 0.217749
H39   H     H_    0.224757 0.718602 0.694074 0.199099
H40   H     H_    0.808892 0.228720 0.315202 0.214140
H41   H     H_    0.299288 0.709861 0.803461 0.143262
H42   H     H_    0.693506 0.297389 0.205224 0.155444
H43   H     H_    0.785694 0.897666 0.979374 0.143651
H44   H     H_    0.302727 0.297461 0.795525 0.172798
H45   H     H_    0.713965 0.399234 0.022250 0.169913
H46   H     H_    0.274012 0.602754 0.984022 0.166673
H47   H     H_    0.289328 0.394955 0.977874 0.150426
H48   H     H_    0.808585 0.797574 0.792896 0.177560
C81   C     C_2   0.637882 0.265707 0.151757 0.335587
C82   C     C_2   0.358041 0.736439 0.852915 0.339839
C83   C     C_2   0.368388 0.272700 0.831200 0.343777
C84   C     C_2   0.696373 0.850318 0.010998 0.338769
C85   C     C_2   0.189912 0.673350 0.028710 0.353049
C86   C     C_2   0.802887 0.351143 0.989806 0.342525
C87   C     C_2   0.859857 0.763872 0.852572 0.344807
C88   C     C_2   0.198667 0.359199 0.005379 0.319239
C89   C     C_2   0.682745 0.311170 0.150101 -0.192236
C90   C     C_2   0.310750 0.694301 0.857257 -0.193031
C91   C     C_2   0.317012 0.313317 0.845189 -0.233756
C92   C     C_2   0.765864 0.862347 0.947438 -0.170754
C93   C     C_2   0.257102 0.649029 0.958360 -0.248302
C94   C     C_2   0.733364 0.361954 0.052853 -0.229498
C95   C     C_2   0.815877 0.809476 0.852698 -0.258727
C96   C     C_2   0.268656 0.364949 0.943703 -0.191495
N33   N     N_R   0.593388 0.090328 0.701194 0.261287
O1    O     O_R   0.529347 0.069244 0.784378 -0.318058
O2    O     O_R   0.638558 0.087717 0.715913 -0.338723
N34   N     N_R   0.435436 0.839678 0.296386 0.228614
O3    O     O_R   0.424480 0.891477 0.248026 -0.309386
O4    O     O_R   0.461373 0.770825 0.249335 -0.367536
N35   N     N_R   0.407638 0.083300 0.298755 0.257013
O5    O     O_R   0.466675 0.046191 0.226503 -0.350083
O6    O     O_R   0.366804 0.091828 0.275794 -0.358140
N36   N     N_R   0.599891 0.901213 0.692751 0.258330
O7    O     O_R   0.537460 0.918176 0.785242 -0.295136
O8    O     O_R   0.651494 0.903055 0.693020 -0.329533
N37   N     N_R   0.091553 0.580109 0.702242 0.260528
O9    O     O_R   0.032894 0.541800 0.772642 -0.361592
O10   O     O_R   0.127281 0.598069 0.732760 -0.353615
N38   N     N_R   0.940264 0.335290 0.295944 0.234752
O11   O     O_R   0.915739 0.375888 0.257845 -0.294366
O12   O     O_R   0.977695 0.272464 0.241618 -0.369368
N39   N     N_R   0.902707 0.567378 0.305144 0.253131
O13   O     O_R   0.959940 0.526689 0.236505 -0.384039
O14   O     O_R   0.857901 0.567363 0.289413 -0.348134
N40   N     N_R   0.063640 0.339149 0.703138 0.232053
O15   O     O_R   0.081885 0.388859 0.743581 -0.301492
O16   O     O_R   0.028994 0.275475 0.759606 -0.377942
O17   O     O_3   0.747375 0.122928 0.296132 -0.630051
C97   C     C_3   0.776184 0.049320 0.244290 -0.179276
H49   H     H_    0.739338 0.013348 0.243805 0.131830
H50   H     H_    0.792731 0.017688 0.285670 0.116696
H51   H     H_    0.823718 0.059563 0.155381 0.205381
O18   O     O_3   0.259124 0.862017 0.693666 -0.634758
C98   C     C_3   0.218292 0.905407 0.677426 -0.182713
H52   H     H_    0.208136 0.871296 0.629435 0.138569
H53   H     H_    0.242771 0.962572 0.633132 0.124195
H54   H     H_    0.166483 0.917601 0.760707 0.189097
O19   O     O_3   0.247937 0.115623 0.704320 -0.648687
C99   C     C_3   0.235975 0.057308 0.779791 -0.121377
H55   H     H_    0.274295 0.008437 0.741208 0.140308
H56   H     H_    0.183420 0.031437 0.823720 0.172403
H57   H     H_    0.232798 0.085207 0.847064 0.170849
O20   O     O_3   0.730176 0.849549 0.295108 -0.633444
C100  C     C_3   0.801119 0.858324 0.244906 -0.142599
H58   H     H_    0.826804 0.799452 0.216881 0.207381
H59   H     H_    0.809987 0.886163 0.299150 0.080943
H60   H     H_    0.828203 0.894793 0.167843 0.166084
O21   O     O_3   0.244732 0.624392 0.297551 -0.617091
C101  C     C_3   0.284232 0.557180 0.234730 -0.279243
H61   H     H_    0.251764 0.514041 0.232309 0.124677
H62   H     H_    0.307709 0.529802 0.268047 0.135993
H63   H     H_    0.327969 0.575784 0.146917 0.235921
O22   O     O_3   0.785413 0.329068 0.702092 -0.627737
C102  C     C_3   0.720347 0.357551 0.740147 -0.192606
H64   H     H_    0.684134 0.306781 0.769538 0.203743
H65   H     H_    0.722540 0.391007 0.676503 0.089297
H66   H     H_    0.696200 0.395234 0.815270 0.167053
O23   O     O_3   0.753578 0.622467 0.701141 -0.633124
C103  C     C_3   0.721420 0.555238 0.769710 -0.183403
H67   H     H_    0.759429 0.517242 0.764739 0.112529
H68   H     H_    0.693627 0.521797 0.747866 0.136941
H69   H     H_    0.681528 0.574996 0.858351 0.209037
O24   O     O_3   0.216324 0.330996 0.297159 -0.621085
C104  C     C_3   0.281012 0.359228 0.261401 -0.171381
H70   H     H_    0.316307 0.308324 0.235900 0.195691
H71   H     H_    0.277642 0.394787 0.324973 0.078240
H72   H     H_    0.307159 0.394926 0.184094 0.169855
N41   N     N_R   0.376405 0.715078 0.919930 0.241871
O25   O     O_R   0.387112 0.769821 0.965948 -0.322032
O26   O     O_R   0.388864 0.641462 0.926398 -0.412982
N42   N     N_R   0.620321 0.284488 0.083007 0.238310
O27   O     O_R   0.617317 0.228640 0.028801 -0.350677
O28   O     O_R   0.600011 0.355665 0.084109 -0.412063
N43   N     N_R   0.668543 0.807330 0.968049 0.248029
O29   O     O_R   0.616535 0.758360 0.032807 -0.323202
O30   O     O_R   0.688643 0.824739 0.869919 -0.352364
N44   N     N_R   0.389916 0.293558 0.893639 0.241932
O31   O     O_R   0.454468 0.314447 0.840336 -0.395555
O32   O     O_R   0.348694 0.279188 0.001056 -0.373153
N45   N     N_R   0.830262 0.303607 0.029466 0.251679
O33   O     O_R   0.875849 0.333671 0.034411 -0.300952
O34   O     O_R   0.817769 0.227771 0.044429 -0.379581
N46   N     N_R   0.165518 0.733666 0.996997 0.243200
O35   O     O_R   0.114469 0.718257 0.997942 -0.359431
O36   O     O_R   0.185312 0.806790 0.987315 -0.388422
N47   N     N_R   0.170159 0.325142 0.958281 0.247160
O37   O     O_R   0.118888 0.274431 0.016042 -0.306069
O38   O     O_R   0.189863 0.351486 0.863412 -0.359503
N48   N     N_R   0.871412 0.778269 0.929814 0.240197
O39   O     O_R   0.934779 0.788482 0.891989 -0.395476
O40   O     O_R   0.820266 0.769487 0.037373 -0.389796

loop_
_geom_bond_atom_site_label_1
_geom_bond_atom_site_label_2
_geom_bond_distance
_ccdc_geom_bond_type
N19   Ni1   1.892262 S    
C14   N38   1.427710 S    
N39   O13   1.297921 A    
C80   H40   1.108948 S    
C84   N43   1.441301 S    
C27   N27   1.355116 A    
C2    N2    1.337902 A    
N8    Ni3   1.887887 S    
C102  H65   1.116205 S    
C52   C64   1.552387 S    
C17   C41   1.365331 A    
O23   C103  1.400838 S    
C64   C72   1.531900 S    
C3    H3    1.070208 S    
C24   N24   1.343728 A    
C72   C76   1.534738 S    
N11   Ni6   1.868621 S    
C65   C77   1.529844 S    
O20   C100  1.413130 S    
C86   C94   1.348494 D    
C99   H56   1.107026 S    
C42   C67   1.443561 S    
N15   Ni8   1.868621 S    
C31   N31   1.347602 A    
C66   C78   1.533141 S    
C71   C75   1.530181 S    
N39   O14   1.301328 A    
C14   N14   1.338768 A    
N41   O25   1.301164 A    
N10   Ni6   1.866556 S    
C11   N35   1.439180 S    
C11   N11   1.336553 A    
C82   C90   1.347580 D    
N9    Ni5   1.866556 S    
H45   C94   1.082022 S    
C22   O22   1.378703 S    
C56   C71   1.533674 S    
C87   C95   1.347929 D    
C36   C82   1.471523 S    
C4    C36   1.377669 A    
C98   H53   1.110548 S    
N45   O33   1.300495 A    
N5    Ni3   1.883432 S    
N40   O16   1.300144 A    
C60   H20   1.110232 S    
N33   O2    1.299332 A    
C52   C76   1.546474 S    
C1    C33   1.378332 A    
C89   C94   1.465967 S    
C6    N6    1.340966 A    
C23   C47   1.360696 A    
C100  H60   1.108789 S    
C40   C86   1.474273 S    
O24   C104  1.413932 S    
C30   H14   1.077812 S    
C101  H63   1.108962 S    
N34   O4    1.300014 A    
C57   H17   1.110300 S    
C25   N25   1.347291 A    
C51   C68   1.527745 S    
N37   O10   1.298534 A    
C70   C74   1.533920 S    
C85   N46   1.435353 S    
N14   Ni8   1.866556 S    
C29   C39   1.379917 A    
C88   N47   1.440143 S    
C27   H11   1.072422 S    
C48   C69   1.458868 S    
C10   N34   1.427627 S    
C10   N10   1.334469 A    
N15   N23   1.345903 A    
N4    Ni1   1.887887 S    
C29   N29   1.345384 A    
N46   O35   1.300386 A    
N16   N24   1.345904 A    
N14   N22   1.345873 A    
C12   N36   1.439915 S    
C102  H64   1.107504 S    
C56   C80   1.545667 S    
C11   C43   1.378916 A    
C53   C70   1.531081 S    
C20   O20   1.383389 S    
C4    H4    1.069584 S    
C75   H35   1.109656 S    
C54   C58   1.552142 S    
C15   N39   1.437161 S    
C62   H22   1.109940 S    
N12   N20   1.345904 A    
C92   C95   1.465279 S    
C24   O24   1.379142 S    
C5    C37   1.384920 A    
N43   O30   1.301298 A    
C84   C92   1.349363 D    
C7    H7    1.075412 S    
N7    Ni4   1.887887 S    
N17   Ni2   1.887693 S    
C85   C93   1.347092 D    
C8    H8    1.074900 S    
C104  H70   1.106713 S    
C31   C37   1.387186 A    
C103  H68   1.110406 S    
C32   N32   1.347473 A    
N23   Ni3   1.892262 S    
N31   Ni7   1.868248 S    
C101  H61   1.111442 S    
H46   C93   1.084994 S    
C21   O21   1.375483 S    
C56   H32   1.108332 S    
C39   C85   1.464021 S    
C44   C65   1.426655 S    
C17   N17   1.337841 A    
C99   H55   1.102842 S    
C13   C45   1.380294 A    
N3    Ni2   1.887887 S    
C26   H10   1.070808 S    
O17   C97   1.399354 S    
C34   C84   1.475420 S    
N21   Ni4   1.887693 S    
N28   Ni6   1.868248 S    
C63   C71   1.536977 S    
C100  H59   1.112109 S    
C7    C39   1.380076 A    
C32   C38   1.378009 A    
N10   N18   1.345873 A    
H48   C95   1.083651 S    
C53   H29   1.109784 S    
N35   O5    1.299956 A    
C90   C93   1.458941 S    
N3    N25   1.391773 A    
C59   H19   1.110682 S    
C51   H27   1.110478 S    
C98   H54   1.108136 S    
O19   C99   1.412567 S    
N45   O34   1.300898 A    
C50   H26   1.110032 S    
O18   C98   1.414317 S    
N38   O11   1.299631 A    
C50   C65   1.532636 S    
C49   H25   1.110459 S    
C54   C78   1.545413 S    
C30   C40   1.375654 A    
C59   C76   1.533940 S    
C28   N28   1.345402 A    
C103  H69   1.109164 S    
C19   C43   1.370073 A    
C82   N41   1.442058 S    
C55   C79   1.538054 S    
N12   Ni5   1.868621 S    
C8    C40   1.377194 A    
C79   H39   1.109725 S    
C57   C74   1.535353 S    
C62   C77   1.545021 S    
C61   C69   1.535196 S    
C98   H52   1.099457 S    
N35   O6    1.299194 A    
C57   C65   1.519063 S    
O21   C101  1.402360 S    
C18   O18   1.383177 S    
C26   C36   1.382635 A    
C6    H6    1.075718 S    
C43   C66   1.455712 S    
C51   C75   1.544959 S    
N42   O28   1.301211 A    
H47   C96   1.083158 S    
C22   C46   1.382108 A    
C49   C66   1.528982 S    
C53   C77   1.541990 S    
C101  H62   1.112818 S    
C41   C68   1.451664 S    
C49   C73   1.545037 S    
C22   N22   1.344899 A    
C9    N9    1.342856 A    
C25   C35   1.385420 A    
C100  H58   1.107800 S    
C1    H1    1.070278 S    
C12   C44   1.368747 A    
C6    C38   1.378113 A    
N7    N29   1.391773 A    
C3    N3    1.336072 A    
C53   C57   1.537246 S    
C45   C72   1.444227 S    
C87   N48   1.436658 S    
C28   H12   1.078134 S    
C9    N33   1.441965 S    
C61   C78   1.533995 S    
H44   C91   1.081058 S    
C28   C34   1.377776 A    
C55   C72   1.527072 S    
C18   N18   1.333564 A    
N26   Ni5   1.866200 S    
C23   O23   1.378316 S    
C58   C66   1.531644 S    
N46   O36   1.300317 A    
N25   Ni6   1.866200 S    
C16   C48   1.381327 A    
C77   H37   1.109716 S    
N32   Ni8   1.868248 S    
C21   C45   1.365806 A    
N41   O26   1.301186 A    
C97   H50   1.109988 S    
C104  H71   1.116174 S    
N11   N19   1.345903 A    
C74   H34   1.109565 S    
C102  H66   1.106645 S    
N48   O40   1.300866 A    
N22   Ni3   1.887696 S    
C2    C34   1.379578 A    
O22   C102  1.413180 S    
C46   C71   1.456978 S    
C16   N40   1.428304 S    
N43   O29   1.300958 A    
C2    H2    1.075551 S    
N36   O8    1.301361 A    
N44   O32   1.301066 A    
C56   C60   1.551118 S    
C16   N16   1.337935 A    
C67   C79   1.529519 S    
C26   N26   1.350571 A    
C23   N23   1.331947 A    
C91   C96   1.473956 S    
N8    N30   1.391770 A    
C63   C80   1.534107 S    
C88   C96   1.351631 D    
C68   C80   1.530895 S    
N18   Ni1   1.887696 S    
N2    N28   1.392037 A    
C24   C48   1.383706 A    
N30   Ni7   1.866200 S    
N40   O15   1.299707 A    
C1    N1    1.339788 A    
C30   N30   1.346273 A    
C83   N44   1.435752 S    
C19   O19   1.394401 S    
C27   C33   1.383890 A    
C58   C73   1.549156 S    
C25   H9    1.077230 S    
C62   C70   1.522369 S    
C20   C44   1.371755 A    
C60   C75   1.549335 S    
N13   Ni7   1.866556 S    
N47   O37   1.300624 A    
C64   H24   1.109989 S    
N4    N26   1.391770 A    
C4    N4    1.331785 A    
C69   C73   1.531442 S    
C60   C68   1.531923 S    
C10   C42   1.377508 A    
C97   H51   1.109047 S    
N2    Ni2   1.883432 S    
C78   H38   1.108790 S    
C9    C41   1.376356 A    
N1    Ni1   1.883432 S    
C51   C63   1.530460 S    
C54   C69   1.533283 S    
C29   H13   1.075335 S    
C83   C91   1.349954 D    
C52   C67   1.530735 S    
C50   C74   1.539431 S    
N44   O31   1.300392 A    
N13   N21   1.345874 A    
C17   O17   1.378608 S    
C14   C46   1.377958 A    
C81   N42   1.441294 S    
C37   C87   1.471976 S    
N16   Ni7   1.868621 S    
C3    C35   1.384761 A    
N47   O38   1.301408 A    
C20   N20   1.326824 A    
N33   O1    1.297940 A    
C61   H21   1.111096 S    
N5    N31   1.392033 A    
C19   N19   1.345586 A    
C7    N7    1.332892 A    
C21   N21   1.328244 A    
C35   C81   1.474625 S    
N20   Ni2   1.892260 S    
C103  H67   1.112071 S    
C8    N8    1.338225 A    
C73   H33   1.109587 S    
C15   N15   1.332286 A    
N36   O7    1.297556 A    
C81   C89   1.349168 D    
C38   C88   1.481445 S    
C33   C83   1.480651 S    
N37   O9    1.299968 A    
C55   H31   1.111281 S    
C52   H28   1.109767 S    
N6    Ni4   1.883432 S    
C54   H30   1.108636 S    
C15   C47   1.366189 A    
N6    N32   1.392037 A    
C64   C79   1.546214 S    
C58   H18   1.110061 S    
C5    H5    1.071817 S    
C13   N37   1.438067 S    
C5    N5    1.334396 A    
C12   N12   1.335076 A    
C47   C70   1.429115 S    
N38   O12   1.299950 A    
C97   H49   1.110793 S    
C49   C61   1.530977 S    
C104  H72   1.106846 S    
C13   N13   1.335676 A    
H43   C92   1.084534 S    
N27   Ni5   1.868248 S    
N24   Ni4   1.892260 S    
N48   O39   1.300416 A    
N34   O3    1.299560 A    
N29   Ni8   1.866200 S    
C55   C59   1.531794 S    
C76   H36   1.107780 S    
C18   C42   1.379860 A    
H41   C90   1.086301 S    
C59   C67   1.527284 S    
N9    N17   1.345874 A    
C31   H15   1.077289 S    
H42   C89   1.085640 S    
C99   H57   1.107398 S    
C50   C62   1.545502 S    
C32   H16   1.079323 S    
N1    N27   1.392033 A    
N42   O27   1.301191 A    
C86   N45   1.437022 S    
C63   H23   1.111133 S    
