data_mof_unit_24695.cif
_audit_creation_date              2013-03-05T15:44:48-0500
_audit_creation_method            fapswitch 2.2
_symmetry_space_group_name_H-M    P1
_symmetry_Int_Tables_number       1
_space_group_crystal_system       triclinic
_cell_length_a                    12.880729
_cell_length_b                    13.075907
_cell_length_c                    15.346743
_cell_angle_alpha                 116.197403
_cell_angle_beta                  62.941668
_cell_angle_gamma                 97.319164
_cell_volume                      2056.69426222

loop_
_atom_site_label
_atom_site_type_symbol
_atom_site_description
_atom_site_fract_x
_atom_site_fract_y
_atom_site_fract_z
_atom_type_partial_charge
C1    C     C_R   0.000136 0.832202 0.053221 -0.117559
H1    H     H_    0.029331 0.894221 0.110369 0.095951
N1    N     N_R   0.037310 0.720000 0.995790 -0.045385
C2    C     C_R   0.677436 0.481104 0.220783 -0.097193
H2    H     H_    0.607745 0.453392 0.198811 0.176907
N2    N     N_R   0.790790 0.446160 0.152010 -0.037429
C3    C     C_R   0.756669 0.517895 0.891442 -0.229477
H3    H     H_    0.781575 0.546750 0.829053 0.120955
N3    N     N_R   0.824890 0.517960 0.936420 -0.061749
C4    C     C_R   0.009534 0.700754 0.304441 -0.154970
H4    H     H_    0.986848 0.666945 0.363099 0.097141
N4    N     N_R   0.003210 0.648190 0.211380 -0.038089
C5    C     C_R   0.676278 0.418926 0.988144 0.330417
N5    N     N_R   0.774330 0.457010 0.995840 -0.091661
C6    C     C_R   0.090787 0.802237 0.209492 -0.148332
H5    H     H_    0.141825 0.863288 0.181257 0.098780
N6    N     N_R   0.053760 0.709140 0.151960 -0.038210
C7    C     C_R   0.780392 0.564960 0.313899 -0.123322
H6    H     H_    0.807144 0.615056 0.376314 0.092395
N7    N     N_R   0.853860 0.498840 0.211410 -0.044806
C8    C     C_R   0.900304 0.747561 0.956430 -0.142676
H7    H     H_    0.836371 0.731312 0.925679 0.105262
N8    N     N_R   0.974240 0.667310 0.936390 -0.042085
C9    C     C_R   0.912122 0.851501 0.031719 0.131661
C10   C     C_R   0.667899 0.558145 0.322872 0.018256
C11   C     C_R   0.663827 0.454089 0.920330 0.017962
C12   C     C_R   0.062381 0.797778 0.305097 0.056881
C13   C     C_R   0.339291 0.512113 0.943378 -0.118397
H8    H     H_    0.397447 0.547426 0.888796 0.093149
N9    N     N_R   0.225670 0.542990 0.004160 -0.045965
C14   C     C_R   0.967560 0.179928 0.782138 -0.080539
H9    H     H_    0.931702 0.111710 0.805438 0.118639
N10   N     N_R   0.946240 0.290860 0.848040 -0.040708
C15   C     C_R   0.198295 0.515212 0.697250 -0.105510
H10   H     H_    0.158041 0.501421 0.645376 0.098568
N11   N     N_R   0.146140 0.501160 0.788590 -0.040882
C16   C     C_R   0.051804 0.255594 0.088063 -0.140822
H11   H     H_    0.088391 0.274763 0.143893 0.101709
N12   N     N_R   0.025760 0.332690 0.063610 -0.047371
C17   C     C_R   0.952168 0.172099 0.993522 -0.080667
H12   H     H_    0.896769 0.114235 0.962269 0.116759
N13   N     N_R   0.962690 0.280000 0.004210 -0.038924
C18   C     C_R   0.299216 0.597740 0.791421 -0.143240
H13   H     H_    0.351431 0.657916 0.825475 0.088718
N14   N     N_R   0.209210 0.553840 0.847990 -0.041046
C19   C     C_R   0.261417 0.410658 0.038973 -0.122283
H14   H     H_    0.252215 0.352107 0.073580 0.118194
N15   N     N_R   0.175110 0.482040 0.063580 -0.047447
C20   C     C_R   0.046242 0.279395 0.683997 0.059143
N16   N     N_R   0.996790 0.351810 0.788620 -0.056651
Ni1   Ni    Ni4+2 0.130310 0.630310 0.999970 0.206087
Ni2   Ni    Ni4+2 0.869690 0.369690 0.000030 0.294460
Ni3   Ni    Ni4+2 0.985640 0.509470 0.863740 0.201557
Ni4   Ni    Ni4+2 0.014360 0.490530 0.136260 0.210438
C21   C     C_R   0.364836 0.426656 0.961385 0.131467
C22   C     C_R   0.031133 0.170672 0.678457 -0.027061
C23   C     C_R   0.294721 0.575265 0.696527 0.046407
C24   C     C_R   0.009137 0.152448 0.043594 0.044071
C25   C     C_R   0.160693 0.937632 0.402512 -0.185413
H15   H     H_    0.245276 0.904858 0.332344 0.126902
C26   C     C_R   0.151858 0.028831 0.497113 -0.211022
H16   H     H_    0.229764 0.068504 0.501106 0.137000
C27   C     C_R   0.041266 0.070722 0.585385 0.124375
C28   C     C_R   0.938911 0.022162 0.581920 0.025104
C29   C     C_R   0.948908 0.929735 0.488485 -0.244836
H17   H     H_    0.870548 0.891763 0.483662 0.124337
C30   C     C_R   0.058900 0.889329 0.399917 0.141040
C31   C     C_R   0.569570 0.656749 0.523334 -0.190741
H18   H     H_    0.651166 0.681910 0.526865 0.112561
C32   C     C_R   0.477336 0.657813 0.616684 -0.168194
H19   H     H_    0.492821 0.682442 0.686584 0.110811
C33   C     C_R   0.373704 0.613374 0.614047 0.128107
C34   C     C_R   0.354892 0.591690 0.524523 -0.205591
H20   H     H_    0.271211 0.567890 0.525003 0.106696
C35   C     C_R   0.447558 0.591737 0.429920 0.040391
C36   C     C_R   0.560037 0.608991 0.425641 0.113421
C37   C     C_2   0.481949 0.375646 0.918137 -0.167388
H21   H     H_    0.488844 0.306654 0.935917 0.196822
C38   C     C_2   0.573725 0.432659 0.883435 -0.198833
H22   H     H_    0.569049 0.491282 0.852599 0.132897
C39   C     C_2   0.832358 0.956074 0.088346 -0.221724
H23   H     H_    0.777475 0.962703 0.054096 0.149598
C40   C     C_2   0.819486 0.040262 0.183705 -0.114874
H24   H     H_    0.868974 0.038009 0.224269 0.122271
N17   N     N_3   0.080706 0.311837 0.597585 -0.223064
H25   H     H_    0.107682 0.239326 0.523221 0.114786
H26   H     H_    0.006199 0.351386 0.610280 0.093453
N18   N     N_3   0.825218 0.069848 0.670915 -0.200648
H27   H     H_    0.784418 0.005987 0.694978 0.116566
H28   H     H_    0.775686 0.093258 0.643177 0.115413
N19   N     N_3   0.428518 0.570374 0.338345 -0.204103
H29   H     H_    0.445415 0.644211 0.325562 0.103604
H30   H     H_    0.340838 0.557729 0.355324 0.120430
N20   N     N_R   0.624793 0.324587 0.011225 0.205156
O1    O     O_R   0.517032 0.338104 0.084922 -0.463781
O2    O     O_R   0.692261 0.236682 0.979648 -0.443013

loop_
_geom_bond_atom_site_label_1
_geom_bond_atom_site_label_2
_geom_bond_distance
_ccdc_geom_bond_type
C4    C12   1.359382 A    
N9    Ni1   1.819498 S    
C34   H20   1.080759 S    
N1    N8    1.393657 A    
C9    C39   1.475460 S    
N6    Ni1   1.875940 S    
C2    C10   1.395521 A    
C3    H3    1.081982 S    
C37   H21   1.075162 S    
N10   Ni2   1.875941 S    
N15   Ni4   1.841678 S    
C3    C11   1.383030 A    
N9    N15   1.363818 A    
C13   H8    1.076337 S    
C7    H6    1.074299 S    
C21   C37   1.454506 S    
N12   Ni4   1.849561 S    
N14   Ni1   1.875084 S    
C6    H5    1.081559 S    
C3    N3    1.341559 A    
C1    H1    1.078245 S    
C26   C27   1.397278 A    
N11   Ni3   1.842078 S    
C25   C30   1.390672 A    
N5    Ni2   1.819497 S    
C40   H24   1.084775 S    
C31   H18   1.078787 S    
C29   C30   1.392316 A    
N4    N6    1.363807 A    
C15   C23   1.380599 A    
C14   N10   1.325096 A    
C32   H19   1.080526 S    
C14   C22   1.373613 A    
C7    N7    1.330631 A    
C16   C24   1.387999 A    
C35   N19   1.436221 S    
C17   N13   1.342800 A    
C25   H15   1.083686 S    
C5    N5    1.334392 A    
C34   C35   1.398769 A    
C26   H16   1.084018 S    
C7    C10   1.386674 A    
C15   H10   1.077077 S    
C39   C40   1.335793 D    
C13   C21   1.371991 A    
N8    Ni3   1.849562 S    
N12   N13   1.393657 A    
C37   C38   1.337931 D    
C19   N15   1.349413 A    
C25   C26   1.377838 A    
N16   Ni3   1.850958 S    
C17   C24   1.389373 A    
N17   H26   1.045852 S    
C20   N17   1.431363 S    
N7    Ni4   1.842081 S    
N19   H29   1.045402 S    
N3    N5    1.363817 A    
N1    Ni1   1.819010 S    
C33   C34   1.402903 A    
N10   N16   1.363805 A    
N17   H25   1.043998 S    
C39   H23   1.085099 S    
C38   H22   1.083119 S    
C1    N1    1.346078 A    
C19   C21   1.393527 A    
C35   C36   1.413334 A    
C16   H11   1.080134 S    
N19   H30   1.045683 S    
C6    C12   1.368091 A    
C14   H9    1.078539 S    
C22   C27   1.410996 S    
N11   N14   1.393639 A    
N20   O2    1.300328 A    
C18   N14   1.334925 A    
C4    N4    1.320460 A    
C2    N2    1.340422 A    
C17   H12   1.079407 S    
N18   H28   1.045870 S    
C29   H17   1.085627 S    
C8    N8    1.343834 A    
C18   H13   1.080039 S    
C5    C11   1.383232 A    
N3    Ni3   1.841679 S    
C6    N6    1.332336 A    
C19   H14   1.077451 S    
C2    H2    1.065583 S    
C31   C36   1.405042 A    
C20   C22   1.379870 A    
N2    N7    1.393640 A    
C11   C38   1.456369 S    
C5    N20   1.431985 S    
C10   C36   1.475037 S    
C28   C29   1.369277 A    
C13   N9    1.323266 A    
C16   N12   1.343260 A    
C15   N11   1.337623 A    
C23   C33   1.463464 S    
N20   O1    1.301844 A    
C12   C30   1.403162 S    
C4    H4    1.081827 S    
C18   C23   1.380239 A    
C27   C28   1.401743 A    
N18   H27   1.045834 S    
C1    C9    1.394497 A    
C31   C32   1.379188 A    
C20   N16   1.327101 A    
C8    C9    1.387870 A    
C32   C33   1.397097 A    
N2    Ni2   1.875084 S    
C8    H7    1.080034 S    
C28   N18   1.435211 S    
N4    Ni4   1.850958 S    
N13   Ni2   1.819012 S    
