data_mof_unit_8746.cif
_audit_creation_date              2012-12-10T17:49:33-0500
_audit_creation_method            fapswitch 2.2
_symmetry_space_group_name_H-M    P1
_symmetry_Int_Tables_number       1
_space_group_crystal_system       triclinic
_cell_length_a                    14.679785
_cell_length_b                    14.787243
_cell_length_c                    15.887134
_cell_angle_alpha                 76.336359
_cell_angle_beta                  102.128986
_cell_angle_gamma                 115.442831
_cell_volume                      3002.79088063

loop_
_atom_site_label
_atom_site_type_symbol
_atom_type_description
_atom_site_fract_x
_atom_site_fract_y
_atom_site_fract_z
_atom_type_partial_charge
C1    C     C_R   0.879826 0.312075 0.517022 0.810840
C2    C     C_3   0.994024 0.391035 0.073296 0.318464
C3    C     C_3   0.001102 0.495934 0.084446 0.047982
C4    C     C_3   0.099840 0.581197 0.050347 -0.392040
C5    C     C_3   0.104935 0.575781 0.954747 0.256519
C6    C     C_1   0.001834 0.497432 0.176380 0.020355
C7    C     C_1   0.997658 0.498028 0.824528 0.063849
C8    C     C_1   0.997499 0.498877 0.748848 -0.176055
C9    C     C_R   0.810775 0.204437 0.538267 -0.157923
C10   C     C_R   0.185528 0.795730 0.489490 -0.043435
C11   C     C_R   0.776427 0.031178 0.610660 -0.283917
C12   C     C_R   0.999144 0.499610 0.659492 0.807701
C13   C     C_R   0.846364 0.128796 0.582095 0.499744
C14   C     C_R   0.705924 0.179240 0.520069 -0.323377
C15   C     C_R   0.634786 0.082215 0.549845 0.088920
C16   C     C_R   0.671737 0.007436 0.594651 0.090414
C17   C     C_R   0.528045 0.056760 0.534153 0.086715
C18   C     C_R   0.459845 0.953747 0.555395 0.063455
C19   C     C_R   0.499945 0.882698 0.603803 -0.239459
C20   C     C_R   0.603937 0.909461 0.623244 -0.203412
C21   C     C_R   0.487117 0.130567 0.497926 -0.229535
C22   C     C_R   0.383440 0.102829 0.473806 -0.233824
C23   C     C_R   0.119591 0.687694 0.488747 0.797496
C24   C     C_R   0.317288 0.000824 0.483177 0.170718
C25   C     C_R   0.354261 0.925121 0.525360 0.084915
C26   C     C_R   0.214579 0.973527 0.449103 -0.209953
C27   C     C_R   0.149424 0.871597 0.451237 -0.192365
C28   C     C_R   0.285226 0.822901 0.530570 -0.270173
C29   C     C_R   0.697201 0.631426 0.330944 -0.349161
C30   C     C_R   0.790239 0.624372 0.366889 0.613259
C31   C     C_R   0.715090 0.512574 0.491704 0.573313
C32   C     C_R   0.617190 0.513326 0.455897 -0.188048
C33   C     C_R   0.610767 0.576315 0.374393 -0.146143
C34   C     C_R   0.000616 0.499914 0.340572 0.826534
C35   C     C_R   0.526870 0.457101 0.498440 0.027637
C36   C     C_R   0.438882 0.478830 0.466286 -0.123757
C37   C     C_R   0.431033 0.529344 0.379093 0.396685
C38   C     C_R   0.517675 0.582662 0.335904 0.437906
C39   C     C_R   0.518289 0.375903 0.568577 -0.151642
C40   C     C_R   0.432905 0.328916 0.612875 -0.197333
C41   C     C_R   0.355472 0.364454 0.591791 0.098674
C42   C     C_R   0.359465 0.443488 0.520513 -0.088393
C43   C     C_R   0.273885 0.321572 0.641177 -0.340584
C44   C     C_R   0.197725 0.358370 0.620820 -0.015310
C45   C     C_3   0.980470 0.388221 0.973463 0.244320
C46   C     C_R   0.285959 0.486329 0.509673 0.673642
C47   C     C_3   0.917304 0.533022 0.930684 0.317477
C48   C     C_3   0.907507 0.514621 0.029510 -0.580081
C49   C     C_1   0.001570 0.498683 0.251506 -0.160850
C50   C     C_3   0.999849 0.497300 0.917247 -0.032236
Cu1   Cu    Cu3+1 0.081750 0.475690 0.522550 0.991531
Cu2   Cu    Cu3+1 0.918250 0.524310 0.477450 1.010025
H1    H     H_    0.101924 0.656389 0.053898 0.201796
H2    H     H_    0.307398 0.762318 0.564238 0.141815
H3    H     H_    0.071316 0.852325 0.422091 0.155723
H4    H     H_    0.804409 0.974078 0.646186 0.152394
H5    H     H_    0.185537 0.031072 0.417924 0.123176
H6    H     H_    0.132573 0.322243 0.656619 0.194478
H7    H     H_    0.428998 0.266275 0.665806 0.142173
H8    H     H_    0.691678 0.677348 0.267667 0.203617
H9    H     H_    0.950391 0.617149 0.912836 0.198447
H10   H     H_    0.574132 0.343412 0.587715 0.193714
H11   H     H_    0.836491 0.449351 0.047282 0.186326
H12   H     H_    0.166059 0.549555 0.958685 0.100443
N1    N     N_R   0.795410 0.560790 0.443550 -0.254789
N2    N     N_R   0.204590 0.439170 0.556520 -0.235281
O1    O     O_R   0.977910 0.338120 0.529720 -0.551287
O2    O     O_R   0.839850 0.379180 0.491640 -0.573572
O3    O     O_R   0.069060 0.479460 0.639610 -0.597219
O4    O     O_R   0.931000 0.520530 0.601530 -0.536435
O5    O     O_R   0.160150 0.620820 0.508360 -0.546612
O6    O     O_R   0.022090 0.661880 0.470280 -0.559920
O7    O     O_R   0.069000 0.479470 0.398470 -0.548405
O8    O     O_R   0.930940 0.520540 0.360390 -0.533420
H13   H     H_    0.923537 0.332232 0.101029 0.038933
O9    O     O_3   0.020155 0.325529 0.950571 -0.564042
C51   C     C_3   0.124769 0.370207 0.942089 -0.244667
H14   H     H_    0.172989 0.399979 0.001151 0.196218
H15   H     H_    0.141496 0.428224 0.882410 0.138229
H16   H     H_    0.146537 0.310093 0.933572 0.175395
O10   O     O_3   0.082646 0.376638 0.117559 -0.576453
C52   C     C_3   0.057940 0.275586 0.160874 -0.347768
H17   H     H_    0.129474 0.264890 0.187336 0.173546
H18   H     H_    0.013246 0.220229 0.115529 0.200648
H19   H     H_    0.015742 0.260169 0.216717 0.149573
H20   H     H_    0.631455 0.852290 0.659550 0.142037
H21   H     H_    0.355406 0.161574 0.444510 0.144763
O11   O     O_3   0.949197 0.151643 0.603868 -0.569656
C53   C     C_3   0.981389 0.118504 0.543679 -0.324218
H22   H     H_    0.064718 0.140649 0.558894 0.192520
H23   H     H_    0.966413 0.155359 0.475561 0.150230
H24   H     H_    0.944864 0.034389 0.548946 0.150841
H25   H     H_    0.681433 0.236980 0.481582 0.177877
H26   H     H_    0.898621 0.343353 0.960115 0.083428
H27   H     H_    0.452954 0.805765 0.629081 0.132094
H28   H     H_    0.533133 0.210928 0.487913 0.147833
O12   O     O_3   0.509248 0.636513 0.252674 -0.559683
C54   C     C_3   0.515128 0.732222 0.259842 -0.300802
H29   H     H_    0.588123 0.775555 0.297616 0.133089
H30   H     H_    0.449750 0.724809 0.289878 0.201177
H31   H     H_    0.512171 0.776894 0.193337 0.184606
O13   O     O_3   0.296750 0.577536 0.455539 -0.509979
C55   C     C_3   0.380078 0.656917 0.491902 -0.303376
H32   H     H_    0.453881 0.658854 0.483211 0.134778
H33   H     H_    0.377626 0.651576 0.562533 0.126045
H34   H     H_    0.377671 0.730248 0.456656 0.193010
O14   O     O_3   0.875000 0.672962 0.322338 -0.530975
C56   C     C_3   0.893995 0.776401 0.291522 -0.374967
H35   H     H_    0.974222 0.817037 0.278141 0.191529
H36   H     H_    0.883571 0.813122 0.340418 0.136695
H37   H     H_    0.846035 0.785541 0.228715 0.167465
O15   O     O_3   0.732895 0.468126 0.576484 -0.579245
C57   C     C_3   0.749486 0.537104 0.631912 -0.286988
H38   H     H_    0.678985 0.547413 0.632653 0.152008
H39   H     H_    0.811912 0.612150 0.613567 0.160767
H40   H     H_    0.772766 0.505672 0.699226 0.227106
O16   O     O_3   0.338705 0.526185 0.333442 -0.523544
C58   C     C_3   0.285200 0.431888 0.304362 -0.243772
H41   H     H_    0.268147 0.367505 0.359872 0.123562
H42   H     H_    0.327519 0.421892 0.259188 0.160505
H43   H     H_    0.211500 0.430261 0.267812 0.224028
H44   H     H_    0.268215 0.258914 0.694437 0.162821
O17   O     O_3   0.823407 0.506774 0.874328 -0.578835
C59   C     C_3   0.764224 0.401970 0.877252 -0.320566
H45   H     H_    0.751768 0.360020 0.944345 0.143804
H46   H     H_    0.796134 0.368473 0.841517 0.173891
H47   H     H_    0.687810 0.392429 0.841907 0.188019
H48   H     H_    0.903945 0.582368 0.045467 0.200721
O18   O     O_3   0.127348 0.674160 0.903424 -0.576523
C60   C     C_3   0.214613 0.706455 0.861636 -0.318862
H49   H     H_    0.204954 0.652531 0.818804 0.151431
H50   H     H_    0.283198 0.716047 0.910488 0.164888
H51   H     H_    0.226482 0.781268 0.819893 0.196151
H52   H     H_    0.168142 0.574860 0.093110 0.195411

loop_
_geom_bond_atom_site_label_1
_geom_bond_atom_site_label_2
_ccdc_geom_bond_type
C10   C27   A    
C12   O3    A    
C30   O14   S    
C41   C42   A    
C60   H50   S    
C35   C36   A    
C9    C14   A    
C3    C6    S    
O12   C54   S    
C7    C8    T    
C51   H14   S    
C25   C28   A    
C46   O13   S    
C26   C27   A    
C29   C30   A    
C45   O9    S    
C59   H46   S    
C36   C37   A    
C24   C26   A    
C57   H38   S    
Cu2   O8    S    
C4    H1    S    
C27   H3    S    
C15   C16   A    
C29   C33   A    
C3    C48   S    
C1    O2    A    
C56   H35   S    
C15   C17   A    
C18   C19   A    
C42   C46   A    
Cu2   N1    S    
C9    C13   A    
C58   H41   S    
C36   C42   A    
C19   C20   A    
C44   H6    S    
C20   H20   S    
O14   C56   S    
C53   H23   S    
C14   H25   S    
Cu2   O2    S    
C8    C12   S    
C57   H40   S    
C5    O18   S    
C40   H7    S    
C21   C22   A    
C41   C43   A    
C18   C25   A    
Cu1   O5    S    
C38   O12   S    
C45   H26   S    
O15   C57   S    
O10   C52   S    
C47   C50   S    
C51   H15   S    
C2    C45   S    
Cu1   Cu2   S    
C32   C35   A    
C23   O5    A    
O17   C59   S    
C1    C9    S    
C24   C25   A    
C39   C40   A    
C28   H2    S    
C48   H11   S    
C17   C21   A    
C5    H12   S    
C58   H43   S    
C35   C39   A    
C43   C44   A    
C37   C38   A    
Cu2   O6    S    
C48   H48   S    
C11   C16   A    
C47   O17   S    
C47   C48   S    
C29   H8    S    
C16   C20   A    
C17   C18   A    
C55   H33   S    
Cu1   O1    S    
C22   H21   S    
O9    C51   S    
C53   H24   S    
C43   H44   S    
C44   N2    A    
C34   O8    A    
C59   H47   S    
C40   C41   A    
C52   H17   S    
C52   H18   S    
C22   C24   A    
C5    C50   S    
C60   H51   S    
C3    C4    S    
C54   H31   S    
C19   H27   S    
C4    H52   S    
O18   C60   S    
C51   H16   S    
C10   C28   A    
C31   N1    A    
C39   H10   S    
C12   O4    A    
C34   C49   S    
C23   O6    A    
C31   C32   A    
Cu1   O7    S    
C7    C50   S    
C4    C5    S    
C47   H9    S    
C31   O15   S    
C46   N2    A    
C21   H28   S    
C10   C23   S    
C52   H19   S    
C54   H30   S    
C33   C38   A    
C56   H37   S    
C32   C33   A    
C2    C3    S    
O16   C58   S    
C11   C13   A    
C45   C50   S    
C13   O11   S    
C1    O1    A    
C56   H36   S    
C60   H49   S    
C55   H34   S    
C6    C49   T    
O13   C55   S    
C26   H5    S    
C58   H42   S    
C30   N1    A    
Cu2   O4    S    
C2    H13   S    
C34   O7    A    
C37   O16   S    
O11   C53   S    
C54   H29   S    
C55   H32   S    
C14   C15   A    
C2    O10   S    
Cu1   O3    S    
C53   H22   S    
Cu1   N2    S    
C11   H4    S    
C59   H45   S    
C57   H39   S    
