data_mof_unit_15478.cif
_audit_creation_date              2012-10-26T19:00:08-0400
_audit_creation_method            fapswitch 2.2
_symmetry_space_group_name_H-M    P1
_symmetry_Int_Tables_number       1
_space_group_crystal_system       triclinic
_cell_length_a                    10.924918
_cell_length_b                    10.766627
_cell_length_c                    9.701525
_cell_angle_alpha                 89.283699
_cell_angle_beta                  91.035031
_cell_angle_gamma                 91.898573
_cell_volume                      1140.24376817

loop_
_atom_site_label
_atom_site_type_symbol
_atom_type_description
_atom_site_fract_x
_atom_site_fract_y
_atom_site_fract_z
_atom_type_partial_charge
C1    C     C_R   0.499433 0.262833 0.500702 0.542894
C2    C     C_R   0.820416 0.444871 0.985319 -0.041319
C3    C     C_R   0.771144 0.323544 0.989482 -0.119818
C4    C     C_R   0.262364 0.499486 0.498377 0.551346
C5    C     C_R   0.776467 0.248346 0.873715 -0.107195
C6    C     C_R   0.831878 0.294095 0.753920 -0.067407
C7    C     C_R   0.882206 0.415779 0.749274 0.082526
C8    C     C_R   0.448617 0.059796 0.607599 0.004339
C9    C     C_R   0.505167 0.129349 0.502799 0.015636
C10   C     C_R   0.573536 0.068924 0.403899 -0.158019
C11   C     C_R   0.574952 0.939418 0.403355 -0.165832
C12   C     C_R   0.202044 0.509977 0.972009 -0.119836
C13   C     C_R   0.507319 0.870558 0.501004 0.017128
C14   C     C_R   0.450138 0.931815 0.606443 0.017981
C15   C     C_3   0.320125 0.916866 0.649527 -0.264628
C16   C     C_R   0.501685 0.736998 0.499509 0.551300
C17   C     C_3   0.317128 0.057357 0.649563 -0.288159
C18   C     C_R   0.513240 0.608026 0.071235 0.126484
C19   C     C_R   0.465817 0.396721 0.075182 0.248409
C20   C     C_R   0.465950 0.396494 0.928505 0.196579
C21   C     C_R   0.512287 0.608138 0.925932 0.117486
C22   C     C_3   0.610754 0.706471 0.919911 -0.270655
C23   C     C_R   0.931588 0.532517 0.382992 -0.160713
C24   C     C_3   0.612472 0.705982 0.077236 -0.275407
C25   C     C_R   0.737094 0.499252 0.501423 0.532626
C26   C     C_R   0.216724 0.620908 0.044850 -0.109190
C27   C     C_R   0.169923 0.630193 0.177949 0.162803
C28   C     C_R   0.108427 0.526025 0.236373 0.060739
C29   C     C_R   0.090752 0.416687 0.160942 -0.078762
C30   C     C_R   0.136933 0.407517 0.028897 0.112519
C31   C     C_R   0.870858 0.499050 0.503812 -0.012495
C32   C     C_R   0.939309 0.462838 0.621295 -0.035998
C33   C     C_R   0.066333 0.466929 0.616309 -0.165362
C34   C     C_R   0.127640 0.499402 0.495442 0.001439
C35   C     C_R   0.058036 0.527144 0.375484 -0.010646
C36   C     C_R   0.876305 0.492007 0.866026 0.150707
Cu1   Cu    Cu3+1 0.499990 0.499980 0.640670 0.923582
Cu2   Cu    Cu3+1 0.500010 0.500020 0.359330 0.974214
H1    H     H_    0.240869 0.505491 0.871122 0.134146
H2    H     H_    0.304137 0.093711 0.754533 0.145091
H3    H     H_    0.265101 0.699271 0.997444 0.092716
H4    H     H_    0.694812 0.672615 0.874267 0.170782
H5    H     H_    0.577395 0.794478 0.873947 0.130774
H6    H     H_    0.698770 0.672932 0.124876 0.138871
H7    H     H_    0.579461 0.793871 0.119467 0.124174
H8    H     H_    0.040617 0.337808 0.205429 0.112341
H9    H     H_    0.880155 0.557893 0.291156 0.123103
H10   H     H_    0.117246 0.438630 0.705954 0.126762
H11   H     H_    0.815170 0.502272 0.075041 0.111787
H12   H     H_    0.728212 0.288093 0.082322 0.107272
H13   H     H_    0.334491 0.264460 0.115767 0.226616
H14   H     H_    0.479697 0.213297 0.118024 0.210080
H15   H     H_    0.355694 0.308401 0.787592 0.263728
H16   H     H_    0.490782 0.232286 0.835109 0.256541
H17   H     H_    0.100595 0.780390 0.266029 0.216081
H18   H     H_    0.239950 0.807949 0.200078 0.219262
H19   H     H_    0.161292 0.296543 0.862167 0.216450
H20   H     H_    0.145663 0.220786 0.011951 0.219916
H21   H     H_    0.017321 0.617047 0.843930 0.238773
H22   H     H_    0.882944 0.664928 0.781730 0.224668
H23   H     H_    0.737454 0.154647 0.876719 0.100468
H24   H     H_    0.835225 0.235076 0.664538 0.095729
H25   H     H_    0.623632 0.121506 0.326038 0.122511
H26   H     H_    0.626902 0.893502 0.326249 0.113341
H27   H     H_    0.259678 0.873313 0.568863 0.151100
H28   H     H_    0.312290 0.874174 0.754129 0.132633
H29   H     H_    0.255291 0.096031 0.568609 0.133996
N1    N     N_R   0.500790 0.500930 0.147930 -0.222713
N2    N     N_R   0.500790 0.500890 0.852020 -0.235208
N3    N     N_3   0.424646 0.286280 0.145704 -0.554072
N4    N     N_3   0.418464 0.286104 0.865451 -0.676321
N5    N     N_3   0.186764 0.742601 0.255210 -0.619129
N6    N     N_3   0.112783 0.295125 0.953525 -0.633413
N7    N     N_3   0.924021 0.617734 0.864244 -0.659212
O1    O     O_R   0.500000 0.319640 0.618810 -0.520357
O2    O     O_R   0.500010 0.319680 0.381230 -0.467622
O3    O     O_R   0.319640 0.499990 0.618790 -0.536533
O4    O     O_R   0.319650 0.500030 0.381210 -0.462195
O5    O     O_R   0.499990 0.680320 0.618770 -0.503908
O6    O     O_R   0.500000 0.680360 0.381190 -0.496187
O7    O     O_R   0.680350 0.499970 0.618790 -0.492545
O8    O     O_R   0.680360 0.500010 0.381210 -0.519593

loop_
_geom_bond_atom_site_label_1
_geom_bond_atom_site_label_2
_ccdc_geom_bond_type
C25   C31   S    
Cu1   N2    S    
C18   C21   A    
C7    C36   A    
C10   H25   S    
Cu2   O2    S    
Cu1   O5    S    
C26   C27   A    
C29   C30   A    
C18   C24   S    
C24   H7    S    
C28   C29   A    
C5    C6    A    
C18   N1    A    
C15   H27   S    
C34   C35   A    
H19   N6    S    
H16   N4    S    
C19   C20   A    
C28   C35   S    
C8    C9    A    
H18   N5    S    
C20   N4    S    
H13   N3    S    
C9    C10   A    
H17   N5    S    
Cu1   O1    S    
C13   C14   A    
Cu2   O8    S    
C25   O7    A    
Cu1   O7    S    
C3    H12   S    
C4    C34   S    
C17   H29   S    
C23   H9    S    
C1    O1    A    
C1    C9    S    
C11   H26   S    
C30   N6    S    
Cu2   O4    S    
C15   H28   S    
Cu1   O3    S    
C21   N2    A    
C16   O6    A    
C17   H2    S    
C23   C31   A    
C4    O4    A    
Cu1   Cu2   S    
C2    H11   S    
C22   H5    S    
C33   C34   A    
C5    H23   S    
C19   N1    A    
H21   N7    S    
C36   N7    S    
Cu2   N1    S    
C23   C35   A    
C25   O8    A    
C24   H6    S    
C22   C24   S    
C20   N2    A    
H15   N4    S    
C2    C36   A    
C15   C17   S    
C8    C14   A    
C7    C32   S    
C12   C30   A    
C1    O2    A    
C31   C32   A    
C3    C5    A    
C6    C7    A    
C8    C17   S    
C29   H8    S    
C16   O5    A    
C32   C33   A    
C6    H24   S    
C12   H1    S    
C2    C3    A    
C4    O3    A    
C11   C13   A    
C22   H4    S    
Cu2   O6    S    
H22   N7    S    
H14   N3    S    
C10   C11   A    
H20   N6    S    
C13   C16   S    
C12   C26   A    
C27   C28   A    
C33   H10   S    
C14   C15   S    
C19   N3    S    
C21   C22   S    
C27   N5    S    
C26   H3    S    
