data_mof_unit_57062.cif
_audit_creation_date              2012-12-11T17:25:08-0500
_audit_creation_method            fapswitch 2.2
_symmetry_space_group_name_H-M    P1
_symmetry_Int_Tables_number       1
_space_group_crystal_system       triclinic
_cell_length_a                    6.955445
_cell_length_b                    20.537345
_cell_length_c                    24.502219
_cell_angle_alpha                 90.059295
_cell_angle_beta                  90.459463
_cell_angle_gamma                 89.486427
_cell_volume                      3499.79836783

loop_
_atom_site_label
_atom_site_type_symbol
_atom_type_description
_atom_site_fract_x
_atom_site_fract_y
_atom_site_fract_z
_atom_type_partial_charge
O1    O     O_R   0.507280 0.423750 0.460310 -0.536031
O2    O     O_R   0.171030 0.555650 0.437630 -0.536767
O3    O     O_R   0.004080 0.576250 0.539690 -0.536253
C1    C     C_R   0.339072 0.575675 0.421788 0.724288
O4    O     O_R   0.177330 0.422980 0.453960 -0.537911
O5    O     O_R   0.010420 0.442640 0.556140 -0.535022
C2    C     C_R   0.346194 0.399125 0.443249 0.694467
O6    O     O_R   0.500930 0.557360 0.443860 -0.535025
O7    O     O_3   0.340310 0.506600 0.533500 -0.366677
V1    V     V_3+5 0.064140 0.498780 0.493780 1.424985
O8    O     O_R   0.680890 0.444350 0.562370 -0.537494
C3    C     C_R   0.850579 0.424401 0.578143 0.725586
O9    O     O_R   0.674590 0.577020 0.546040 -0.537689
C4    C     C_R   0.842727 0.600870 0.556762 0.694474
V2    V     V_3+5 0.564550 0.501220 0.506220 1.425339
O10   O     O_3   0.838250 0.493400 0.466500 -0.366777
C5    C     C_R   0.976031 0.838451 0.910901 -0.042706
C6    C     C_R   0.847468 0.661457 0.589055 -0.042819
C7    C     C_R   0.041697 0.722907 0.905261 -0.161221
C8    C     C_R   0.032087 0.780082 0.935649 -0.167274
C9    C     C_R   0.930060 0.839387 0.854882 -0.214741
C10   C     C_R   0.942045 0.781720 0.822519 0.086755
C11   C     C_R   0.998703 0.723217 0.849194 0.139139
C12   C     C_R   0.902615 0.780028 0.764826 0.057815
C13   C     C_R   0.920716 0.719873 0.735137 0.057815
C14   C     C_R   0.976962 0.663444 0.764166 -0.186657
C15   C     C_R   0.014561 0.665267 0.819853 -0.200887
C16   C     C_R   0.846293 0.836451 0.735801 -0.186677
C17   C     C_R   0.808625 0.834624 0.680118 -0.200882
C18   C     C_R   0.824539 0.776677 0.650774 0.139140
C19   C     C_R   0.881316 0.718183 0.677443 0.086758
C20   C     C_R   0.781492 0.776983 0.594710 -0.161212
C21   C     C_R   0.791217 0.719813 0.564316 -0.167204
C22   C     C_R   0.893463 0.660526 0.645072 -0.214688
H1    H     H_    0.057898 0.620568 0.840207 0.123607
H2    H     H_    0.933344 0.613937 0.662057 0.094164
H3    H     H_    0.753416 0.720979 0.521337 0.107643
H4    H     H_    0.765203 0.879317 0.659767 0.123604
H5    H     H_    0.085692 0.678284 0.925584 0.113866
H6    H     H_    0.069870 0.778912 0.978629 0.107572
H7    H     H_    0.890374 0.885988 0.837885 0.094129
H8    H     H_    0.994042 0.616594 0.745015 0.123839
H9    H     H_    0.829149 0.883298 0.754956 0.123831
H10   H     H_    0.737386 0.821598 0.574392 0.113873
H11   H     H_    0.619019 0.206342 0.793428 0.111630
C23   C     C_R   0.729927 0.269770 0.731437 -0.155672
H12   H     H_    0.587967 0.284612 0.717532 0.110993
C24   C     C_R   0.894274 0.294950 0.706414 0.136687
C25   C     C_R   0.076552 0.274786 0.725256 -0.156051
H13   H     H_    0.205177 0.293566 0.706501 0.111630
C26   C     C_R   0.094268 0.230138 0.768493 -0.155668
H14   H     H_    0.236228 0.215296 0.782397 0.110994
C27   C     C_R   0.929921 0.204958 0.793516 0.136685
C28   C     C_R   0.747643 0.225122 0.774674 -0.156052
C29   C     C_1   0.876334 0.341011 0.661419 -0.060674
C30   C     C_1   0.947864 0.158898 0.838511 -0.060686
C31   C     C_1   0.961071 0.120684 0.876283 -0.192097
C32   C     C_1   0.863139 0.379227 0.623649 -0.192144
H15   H     H_    0.698951 0.702769 0.296643 0.112370
C33   C     C_R   0.596701 0.767663 0.233513 -0.155994
H16   H     H_    0.740558 0.780659 0.221186 0.110867
C34   C     C_R   0.436082 0.795034 0.206671 0.136050
C35   C     C_R   0.251321 0.777085 0.223630 -0.155849
H17   H     H_    0.125267 0.797486 0.203538 0.112378
C36   C     C_R   0.227517 0.732596 0.266671 -0.155997
H18   H     H_    0.083660 0.719596 0.278995 0.110865
C37   C     C_R   0.388136 0.705223 0.293512 0.136057
C38   C     C_R   0.572896 0.723174 0.276554 -0.155857
C39   C     C_1   0.459835 0.841030 0.161755 -0.059764
C40   C     C_1   0.364386 0.659201 0.338409 -0.059755
C41   C     C_1   0.349014 0.620979 0.376147 -0.192723
C42   C     C_1   0.475217 0.879216 0.123992 -0.192614
C43   C     C_R   0.472779 0.161541 0.089127 -0.042627
C44   C     C_R   0.352204 0.338534 0.410955 -0.042939
C45   C     C_R   0.535214 0.276915 0.094933 -0.161288
C46   C     C_R   0.526115 0.219793 0.064494 -0.167100
C47   C     C_R   0.429109 0.160667 0.145089 -0.214667
C48   C     C_R   0.440783 0.218267 0.177514 0.086647
C49   C     C_R   0.494550 0.276654 0.150949 0.139143
C50   C     C_R   0.403842 0.219991 0.235171 0.057825
C51   C     C_R   0.421346 0.280071 0.264923 0.057820
C52   C     C_R   0.474626 0.336387 0.235999 -0.186696
C53   C     C_R   0.509903 0.334531 0.180352 -0.200856
C54   C     C_R   0.350646 0.163668 0.264100 -0.186671
C55   C     C_R   0.315414 0.165522 0.319749 -0.200868
C56   C     C_R   0.330695 0.223404 0.349148 0.139132
C57   C     C_R   0.384364 0.281798 0.322577 0.086706
C58   C     C_R   0.290046 0.223142 0.405165 -0.161266
C59   C     C_R   0.299023 0.280270 0.435596 -0.167119
C60   C     C_R   0.395878 0.339408 0.354993 -0.214745
H19   H     H_    0.551037 0.379140 0.160080 0.123636
H20   H     H_    0.262970 0.279152 0.478526 0.107658
H21   H     H_    0.274362 0.120907 0.340026 0.123650
H22   H     H_    0.577037 0.321445 0.074695 0.113888
H23   H     H_    0.562159 0.220911 0.021564 0.107708
H24   H     H_    0.391505 0.114151 0.162004 0.094477
H25   H     H_    0.491160 0.383167 0.255209 0.123867
H26   H     H_    0.334194 0.116882 0.244894 0.123892
H27   H     H_    0.248311 0.178605 0.425407 0.113881
O11   O     O_R   0.323320 0.942780 0.056240 -0.535090
O12   O     O_R   0.647300 0.077050 0.046060 -0.537814
O13   O     O_R   0.813840 0.057330 0.943840 -0.535033
C61   C     C_R   0.478534 0.100960 0.056817 0.694889
O14   O     O_R   0.653250 0.944380 0.062400 -0.536762
O15   O     O_R   0.819830 0.923720 0.960300 -0.536314
C62   C     C_R   0.485180 0.924451 0.078304 0.724220
O16   O     O_R   0.317330 0.076390 0.039790 -0.536330
O17   O     O_3   0.483830 0.993470 0.966560 -0.366791
V3    V     V_3+5 0.760140 0.001210 0.006210 1.425026
O18   O     O_R   0.149290 0.922840 0.953850 -0.538095
C63   C     C_R   0.981048 0.899045 0.943180 0.694097
O19   O     O_R   0.143340 0.055500 0.937510 -0.537604
C64   C     C_R   0.973657 0.075513 0.921790 0.725542
V4    V     V_3+5 0.259690 0.998600 0.993650 1.425611
O20   O     O_3   0.986130 0.006520 0.033440 -0.366667
H28   H     H_    0.433312 0.385935 0.338069 0.094342

loop_
_geom_bond_atom_site_label_1
_geom_bond_atom_site_label_2
_ccdc_geom_bond_type
C13   C19   A    
C24   C29   S    
C49   C53   A    
C35   C36   A    
C4    C6    S    
O2    C1    A    
C7    C8    A    
C1    O6    A    
C25   C26   A    
O14   C62   A    
V4    O20   S    
C47   C48   A    
C30   C31   T    
C14   C15   A    
C17   C18   A    
C44   C59   A    
C16   C17   A    
C46   H23   S    
O5    C3    A    
O14   V3    S    
C8    H6    S    
C48   C50   A    
O12   V3    S    
V2    O10   S    
C5    C8    A    
O17   V3    S    
C33   C34   A    
O17   V4    S    
C25   H13   S    
O18   C63   A    
O8    V2    S    
C36   C37   A    
C17   H4    S    
C40   C41   T    
O1    V2    S    
C11   C15   A    
O7    V1    S    
O18   V4    S    
C22   H2    S    
C50   C54   A    
C3    C32   S    
O15   C63   A    
O12   C61   A    
O9    C4    A    
C55   H21   S    
C5    C63   S    
O19   V4    S    
O19   C64   A    
C51   C52   A    
C2    C44   S    
C23   C24   A    
C37   C38   A    
O11   V4    S    
C12   C13   A    
O4    C2    A    
C56   C57   A    
C31   C64   S    
C15   H1    S    
C13   C14   A    
C55   C56   A    
C21   H3    S    
C26   H14   S    
C34   C39   S    
C33   H16   S    
C26   C27   A    
C39   C42   T    
C7    C11   A    
C45   C46   A    
O16   V4    S    
C34   C35   A    
H15   C38   S    
C23   C28   A    
C20   H10   S    
C19   C22   A    
C54   C55   A    
C59   H20   S    
C6    C22   A    
C51   C57   A    
O3    C4    A    
C7    H5    S    
C9    H7    S    
C24   C25   A    
C42   C62   S    
H11   C28   S    
C52   C53   A    
O6    V2    S    
C60   H28   S    
O9    V2    S    
C43   C46   A    
C10   C12   A    
C29   C32   T    
O2    V1    S    
C14   H8    S    
C27   C30   S    
O15   V3    S    
C23   H12   S    
C47   H24   S    
O1    C2    A    
C12   C16   A    
C50   C51   A    
O5    V1    S    
O8    C3    A    
C27   C28   A    
C53   H19   S    
C16   H9    S    
O11   C62   A    
C37   C40   S    
C54   H26   S    
C20   C21   A    
C44   C60   A    
O7    V2    S    
O4    V1    S    
O3    V1    S    
V1    O10   S    
C18   C20   A    
C48   C49   A    
C18   C19   A    
C52   H25   S    
C56   C58   A    
C6    C21   A    
C5    C9    A    
C58   H27   S    
V3    O20   S    
C35   H17   S    
C43   C61   S    
C58   C59   A    
C33   C38   A    
C36   H18   S    
C57   C60   A    
O13   C64   A    
C43   C47   A    
C10   C11   A    
O13   V3    S    
C61   O16   A    
C9    C10   A    
C45   C49   A    
C1    C41   S    
C45   H22   S    
