data_mof_unit_48992.cif
_audit_creation_date              2012-12-11T16:58:17-0500
_audit_creation_method            fapswitch 2.2
_symmetry_space_group_name_H-M    P1
_symmetry_Int_Tables_number       1
_space_group_crystal_system       triclinic
_cell_length_a                    16.943554
_cell_length_b                    7.291625
_cell_length_c                    16.872026
_cell_angle_alpha                 90.093546
_cell_angle_beta                  100.202664
_cell_angle_gamma                 89.706178
_cell_volume                      2051.48352261

loop_
_atom_site_label
_atom_site_type_symbol
_atom_type_description
_atom_site_fract_x
_atom_site_fract_y
_atom_site_fract_z
_atom_type_partial_charge
O1    O     O_R   0.413450 0.494370 0.415710 -0.499801
O2    O     O_R   0.586550 0.994370 0.584290 -0.510166
O3    O     O_R   0.578420 0.819350 0.429360 -0.563846
O4    O     O_R   0.421580 0.319350 0.570640 -0.563530
C1    C     C_R   0.604983 0.656632 0.414188 0.765815
C2    C     C_R   0.394371 0.157866 0.585284 0.753902
O5    O     O_R   0.413570 0.823780 0.406240 -0.522582
O6    O     O_R   0.586430 0.323780 0.593760 -0.515977
O7    O     O_R   0.420530 0.998740 0.561000 -0.503232
O8    O     O_R   0.579470 0.498740 0.439000 -0.500017
C3    C     C_R   0.386714 0.655069 0.383420 0.795892
C4    C     C_R   0.612946 0.154559 0.617048 0.779903
O9    O     O_3   0.502480 0.662320 0.550800 -0.370893
O10   O     O_3   0.497520 0.162320 0.449200 -0.364521
V1    V     V_3+5 0.499540 0.935370 0.490580 1.613230
V2    V     V_3+5 0.500460 0.435370 0.509420 1.632622
C5    C     C_R   0.683965 0.018846 0.750041 -0.170819
C6    C     C_R   0.317029 0.520134 0.250914 -0.202158
C7    C     C_R   0.681454 0.144500 0.685959 -0.242706
C8    C     C_R   0.318121 0.645229 0.314878 -0.241815
C9    C     C_R   0.750137 0.253646 0.685748 0.519158
C10   C     C_R   0.247940 0.749934 0.315946 0.519901
C11   C     C_R   0.817441 0.243222 0.749116 0.476806
C12   C     C_R   0.180617 0.737173 0.252749 0.481040
C13   C     C_R   0.819385 0.118102 0.812701 -0.260406
C14   C     C_R   0.180546 0.615665 0.188034 -0.261747
C15   C     C_R   0.755133 0.996746 0.806856 -0.087213
C16   C     C_R   0.246684 0.497532 0.193391 -0.075032
C17   C     C_3   0.755779 0.792610 0.793019 0.132054
C18   C     C_3   0.249307 0.292212 0.204298 0.142425
C19   C     C_3   0.668346 0.815098 0.746804 0.683027
C20   C     C_3   0.334522 0.317296 0.255705 0.648171
C21   C     C_R   0.331033 0.166585 0.636606 -0.159910
C22   C     C_R   0.668577 0.660733 0.363530 -0.155586
C23   C     C_R   0.164313 0.103562 0.859116 -0.180111
C24   C     C_R   0.834729 0.607566 0.139686 -0.173042
C25   C     C_R   0.255322 0.909197 0.797627 -0.121002
C26   C     C_R   0.730508 0.428575 0.187295 -0.111953
C27   C     C_R   0.206389 0.936911 0.854735 -0.247168
C28   C     C_R   0.783631 0.453978 0.133969 -0.264295
C29   C     C_R   0.176075 0.246914 0.806825 0.597176
C30   C     C_R   0.830335 0.738513 0.200075 0.604181
C31   C     C_R   0.226809 0.220162 0.749450 -0.051048
C32   C     C_R   0.777063 0.712282 0.255036 -0.052337
C33   C     C_R   0.265649 0.048785 0.743869 -0.027257
C34   C     C_R   0.726899 0.555517 0.248790 -0.027781
C35   C     C_R   0.315317 0.020842 0.685765 0.565263
C36   C     C_R   0.673389 0.529533 0.303413 0.559583
C37   C     C_R   0.290359 0.334885 0.641771 -0.219320
C38   C     C_R   0.720023 0.813573 0.369928 -0.220895
C39   C     C_R   0.238794 0.360878 0.696744 -0.104571
C40   C     C_R   0.773446 0.838950 0.316741 -0.096178
H1    H     H_    0.299269 0.449681 0.603697 0.198796
H2    H     H_    0.717948 0.916720 0.415827 0.177418
H3    H     H_    0.285113 0.777770 0.795870 0.180972
H4    H     H_    0.692802 0.307990 0.180591 0.183567
H5    H     H_    0.209639 0.492959 0.698840 0.202733
H6    H     H_    0.811156 0.959512 0.323525 0.201106
H7    H     H_    0.200351 0.824114 0.894903 0.179720
H8    H     H_    0.785141 0.350932 0.087909 0.161307
O11   O     O_R   0.920630 0.775410 0.061150 -0.504668
O12   O     O_R   0.079370 0.275410 0.938850 -0.500986
O13   O     O_R   0.086500 0.441450 0.093690 -0.552774
O14   O     O_R   0.913500 0.941450 0.906310 -0.552809
C41   C     C_R   0.112868 0.609320 0.117499 0.781171
C42   C     C_R   0.887276 0.109949 0.882595 0.780499
O15   O     O_R   0.921670 0.445960 0.070740 -0.547733
O16   O     O_R   0.078330 0.945960 0.929260 -0.550199
O17   O     O_R   0.913380 0.271130 0.915780 -0.526557
O18   O     O_R   0.086620 0.771130 0.084220 -0.527607
C43   C     C_R   0.896872 0.613040 0.087134 0.757676
C44   C     C_R   0.103486 0.112103 0.913184 0.752002
O19   O     O_3   0.997500 0.603030 0.949220 -0.381513
O20   O     O_3   0.002500 0.103030 0.050780 -0.383458
V3    V     V_3+5 0.000470 0.329940 0.009420 1.473986
V4    V     V_3+5 0.999530 0.829940 0.990580 1.471475
F1    F     F_    0.754706 0.358281 0.620205 -0.645918
F2    F     F_    0.242431 0.854793 0.381382 -0.636501
F3    F     F_    0.136418 0.408668 0.809576 -0.679674
F4    F     F_    0.879909 0.885886 0.207613 -0.667245
F5    F     F_    0.884388 0.339970 0.743897 -0.666433
F6    F     F_    0.112361 0.829407 0.258812 -0.657396
C45   C     C_3   0.768271 0.669163 0.869676 -0.327639
C46   C     C_3   0.744062 0.755496 0.944938 -0.766486
H9    H     H_    0.786777 0.864398 0.969730 0.239292
H10   H     H_    0.683736 0.816740 0.934278 0.213306
H11   H     H_    0.744052 0.647375 0.990733 0.203468
H12   H     H_    0.736534 0.537134 0.855428 0.145143
H13   H     H_    0.832162 0.630583 0.886971 0.215161
C47   C     C_3   0.243445 0.179008 0.124766 -0.345434
C48   C     C_3   0.259004 0.286499 0.050615 -0.743305
H14   H     H_    0.206958 0.374543 0.026773 0.242118
H15   H     H_    0.311279 0.378373 0.063277 0.208099
H16   H     H_    0.269037 0.188780 0.002921 0.203201
H17   H     H_    0.284503 0.059712 0.134468 0.160081
H18   H     H_    0.182845 0.119070 0.108220 0.197269
C49   C     C_3   0.810728 0.738680 0.730444 -0.298779
C50   C     C_3   0.901933 0.744470 0.755688 -0.547456
H19   H     H_    0.922959 0.663899 0.810628 0.260078
H20   H     H_    0.924059 0.887102 0.762380 0.197325
H21   H     H_    0.929612 0.682359 0.706985 0.256660
H22   H     H_    0.794374 0.599566 0.709962 0.278805
H23   H     H_    0.796577 0.827137 0.675986 0.211094
C51   C     C_3   0.192571 0.226348 0.262937 -0.305073
C52   C     C_3   0.101935 0.226978 0.235546 -0.541548
H24   H     H_    0.084801 0.149758 0.179210 0.258002
H25   H     H_    0.077317 0.368081 0.231304 0.199376
H26   H     H_    0.073812 0.158045 0.282091 0.270311
H27   H     H_    0.211095 0.086608 0.280791 0.260101
H28   H     H_    0.202904 0.309898 0.319111 0.226187
C53   C     C_3   0.598410 0.765472 0.791382 -0.472516
C54   C     C_3   0.518737 0.742012 0.734976 -0.513853
H29   H     H_    0.520230 0.616151 0.698309 0.241631
H30   H     H_    0.470574 0.725366 0.771232 0.209786
H31   H     H_    0.505345 0.864326 0.695923 0.241962
H32   H     H_    0.610414 0.634301 0.824438 0.177083
H33   H     H_    0.589262 0.875206 0.834660 0.156960
C55   C     C_3   0.410904 0.269787 0.221013 -0.343266
C56   C     C_3   0.439189 0.071698 0.238127 -0.608355
H34   H     H_    0.466382 0.055916 0.302431 0.265288
H35   H     H_    0.389328 0.972661 0.223865 0.181065
H36   H     H_    0.485707 0.036923 0.201673 0.194894
H37   H     H_    0.404080 0.295827 0.155999 0.146968
H38   H     H_    0.460128 0.360816 0.250084 0.208980
F7    F     F_    0.657113 0.739948 0.669939 -0.668569
F8    F     F_    0.341541 0.247457 0.333211 -0.663598
F9    F     F_    0.348872 0.853858 0.678258 -0.728523
F10   F     F_    0.623852 0.382096 0.295700 -0.717488

loop_
_geom_bond_atom_site_label_1
_geom_bond_atom_site_label_2
_ccdc_geom_bond_type
C51   H28   S    
O13   C41   A    
C30   F4    S    
C28   H8    S    
C15   C17   S    
C24   C30   A    
C53   C54   S    
O1    C3    A    
C46   H11   S    
C18   C47   S    
O2    C4    A    
C2    O7    A    
C54   H30   S    
C49   C50   S    
C47   H17   S    
O5    C3    A    
C52   H25   S    
C38   H2    S    
C7    C9    A    
C12   C14   A    
C17   C45   S    
C51   H27   S    
C37   H1    S    
C42   O17   A    
C48   H15   S    
C21   C37   A    
C41   O18   A    
C33   C35   A    
C20   F8    S    
C12   F6    S    
C55   C56   S    
C51   C52   S    
C37   C39   A    
C38   C40   A    
C26   H4    S    
C53   H32   S    
C39   H5    S    
C18   C20   S    
O15   C43   A    
C49   H22   S    
C24   C43   S    
O16   C44   A    
C32   C40   A    
O5    V1    S    
C45   H12   S    
O6    V2    S    
C29   C31   A    
O11   C43   A    
C30   C32   A    
C54   H29   S    
C32   C34   A    
C56   H35   S    
O11   V4    S    
C45   H13   S    
C52   H26   S    
C34   C36   A    
C3    C8    S    
C22   C38   A    
O20   V3    S    
C5    C15   A    
C24   C28   A    
C6    C16   A    
C46   H9    S    
C10   F2    S    
O4    C2    A    
C48   H14   S    
O14   C42   A    
O4    V2    S    
C23   C27   A    
C36   F10   S    
C45   C46   S    
O6    C4    A    
C27   H7    S    
C1    C22   S    
O14   V4    S    
O12   C44   A    
O1    V2    S    
C55   H38   S    
C47   H18   S    
O2    V1    S    
C31   C33   A    
C49   H23   S    
C40   H6    S    
C8    C10   A    
C23   C44   S    
C50   H20   S    
C9    C11   A    
O18   V4    S    
C13   C15   A    
C5    C19   S    
O19   V4    S    
C10   C12   A    
O12   V3    S    
C6    C20   S    
C19   F7    S    
C9    F1    S    
O3    V1    S    
C56   H36   S    
C11   F5    S    
C14   C41   S    
C13   C42   S    
C20   C55   S    
O3    C1    A    
C29   F3    S    
C56   H34   S    
C35   F9    S    
O16   V4    S    
C50   H21   S    
C52   H24   S    
C22   C36   A    
C14   C16   A    
C2    C21   S    
C17   C49   S    
C53   H33   S    
C16   C18   S    
O7    V1    S    
C1    O8    A    
C17   C19   S    
O8    V2    S    
C48   H16   S    
C26   C28   A    
C31   C39   A    
C47   C48   S    
O13   V3    S    
C21   C35   A    
C4    C7    S    
C5    C7    A    
O17   V3    S    
C6    C8    A    
C55   H37   S    
C11   C13   A    
C23   C29   A    
C26   C34   A    
C25   H3    S    
O15   V3    S    
C25   C27   A    
C50   H19   S    
O9    V2    S    
C18   C51   S    
C19   C53   S    
O10   V1    S    
C46   H10   S    
C25   C33   A    
C54   H31   S    
