data_mof_unit_31901.cif
_audit_creation_date              2012-12-11T15:59:44-0500
_audit_creation_method            fapswitch 2.2
_symmetry_space_group_name_H-M    P1
_symmetry_Int_Tables_number       1
_space_group_crystal_system       triclinic
_cell_length_a                    10.711582
_cell_length_b                    10.76827
_cell_length_c                    17.096019
_cell_angle_alpha                 99.668927
_cell_angle_beta                  99.949244
_cell_angle_gamma                 60.612292
_cell_volume                      1684.38691942

loop_
_atom_site_label
_atom_site_type_symbol
_atom_type_description
_atom_site_fract_x
_atom_site_fract_y
_atom_site_fract_z
_atom_type_partial_charge
C1    C     C_R   0.356130 0.769024 0.397852 0.539797
C2    C     C_R   0.818243 0.351561 0.323423 0.002746
C3    C     C_R   0.355123 0.816864 0.157725 0.003889
C4    C     C_R   0.369240 0.346586 0.357431 0.565317
C5    C     C_R   0.449272 0.848452 0.216725 0.015853
C6    C     C_R   0.433970 0.854900 0.297931 -0.011008
C7    C     C_R   0.281382 0.741548 0.256925 -0.141820
C8    C     C_R   0.282247 0.751873 0.178111 -0.146991
C9    C     C_R   0.560584 0.869097 0.197861 -0.118994
C10   C     C_R   0.649618 0.900149 0.258156 -0.114060
C11   C     C_R   0.625722 0.918745 0.337695 0.091981
C12   C     C_R   0.853208 0.206667 0.196634 0.031369
C13   C     C_R   0.513185 0.904517 0.357013 -0.073847
C14   C     C_R   0.347117 0.802356 0.317618 0.007727
C15   C     C_R   0.298844 0.278194 0.799550 -0.002664
C16   C     C_R   0.773958 0.378829 0.402740 0.539493
C17   C     C_R   0.424075 0.176741 0.762342 0.036539
C18   C     C_R   0.477772 0.224424 0.711968 0.034109
C19   C     C_R   0.250072 0.447459 0.707345 -0.148636
C20   C     C_R   0.211597 0.412452 0.770580 -0.144321
C21   C     C_R   0.501320 0.030652 0.776804 -0.080610
C22   C     C_R   0.639436 0.942161 0.754122 -0.108633
C23   C     C_R   0.865579 0.216078 0.280547 0.018295
C24   C     C_R   0.703257 0.998124 0.716847 -0.105039
C25   C     C_R   0.623521 0.138017 0.696022 -0.080122
C26   C     C_R   0.381823 0.353419 0.676619 -0.011673
C27   C     C_1   0.818184 0.342236 0.709025 -0.060258
C28   C     C_R   0.381247 0.715400 0.631563 0.533387
C29   C     C_1   0.845190 0.313888 0.776676 -0.050220
C30   C     C_1   0.358411 0.765151 0.713742 -0.055652
C31   C     C_1   0.325640 0.811722 0.780619 -0.060238
C32   C     C_R   0.890474 0.309101 0.086721 0.546407
C33   C     C_R   0.319492 0.299802 0.120098 0.562421
C34   C     C_R   0.776490 0.472930 0.283988 -0.138449
C35   C     C_R   0.298567 0.887233 0.084141 0.550579
C36   C     C_R   0.886344 0.297416 0.858989 0.546085
C37   C     C_R   0.278751 0.253523 0.877056 0.544637
C38   C     C_R   0.280976 0.880982 0.857722 0.538077
C39   C     C_R   0.407902 0.375039 0.600030 0.522818
C40   C     C_R   0.773367 0.380768 0.629780 0.534526
C41   C     C_1   0.342939 0.336731 0.274085 -0.036009
C42   C     C_1   0.332045 0.326485 0.203341 -0.035177
C43   C     C_R   0.827326 0.327872 0.159614 -0.003384
C44   C     C_R   0.782506 0.460856 0.203507 -0.156346
C45   C     C_R   0.871247 0.075434 0.153615 -0.058784
C46   C     C_R   0.925435 0.952687 0.192546 -0.134876
C47   C     C_R   0.955601 0.959560 0.275098 -0.117845
C48   C     C_R   0.924269 0.090324 0.319156 -0.072454
Cr1   Cr    Cr6+3 0.608100 0.610860 0.522250 1.034553
Cr2   Cr    Cr6+3 0.288890 0.599990 0.488420 1.038146
Cr3   Cr    Cr6+3 0.603040 0.289190 0.489390 1.042824
Cr4   Cr    Cr6+3 0.053960 0.052250 0.967380 1.015623
Cr5   Cr    Cr6+3 0.059890 0.373160 0.992710 1.014102
Cr6   Cr    Cr6+3 0.373370 0.061690 0.991710 1.001640
H1    H     H_    0.736520 0.579500 0.315038 0.165436
H2    H     H_    0.942214 0.852222 0.158720 0.100602
H3    H     H_    0.997090 0.864351 0.305409 0.145853
H4    H     H_    0.588294 0.849727 0.137575 0.138094
H5    H     H_    0.218152 0.716946 0.133275 0.133572
H6    H     H_    0.114149 0.490512 0.796936 0.144971
H7    H     H_    0.676620 0.176681 0.666682 0.157377
H8    H     H_    0.947377 0.092135 0.383381 0.148325
H9    H     H_    0.227136 0.686236 0.270118 0.137491
H10   H     H_    0.738591 0.906739 0.242722 0.134777
H11   H     H_    0.494117 0.925800 0.419065 0.156392
H12   H     H_    0.176944 0.548139 0.682630 0.147176
H13   H     H_    0.456109 0.984435 0.806168 0.151444
H14   H     H_    0.698120 0.831614 0.767526 0.121716
H15   H     H_    0.812964 0.932244 0.702077 0.129397
H16   H     H_    0.840626 0.066231 0.090176 0.138939
H17   H     H_    0.758556 0.555050 0.176214 0.137829
I1    I     I_    0.769689 0.946738 0.431082 -0.361826
O1    O     O_R   0.749810 0.499790 0.438040 -0.511132
O2    O     O_R   0.411730 0.181020 0.091530 -0.506523
O3    O     O_R   0.365010 0.944360 0.063320 -0.510688
O4    O     O_R   0.477660 0.726260 0.439290 -0.501446
O5    O     O_R   0.159380 0.906670 0.876210 -0.501433
O6    O     O_R   0.930820 0.177420 0.886730 -0.493544
O7    O     O_R   0.910360 0.395420 0.895720 -0.523588
O8    O     O_R   0.186010 0.361730 0.919870 -0.497838
O9    O     O_R   0.400000 0.173010 0.914630 -0.516996
O10   O     O_R   0.354140 0.936940 0.899340 -0.536709
O11   O     O_3   0.162410 0.162370 0.983930 -0.261850
O12   O     O_R   0.298970 0.468800 0.557390 -0.499995
O13   O     O_R   0.260150 0.743000 0.412270 -0.516244
O14   O     O_R   0.297740 0.466550 0.394720 -0.498108
O15   O     O_R   0.488080 0.253500 0.386430 -0.477674
O16   O     O_R   0.722670 0.303800 0.421940 -0.484174
O17   O     O_R   0.751130 0.502220 0.613520 -0.506317
O18   O     O_R   0.478890 0.728510 0.601960 -0.482195
O19   O     O_R   0.261470 0.745430 0.587750 -0.498301
O20   O     O_R   0.489400 0.255930 0.561910 -0.495550
O21   O     O_R   0.723890 0.306050 0.584610 -0.523854
O22   O     O_3   0.500010 0.500010 0.500020 -0.292873
O23   O     O_R   0.171100 0.914680 0.053100 -0.513726
O24   O     O_R   0.941680 0.184840 0.050710 -0.508869
O25   O     O_R   0.922080 0.403420 0.072610 -0.517364
O26   O     O_R   0.196880 0.369150 0.083850 -0.495406

loop_
_geom_bond_atom_site_label_1
_geom_bond_atom_site_label_2
_ccdc_geom_bond_type
C27   C29   T    
C41   C42   T    
C19   C20   A    
C18   C26   A    
Cr1   O18   S    
Cr2   O12   S    
C7    C8    A    
C4    O15   A    
C13   H11   S    
C45   C46   A    
C29   C36   S    
C35   O3    A    
Cr4   O23   S    
C33   C42   S    
Cr5   O7    S    
C39   O12   A    
C33   O26   A    
C12   C43   A    
C8    H5    S    
C30   C31   T    
C26   C39   S    
C47   H3    S    
C4    C41   S    
C32   O25   A    
C19   H12   S    
C9    H4    S    
C19   C26   A    
C15   C37   S    
Cr2   O13   S    
Cr6   O2    S    
C7    C14   A    
Cr1   O22   S    
C20   H6    S    
C2    C16   S    
C9    C10   A    
C40   O21   A    
C2    C34   A    
C34   H1    S    
C21   C22   A    
C38   O10   A    
C37   O9    A    
C18   C25   A    
Cr4   O6    S    
Cr6   O11   S    
C24   H15   S    
C1    O13   A    
C15   C20   A    
C37   O8    A    
C16   O1    A    
Cr5   O8    S    
C34   C44   A    
C24   C25   A    
C3    C8    A    
Cr3   O15   S    
C11   I1    S    
Cr2   O22   S    
Cr5   O25   S    
C17   C21   A    
C44   H17   S    
Cr4   O11   S    
C43   C44   A    
C5    C9    A    
Cr3   O20   S    
C6    C14   A    
Cr2   O19   S    
C48   H8    S    
C47   C48   A    
C12   C23   A    
C3    C35   S    
C27   C40   S    
C22   H14   S    
C17   C18   A    
Cr1   O4    S    
C25   H7    S    
C7    H9    S    
Cr3   O21   S    
C32   O24   A    
C40   O17   A    
Cr1   O1    S    
Cr4   O5    S    
C39   O20   A    
Cr6   O10   S    
C15   C17   A    
C46   C47   A    
C23   C48   A    
C45   H16   S    
C1    O4    A    
C10   H10   S    
Cr1   O17   S    
C12   C45   A    
C3    C5    A    
C36   O7    A    
Cr3   O16   S    
C38   O5    A    
C35   O23   A    
Cr5   O26   S    
C31   C38   S    
Cr5   O11   S    
C28   C30   S    
C36   O6    A    
C6    C13   A    
C11   C13   A    
C5    C6    A    
C32   C43   S    
Cr4   O24   S    
C28   O19   A    
C22   C24   A    
C10   C11   A    
Cr2   O14   S    
Cr3   O22   S    
Cr6   O3    S    
C33   O2    A    
C4    O14   A    
C46   H2    S    
C2    C23   A    
C16   O16   A    
C28   O18   A    
C1    C14   S    
Cr6   O9    S    
C21   H13   S    
