data_mof_unit_66971.cif
_audit_creation_date              2013-03-05T15:58:12-0500
_audit_creation_method            fapswitch 2.2
_symmetry_space_group_name_H-M    P1
_symmetry_Int_Tables_number       1
_space_group_crystal_system       triclinic
_cell_length_a                    8.240576
_cell_length_b                    12.81113
_cell_length_c                    14.37501
_cell_angle_alpha                 93.792689
_cell_angle_beta                  90.06522
_cell_angle_gamma                 98.72085
_cell_volume                      1496.65917249

loop_
_atom_site_label
_atom_site_type_symbol
_atom_site_description
_atom_site_fract_x
_atom_site_fract_y
_atom_site_fract_z
_atom_type_partial_charge
P1    P     P_3+3 0.054400 0.427280 0.286870 0.489486
O1    O     O_2   0.887370 0.460630 0.272300 -0.260571
O2    O     O_3   0.129410 0.451380 0.388510 -0.417096
O3    O     O_3   0.670210 0.653170 0.329170 -0.339612
O4    O     O_2   0.756150 0.561009 0.169394 -0.328540
O5    O     O_3   0.012130 0.291142 0.258440 -0.622374
O6    O     O_3   0.761575 0.759894 0.161499 -0.518770
C1    C     C_3   0.713179 0.906303 0.076564 -0.599919
H1    H     H_    0.839871 0.949504 0.087976 0.200160
H2    H     H_    0.712286 0.854112 0.012003 0.194111
P2    P     P_3+3 0.668300 0.742890 0.573060 0.447548
P3    P     P_3+3 0.134758 0.841175 0.379745 0.532796
O7    O     O_2   0.845380 0.761330 0.544970 -0.392264
O8    O     O_3   0.088930 0.704860 0.376040 -0.384487
O9    O     O_2   0.005422 0.883852 0.442906 -0.274833
O10   O     O_3   0.680714 0.767256 0.694280 -0.584943
O11   O     O_3   0.093589 0.879396 0.268668 -0.475372
C2    C     C_3   0.217451 0.852090 0.208958 0.410635
H3    H     H_    0.232874 0.767618 0.213034 0.063840
H4    H     H_    0.335008 0.904410 0.227097 0.011313
C3    C     C_3   0.171965 0.867652 0.108763 -0.946720
H5    H     H_    0.055921 0.815269 0.088082 0.287026
H6    H     H_    0.156807 0.951433 0.101433 0.247191
C4    C     C_3   0.230149 0.763936 0.660137 0.151031
H7    H     H_    0.361848 0.756999 0.656126 0.120701
H8    H     H_    0.166482 0.734748 0.593151 0.120777
C5    C     C_3   0.210286 0.879331 0.680498 0.341476
H9    H     H_    0.234288 0.902819 0.755413 0.097242
H10   H     H_    0.083006 0.890290 0.664265 0.092309
Ba1   Ba    Ba6+2 0.855630 0.555280 0.454520 1.602052
C6    C     C_3   0.981959 0.234831 0.338187 0.149518
H11   H     H_    0.849782 0.227496 0.354185 0.099979
H12   H     H_    0.054956 0.270118 0.400377 0.141539
C7    C     C_3   0.027409 0.125968 0.316752 0.359841
H13   H     H_    0.955627 0.085583 0.255823 0.086756
H14   H     H_    0.159907 0.131857 0.300572 0.053907
C8    C     C_3   0.731214 0.681702 0.735561 0.443217
H15   H     H_    0.834744 0.653935 0.697323 0.108496
H16   H     H_    0.626439 0.616197 0.737433 0.108913
C9    C     C_3   0.788253 0.718082 0.834843 -1.038775
H17   H     H_    0.906852 0.772315 0.834072 0.268106
H18   H     H_    0.803104 0.649642 0.875538 0.231551
H19   H     H_    0.696389 0.761003 0.870060 0.265012
P4    P     P_3+3 0.135310 0.572810 0.713130 0.469497
O12   O     O_2   0.302330 0.539400 0.727760 -0.355882
O13   O     O_3   0.060300 0.548700 0.611500 -0.407114
O14   O     O_3   0.519500 0.346920 0.670840 -0.395756
O15   O     O_3   0.162967 0.709950 0.735428 -0.626132
P5    P     P_3+3 0.060523 0.156550 0.625301 0.517583
O16   O     O_3   0.614310 0.373510 0.452640 -0.340135
O17   O     O_3   0.100780 0.295230 0.623970 -0.382181
O18   O     O_2   0.188592 0.113398 0.561186 -0.272425
O19   O     O_3   0.113752 0.123845 0.736291 -0.494460
Ba2   Ba    Ba6+2 0.334200 0.444810 0.545490 1.595441
P6    P     P_3+3 0.655489 0.645832 0.207221 0.523666
C10   C     C_3   0.660271 0.838521 0.158442 0.454250
H20   H     H_    0.528521 0.805543 0.148269 -0.047305
O20   O     O_3   0.575400 0.626570 0.547370 -0.399794
C11   C     C_3   0.452484 0.297171 0.261799 1.257573
H21   H     H_    0.337249 0.312808 0.295916 -0.051720
C12   C     C_3   0.414298 0.265903 0.159283 -1.053218
H22   H     H_    0.323580 0.192218 0.152071 0.217857
H23   H     H_    0.362265 0.329812 0.126608 0.230101
H24   H     H_    0.528461 0.252922 0.122234 0.266449
P7    P     P_3+3 0.526657 0.239943 0.423618 0.438211
O21   O     O_2   0.344320 0.238700 0.455090 -0.396301
O22   O     O_3   0.516754 0.214820 0.302164 -0.656829
H25   H     H_    0.270275 0.847093 0.061352 0.215618
C13   C     C_3   0.988061 0.143449 0.797621 0.366429
H26   H     H_    0.959407 0.225333 0.793696 0.079345
H27   H     H_    0.877236 0.084364 0.781064 0.047732
C14   C     C_3   0.042142 0.131276 0.897025 -0.909413
H28   H     H_    0.152935 0.189818 0.915891 0.291303
H29   H     H_    0.942103 0.145071 0.945930 0.210334
H30   H     H_    0.070935 0.050105 0.903736 0.246299
P8    P     P_3+3 0.534804 0.351809 0.793385 0.465739
C15   C     C_3   0.535603 0.151679 0.765990 0.558166
H31   H     H_    0.663059 0.180899 0.744426 -0.072714
O23   O     O_2   0.401626 0.413965 0.834259 -0.366676
O24   O     O_3   0.473288 0.224091 0.828786 -0.512391
H32   H     H_    0.455199 0.135724 0.702977 0.173494
H33   H     H_    0.630279 0.061712 0.870194 0.240572
C16   C     C_3   0.537602 0.048976 0.812920 -0.974041
H34   H     H_    0.569379 0.986789 0.761581 0.250734
H35   H     H_    0.415741 0.022355 0.843120 0.273086
C17   C     C_R   0.987539 0.443813 0.060688 -0.123570
C18   C     C_R   0.180730 0.498261 0.196879 0.213873
C19   C     C_R   0.333022 0.551365 0.228336 -0.402525
C20   C     C_R   0.445864 0.598685 0.166760 0.234415
C21   C     C_R   0.404775 0.600882 0.073758 -0.333222
C22   C     C_R   0.247548 0.555579 0.039321 0.052012
C23   C     C_R   0.136805 0.497615 0.099602 -0.022276
H36   H     H_    0.368439 0.550447 0.300771 0.179581
C24   C     C_R   0.054888 0.510153 0.904997 -0.045106
C25   C     C_R   0.944888 0.450483 0.965863 0.062224
C26   C     C_R   0.007943 0.508480 0.807577 0.283325
C27   C     C_R   0.850955 0.460431 0.779543 -0.518279
C28   C     C_R   0.740642 0.409212 0.840102 0.234824
C29   C     C_R   0.788592 0.401114 0.932467 -0.284993
C30   C     C_R   0.202271 0.568668 0.945943 0.011301
H37   H     H_    0.498570 0.637376 0.028410 0.149039
H38   H     H_    0.702627 0.358435 0.978721 0.160304
H39   H     H_    0.808549 0.469349 0.710450 0.148043
H40   H     H_    0.902164 0.396434 0.103824 0.181329
C31   C     C_R   0.756278 0.174952 0.543189 -0.344816
C32   C     C_R   0.430279 0.812608 0.463785 -0.463805
C33   C     C_R   0.404722 0.992691 0.433767 -0.116136
C34   C     C_R   0.341961 0.885652 0.427421 0.188799
C35   C     C_R   0.576270 0.846034 0.514305 0.310762
C36   C     C_R   0.638823 0.956779 0.525139 0.032617
C37   C     C_R   0.552297 0.030402 0.482307 0.014535
C38   C     C_R   0.615255 0.139827 0.489315 0.173360
C39   C     C_R   0.848899 0.104544 0.580318 0.182303
C40   C     C_R   0.787029 0.996265 0.574205 -0.166108
H41   H     H_    0.334224 0.045566 0.402218 0.171019
H42   H     H_    0.857268 0.944271 0.606584 0.155850
H43   H     H_    0.379610 0.729400 0.457676 0.154596
C41   C     C_1   0.682443 0.904471 0.245644 0.090258
N1    N     N_1   0.701954 0.956950 0.314142 -0.051366
F1    F     F_    0.317972 0.944293 0.628958 -0.715080
F2    F     F_    0.995126 0.068585 0.393638 -0.667475
C42   C     C_1   0.601132 0.983026 0.062681 0.107256
N2    N     N_1   0.512683 0.043298 0.051854 -0.068055
F3    F     F_    0.565670 0.388639 0.268143 -0.666279
C43   C     C_1   0.298799 0.655655 0.902235 0.160435
N3    N     N_1   0.380037 0.726851 0.871826 -0.076166
C44   C     C_1   0.808952 0.285654 0.557920 0.184373
N4    N     N_1   0.852170 0.375321 0.568604 0.011581

loop_
_geom_bond_atom_site_label_1
_geom_bond_atom_site_label_2
_geom_bond_distance
_ccdc_geom_bond_type
P1    C18   1.858968 S    
P5    C39   1.868517 S    
C18   C19   1.393333 A    
C5    H10   1.105769 S    
C2    C3    1.521231 S    
C37   C38   1.416033 A    
C4    C5    1.521243 S    
O6    P6    1.752862 S    
O19   C13   1.401719 S    
C1    C10   1.533309 S    
C27   C28   1.382486 A    
P7    C38   1.874200 S    
C15   H31   1.111865 S    
Ba1   Ba2   4.603397 S    
O16   Ba2   2.903280 S    
C31   C39   1.397339 A    
C4    H8    1.110865 S    
O14   P8    1.762247 S    
P1    O1    1.520022 D    
C8    C9    1.522834 S    
C13   H26   1.114590 S    
O2    Ba2   2.829622 S    
C25   C29   1.414475 A    
P2    C35   1.866722 S    
C15   C16   1.520039 S    
P8    C28   1.850077 S    
C11   F3    1.380447 S    
C10   H20   1.109501 S    
C12   H23   1.109818 S    
C7    H13   1.109404 S    
C13   H27   1.108919 S    
C36   C37   1.434181 A    
C11   O22   1.407114 S    
C41   N1    1.151822 T    
C9    H19   1.105437 S    
C16   H34   1.110783 S    
P2    Ba1   3.413617 S    
C1    H1    1.111564 S    
P5    O17   1.758608 S    
P3    O11   1.748433 S    
C33   C34   1.387265 A    
P8    O23   1.545418 D    
C15   H32   1.111013 S    
C22   C30   1.420122 A    
P2    O20   1.588623 S    
C36   C40   1.417191 A    
C2    H4    1.111351 S    
O10   C8    1.396569 S    
C9    H18   1.107333 S    
O5    C6    1.397159 S    
Ba1   O16   2.822296 S    
C17   H40   1.081287 S    
C11   H21   1.108215 S    
C3    H5    1.109748 S    
C24   C25   1.432388 A    
C33   C37   1.405171 A    
O6    C10   1.405076 S    
O8    Ba1   2.795488 S    
C14   H30   1.111308 S    
P4    O13   1.578657 S    
C11   C12   1.521123 S    
C31   C44   1.420554 S    
C30   C43   1.447184 S    
C4    O15   1.393017 S    
O7    Ba1   2.877448 S    
C4    H7    1.103519 S    
C14   H29   1.110904 S    
C22   C23   1.420059 A    
P3    C34   1.833163 S    
C2    H3    1.113903 S    
P7    O22   1.753796 S    
C5    F1    1.374092 S    
P1    O5    1.746808 S    
P1    O2    1.578779 S    
O2    Ba1   2.917293 S    
C21   H37   1.082975 S    
C8    H15   1.106242 S    
P4    C26   1.874314 S    
P2    O10   1.749945 S    
C6    H11   1.104762 S    
P3    O9    1.540279 D    
C24   C30   1.430868 A    
P5    O18   1.542912 D    
C26   C27   1.392626 A    
O13   Ba2   2.918057 S    
C6    H12   1.108265 S    
O11   C2    1.404091 S    
C6    C7    1.510658 S    
C24   C26   1.450376 A    
C33   H41   1.077695 S    
C27   H39   1.071432 S    
O14   Ba2   2.832778 S    
C1    H2    1.106722 S    
C9    H17   1.110473 S    
C16   H35   1.109026 S    
C31   C38   1.394998 A    
P3    O8    1.727088 S    
O12   Ba2   2.842633 S    
C28   C29   1.399739 A    
C7    F2    1.371712 S    
C3    H6    1.111012 S    
O3    P6    1.752390 S    
C43   N3    1.157334 T    
C44   N4    1.150001 T    
C13   C14   1.521154 S    
P4    O12   1.520405 D    
C39   C40   1.400441 A    
Ba2   O20   2.821631 S    
C15   O24   1.404952 S    
C32   H43   1.082094 S    
C19   H36   1.082353 S    
C10   C41   1.459841 S    
O4    P6    1.536497 D    
P8    O24   1.747092 S    
C14   H28   1.111077 S    
C40   H42   1.073628 S    
Ba2   O21   2.877670 S    
Ba1   O13   2.829051 S    
O1    Ba1   2.842116 S    
O17   Ba2   2.796067 S    
C20   C21   1.381880 A    
C3    H25   1.110127 S    
C17   C23   1.411143 A    
C35   C36   1.432375 A    
C12   H24   1.110496 S    
P2    O7    1.502555 D    
C1    C42   1.469424 S    
C21   C22   1.411768 A    
C32   C34   1.396061 A    
P5    O19   1.748153 S    
Ba1   O20   2.904062 S    
P1    Ba1   3.388308 S    
C7    H14   1.108994 S    
P7    O21   1.567763 D    
C12   H22   1.110671 S    
P6    C20   1.822632 S    
O16   P7    1.775916 S    
C17   C25   1.418568 A    
P4    Ba2   3.388763 S    
C29   H38   1.083776 S    
C19   C20   1.384781 A    
C8    H16   1.110751 S    
H33   C16   1.109387 S    
C5    H9    1.108148 S    
C42   N2    1.156715 T    
C18   C23   1.443214 A    
O3    Ba1   2.833377 S    
P4    O15   1.745093 S    
C32   C35   1.399553 A    
