data_mof_unit_55505.cif
_audit_creation_date              2012-12-11T16:44:21-0500
_audit_creation_method            fapswitch 2.2
_symmetry_space_group_name_H-M    P1
_symmetry_Int_Tables_number       1
_space_group_crystal_system       triclinic
_cell_length_a                    27.131528
_cell_length_b                    7.194195
_cell_length_c                    22.823054
_cell_angle_alpha                 89.484194
_cell_angle_beta                  101.710002
_cell_angle_gamma                 89.550832
_cell_volume                      4361.71481887

loop_
_atom_site_label
_atom_site_type_symbol
_atom_type_description
_atom_site_fract_x
_atom_site_fract_y
_atom_site_fract_z
_atom_type_partial_charge
O1    O     O_R   0.707300 0.594030 0.176840 -0.532339
O2    O     O_R   0.292700 0.405970 0.823160 -0.529108
O3    O     O_R   0.792700 0.094030 0.323160 -0.533182
O4    O     O_R   0.207300 0.905970 0.676840 -0.530922
O5    O     O_R   0.697330 0.262360 0.295660 -0.542015
O6    O     O_R   0.302670 0.737640 0.704340 -0.539961
O7    O     O_R   0.802670 0.762360 0.204340 -0.540484
O8    O     O_R   0.197330 0.237640 0.795660 -0.539236
C1    C     C_R   0.684617 0.432527 0.311524 0.670956
C2    C     C_R   0.315395 0.567456 0.688498 0.671820
C3    C     C_R   0.815446 0.932504 0.188511 0.673132
C4    C     C_R   0.185558 0.067774 0.812804 0.671601
O9    O     O_R   0.701410 0.264250 0.175600 -0.532250
O10   O     O_R   0.298590 0.735750 0.824400 -0.537941
O11   O     O_R   0.798590 0.764250 0.324400 -0.534489
O12   O     O_R   0.201410 0.235750 0.675600 -0.534649
O13   O     O_R   0.796800 0.094950 0.202240 -0.537626
O14   O     O_R   0.203200 0.905050 0.797760 -0.536980
O15   O     O_R   0.703200 0.594950 0.297760 -0.538087
O16   O     O_R   0.296800 0.405050 0.702240 -0.539498
C5    C     C_R   0.689403 0.433619 0.153451 0.685765
C6    C     C_R   0.310721 0.565848 0.846436 0.682319
C7    C     C_R   0.809926 0.930986 0.346862 0.690290
C8    C     C_R   0.189785 0.068811 0.653177 0.688143
O17   O     O_3   0.781290 0.427390 0.258880 -0.371251
O18   O     O_3   0.218710 0.572610 0.741120 -0.369451
O19   O     O_3   0.718710 0.927390 0.241120 -0.372074
O20   O     O_3   0.281290 0.072610 0.758880 -0.373860
V1    V     V_3+5 0.744190 0.152150 0.248350 1.396071
V2    V     V_3+5 0.255810 0.847850 0.751650 1.388929
V3    V     V_3+5 0.755810 0.652150 0.251650 1.399315
V4    V     V_3+5 0.244190 0.347850 0.748350 1.398686
C9    C     C_R   0.154175 0.069668 0.594828 -0.050065
C10   C     C_R   0.844387 0.928012 0.405684 -0.050294
C11   C     C_R   0.345413 0.550158 0.905383 -0.045038
C12   C     C_R   0.654654 0.439147 0.094376 -0.043680
C13   C     C_R   0.133124 0.176441 0.492119 -0.159022
C14   C     C_R   0.863402 0.810387 0.507218 -0.160517
C15   C     C_R   0.356594 0.491958 0.011744 -0.156021
C16   C     C_R   0.640662 0.374143 0.988577 -0.155441
C17   C     C_R   0.166952 0.165633 0.546697 -0.156430
C18   C     C_R   0.830006 0.831102 0.452689 -0.159823
C19   C     C_R   0.325190 0.528740 0.956528 -0.160819
C20   C     C_R   0.673307 0.392519 0.043725 -0.162410
C21   C     C_R   0.105731 0.994052 0.588506 -0.238039
C22   C     C_R   0.893661 0.996073 0.413089 -0.209946
C23   C     C_R   0.397923 0.534054 0.910337 -0.216744
C24   C     C_R   0.602408 0.466371 0.089006 -0.209142
C25   C     C_R   0.067915 0.028728 0.536254 0.082625
C26   C     C_R   0.930540 0.950698 0.465043 0.071075
C27   C     C_R   0.430002 0.474621 0.964771 0.073138
C28   C     C_R   0.567924 0.425123 0.034907 0.071675
C29   C     C_R   0.084364 0.104995 0.486204 0.122335
C30   C     C_R   0.913101 0.872507 0.513939 0.108537
C31   C     C_R   0.408579 0.464295 0.016263 0.110867
C32   C     C_R   0.588321 0.389434 0.983793 0.111025
C33   C     C_R   0.015288 0.984811 0.530395 -0.009500
C34   C     C_R   0.983430 0.985464 0.471106 0.005676
C35   C     C_R   0.482464 0.428230 0.970379 0.000907
C36   C     C_R   0.514190 0.420052 0.029375 0.000234
C37   C     C_R   0.006470 0.013640 0.420508 0.081149
C38   C     C_R   0.992346 0.942948 0.580404 0.085862
C39   C     C_R   0.490336 0.385741 0.079001 0.081403
C40   C     C_R   0.504100 0.369367 0.921111 0.083110
C41   C     C_R   0.053898 0.095468 0.429494 -0.239866
C42   C     C_R   0.943949 0.868750 0.570302 -0.224720
C43   C     C_R   0.438323 0.415957 0.071570 -0.234296
C44   C     C_R   0.556644 0.358147 0.928721 -0.233849
H1    H     H_    0.069447 0.135882 0.391104 0.116777
H2    H     H_    0.928038 0.825398 0.608131 0.120601
H3    H     H_    0.420156 0.395471 0.109290 0.117071
H4    H     H_    0.573409 0.318196 0.891348 0.116870
H5    H     H_    0.901893 0.086861 0.378865 0.112248
H6    H     H_    0.098832 0.908649 0.624667 0.137071
H7    H     H_    0.589737 0.523691 0.126699 0.099851
H8    H     H_    0.412896 0.573758 0.872066 0.102015
H9    H     H_    0.792393 0.775373 0.447539 0.110749
H10   H     H_    0.203864 0.226732 0.550831 0.110412
H11   H     H_    0.713304 0.369829 0.046951 0.105287
H12   H     H_    0.284911 0.539796 0.953632 0.104197
H13   H     H_    0.145215 0.240135 0.454248 0.112228
H14   H     H_    0.850387 0.745097 0.544220 0.112593
H15   H     H_    0.339883 0.478978 0.050861 0.112359
H16   H     H_    0.656350 0.341254 0.949815 0.112598
C45   C     C_R   0.868230 0.117695 0.130597 -0.160164
C46   C     C_R   0.138231 0.885374 0.877833 -0.163049
C47   C     C_R   0.626870 0.617857 0.362809 -0.163243
C48   C     C_R   0.373372 0.382061 0.637569 -0.165594
H17   H     H_    0.850726 0.245013 0.141551 0.124719
H18   H     H_    0.157111 0.759127 0.868542 0.125591
H19   H     H_    0.639802 0.745475 0.345703 0.126051
H20   H     H_    0.360624 0.254545 0.654951 0.124258
C49   C     C_R   0.904419 0.130412 0.095030 -0.150936
C50   C     C_R   0.102878 0.872719 0.914521 -0.151741
C51   C     C_R   0.591179 0.630515 0.399071 -0.150115
C52   C     C_R   0.409043 0.369305 0.601279 -0.149024
H21   H     H_    0.914003 0.266614 0.080379 0.102568
H22   H     H_    0.095242 0.737186 0.931468 0.102508
H23   H     H_    0.577455 0.766853 0.408125 0.100884
H24   H     H_    0.422922 0.233013 0.592430 0.100853
C53   C     C_R   0.928390 0.970147 0.079182 0.094341
C54   C     C_R   0.077014 0.031628 0.928071 0.095939
C55   C     C_R   0.573022 0.469778 0.422727 0.095085
C56   C     C_R   0.426993 0.529938 0.577333 0.095211
C57   C     C_R   0.915507 0.796485 0.100432 -0.144741
C58   C     C_R   0.087575 0.203939 0.903717 -0.151660
C59   C     C_R   0.591093 0.295486 0.408299 -0.145468
C60   C     C_R   0.408729 0.704231 0.591462 -0.146808
H25   H     H_    0.932948 0.670028 0.088686 0.102859
H26   H     H_    0.069022 0.329899 0.913860 0.103296
H27   H     H_    0.578391 0.168710 0.426172 0.100113
H28   H     H_    0.421291 0.830889 0.573360 0.100397
C61   C     C_R   0.879092 0.783500 0.135985 -0.167955
C62   C     C_R   0.122773 0.216531 0.866569 -0.166488
C63   C     C_R   0.626792 0.282642 0.371807 -0.163450
C64   C     C_R   0.373024 0.717176 0.627939 -0.162736
H29   H     H_    0.869942 0.647405 0.151148 0.123552
H30   H     H_    0.129704 0.351366 0.848542 0.121834
H31   H     H_    0.640152 0.146211 0.362252 0.120480
H32   H     H_    0.359490 0.853585 0.637243 0.121336
C65   C     C_R   0.854756 0.944049 0.151392 -0.051512
C66   C     C_R   0.148437 0.057102 0.852833 -0.045643
C67   C     C_R   0.645496 0.443862 0.348892 -0.050688
C68   C     C_R   0.354531 0.556052 0.651161 -0.050092
C69   C     C_R   0.010515 0.875371 0.051988 -0.153707
C70   C     C_R   0.994881 0.126105 0.955545 -0.153657
C71   C     C_R   0.496611 0.355187 0.458964 -0.154100
C72   C     C_R   0.503396 0.644451 0.541116 -0.154070
H33   H     H_    0.017737 0.779360 0.089631 0.108708
H34   H     H_    0.987397 0.221548 0.917776 0.107894
H35   H     H_    0.492630 0.243794 0.426813 0.108346
H36   H     H_    0.507355 0.755877 0.573256 0.108454
C73   C     C_R   0.046407 0.891372 0.015950 -0.152536
C74   C     C_R   0.959118 0.110656 0.991738 -0.152828
C75   C     C_R   0.461469 0.370151 0.496001 -0.153335
C76   C     C_R   0.538552 0.629441 0.504101 -0.153286
H37   H     H_    0.080319 0.807136 0.026974 0.108658
H38   H     H_    0.925234 0.195198 0.980944 0.109375
H39   H     H_    0.431462 0.269661 0.491288 0.108038
H40   H     H_    0.568567 0.729901 0.508851 0.107920
C77   C     C_R   0.039081 0.016771 0.967115 0.081326
C78   C     C_R   0.966430 0.985052 0.040435 0.080219
C79   C     C_R   0.464368 0.514946 0.537634 0.081812
C80   C     C_R   0.535647 0.484689 0.462445 0.081917
C81   C     C_3   0.987271 0.933467 0.358156 -0.348862
C82   C     C_3   0.976322 0.724228 0.360086 -0.292807
C83   C     C_3   0.955912 0.650116 0.297440 -0.766083
H41   H     H_    0.919812 0.721020 0.277393 0.228278
H42   H     H_    0.983434 0.672913 0.268150 0.227373
H43   H     H_    0.949001 0.498618 0.300137 0.213914
H44   H     H_    0.011605 0.647735 0.379997 0.195751
H45   H     H_    0.948276 0.694740 0.388022 0.207715
H46   H     H_    0.955186 0.012225 0.331812 0.159152
H47   H     H_    0.016542 0.948629 0.330665 0.169025
C84   C     C_3   0.012862 0.996203 0.644918 -0.356534
C85   C     C_3   0.026860 0.822738 0.685050 -0.328816
C86   C     C_3   0.059279 0.873059 0.745173 -0.736957
H48   H     H_    0.095180 0.933714 0.738327 0.215666
H49   H     H_    0.039278 0.974697 0.768625 0.235779
H50   H     H_    0.067834 0.745832 0.773430 0.217253
H51   H     H_    0.992096 0.755197 0.693062 0.189676
H52   H     H_    0.047452 0.718925 0.663091 0.196817
H53   H     H_    0.043764 0.097867 0.649377 0.173847
H54   H     H_    0.983077 0.074473 0.661693 0.166320
C87   C     C_3   0.515223 0.281616 0.136365 -0.348434
C88   C     C_3   0.537300 0.092217 0.123462 -0.292636
C89   C     C_3   0.561956 0.991570 0.181319 -0.754769
H55   H     H_    0.593359 0.075343 0.206508 0.232016
H56   H     H_    0.533927 0.966621 0.209801 0.221608
H57   H     H_    0.577333 0.855401 0.170583 0.212882
H58   H     H_    0.506727 0.004253 0.098471 0.196246
H59   H     H_    0.566080 0.108772 0.095652 0.208909
H60   H     H_    0.543111 0.365686 0.166417 0.160521
H61   H     H_    0.486872 0.252096 0.164173 0.167903
C90   C     C_3   0.474510 0.280855 0.864015 -0.349176
C91   C     C_3   0.443021 0.114625 0.877297 -0.302150
C92   C     C_3   0.415071 0.026493 0.819533 -0.734399
H62   H     H_    0.389432 0.130046 0.792241 0.233325
H63   H     H_    0.442184 0.973344 0.793024 0.212280
H64   H     H_    0.392303 0.908472 0.830440 0.220197
H65   H     H_    0.468187 0.008254 0.903948 0.196151
H66   H     H_    0.414829 0.157855 0.903594 0.210476
H67   H     H_    0.451709 0.382123 0.833293 0.159787
H68   H     H_    0.500897 0.225990 0.836705 0.168334

loop_
_geom_bond_atom_site_label_1
_geom_bond_atom_site_label_2
_ccdc_geom_bond_type
O17   V3    S    
C48   C52   A    
O1    C5    A    
C86   H48   S    
C47   H19   S    
O19   V1    S    
C9    C21   A    
C16   H16   S    
O3    C7    A    
C83   H41   S    
C10   C18   A    
C56   C60   A    
C73   H37   S    
C48   C68   A    
C11   C23   A    
C55   C80   S    
C81   C82   S    
C25   C33   A    
C33   C38   A    
C89   H56   S    
C5    C12   S    
C75   H39   S    
C6    C11   S    
C35   C40   A    
C26   C30   A    
C58   C62   A    
C36   C39   A    
C40   C44   A    
C57   C61   A    
C85   C86   S    
C83   H42   S    
C71   C75   A    
C23   H8    S    
C14   C18   A    
C2    C68   S    
C72   C76   A    
C58   H26   S    
O4    C8    A    
C51   H23   S    
C44   H4    S    
C70   H34   S    
C87   H60   S    
O1    V3    S    
O13   V1    S    
C38   C84   S    
O2    V4    S    
O3    V1    S    
C37   C81   S    
C46   C50   A    
C45   C49   A    
C1    O15   A    
C15   C31   A    
C48   H20   S    
C2    O16   A    
C92   H63   S    
C47   C51   A    
O2    C6    A    
C45   C65   A    
C10   C22   A    
C54   C77   S    
C21   C25   A    
C11   C19   A    
O15   V3    S    
C43   H3    S    
C76   H40   S    
C13   C29   A    
C7    C10   S    
C34   C37   A    
O11   C7    A    
C85   H52   S    
C35   C36   A    
O12   C8    A    
C88   H59   S    
C14   H14   S    
C24   H7    S    
C13   H13   S    
C3    C65   S    
O10   V2    S    
C72   H36   S    
C84   H53   S    
C51   C55   A    
C89   H57   S    
O5    V1    S    
C53   C57   A    
C91   H65   S    
C39   C43   A    
O7    V3    S    
C38   C42   A    
C26   C34   A    
C83   H43   S    
C63   C67   A    
C4    C66   S    
C46   H18   S    
C49   C53   A    
C89   H55   S    
C45   H17   S    
O18   V4    S    
C23   C27   A    
C16   C32   A    
C19   H12   S    
C32   C44   A    
C60   H28   S    
C21   H6    S    
O8    V4    S    
C86   H49   S    
O7    C3    A    
O5    C1    A    
C69   H33   S    
C74   C78   A    
C53   C78   S    
C31   C43   A    
C90   C91   S    
C14   C30   A    
C24   C28   A    
C69   C78   A    
O8    C4    A    
C92   H64   S    
C56   C79   S    
O9    C5    A    
C40   C90   S    
C59   C63   A    
C62   H30   S    
C88   H58   S    
O14   V2    S    
C81   H47   S    
C91   C92   S    
O6    V2    S    
C85   H51   S    
C86   H50   S    
C63   H31   S    
C52   C56   A    
C88   C89   S    
C82   H45   S    
C12   C20   A    
C27   C35   A    
O9    V1    S    
C49   H21   S    
C17   H10   S    
C29   C41   A    
C90   H67   S    
C82   C83   S    
O16   V4    S    
C61   H29   S    
C69   C73   A    
C57   H25   S    
C3    O13   A    
C64   C68   A    
C59   H27   S    
C20   H11   S    
C74   H38   S    
C15   C19   A    
O11   V3    S    
C30   C42   A    
C84   H54   S    
O12   V4    S    
C22   C26   A    
C70   C77   A    
C73   C77   A    
C8    C9    S    
C9    C17   A    
O10   C6    A    
O20   V2    S    
C87   H61   S    
C81   H46   S    
C76   C80   A    
C47   C67   A    
C60   C64   A    
C33   C34   A    
C42   H2    S    
C41   H1    S    
C52   H24   S    
C75   C79   A    
C1    C67   S    
C12   C24   A    
C27   C31   A    
C71   C80   A    
C13   C17   A    
C46   C66   A    
C64   H32   S    
C72   C79   A    
C71   H35   S    
C25   C29   A    
O6    C2    A    
C91   H66   S    
C39   C87   S    
C15   H15   S    
C82   H44   S    
C62   C66   A    
C37   C41   A    
C87   C88   S    
C16   C20   A    
C61   C65   A    
C70   C74   A    
C18   H9    S    
C28   C36   A    
C92   H62   S    
C54   C58   A    
C4    O14   A    
C84   C85   S    
C50   H22   S    
C55   C59   A    
C22   H5    S    
O4    V2    S    
C28   C32   A    
C50   C54   A    
C90   H68   S    
