data_mof_unit_11767.cif
_audit_creation_date              2012-12-10T16:56:33-0500
_audit_creation_method            fapswitch 2.2
_symmetry_space_group_name_H-M    P1
_symmetry_Int_Tables_number       1
_space_group_crystal_system       triclinic
_cell_length_a                    10.837512
_cell_length_b                    10.938305
_cell_length_c                    9.680679
_cell_angle_alpha                 90.550711
_cell_angle_beta                  89.878301
_cell_angle_gamma                 90.183634
_cell_volume                      1147.52510693

loop_
_atom_site_label
_atom_site_type_symbol
_atom_type_description
_atom_site_fract_x
_atom_site_fract_y
_atom_site_fract_z
_atom_type_partial_charge
C1    C     C_R   0.500814 0.265273 0.499081 0.966602
C2    C     C_3   0.878694 0.494600 0.500208 -0.143297
C3    C     C_3   0.931238 0.552709 0.362784 -0.092005
C4    C     C_3   0.931737 0.360432 0.512361 0.262416
C5    C     C_2   0.477885 0.935136 0.390834 0.402476
C6    C     C_2   0.510241 0.866324 0.499410 -0.504419
C7    C     C_2   0.518157 0.062136 0.389640 0.410009
C8    C     C_2   0.486071 0.133909 0.497264 -0.483332
C9    C     C_2   0.455379 0.411933 0.921488 -0.020195
C10   C     C_2   0.430048 0.427286 0.074461 0.255180
C11   C     C_R   0.260277 0.507314 0.501230 0.793915
C12   C     C_R   0.498240 0.734694 0.500179 0.911459
C13   C     C_R   0.740123 0.494117 0.499478 0.829245
C14   C     C_3   0.068669 0.572069 0.637714 -0.022188
C15   C     C_3   0.924411 0.575231 0.626897 -0.064074
C16   C     C_3   0.071666 0.574643 0.379859 -0.465739
C17   C     C_3   0.075992 0.365773 0.493608 -0.112762
C18   C     C_3   0.122725 0.502553 0.506633 -0.035252
Cu1   Cu    Cu3+1 0.500030 0.500020 0.638630 0.973038
Cu2   Cu    Cu3+1 0.499970 0.499980 0.361370 1.023405
H1    H     H_    0.103164 0.667733 0.628703 0.173664
H2    H     H_    0.896154 0.307169 0.422859 0.119995
H3    H     H_    0.121014 0.551188 0.283038 0.211748
H4    H     H_    0.558953 0.907532 0.586365 0.151722
H5    H     H_    0.436229 0.095128 0.584197 0.124250
H6    H     H_    0.426904 0.328844 0.868994 0.183019
H7    H     H_    0.515802 0.580978 0.895729 0.207237
H8    H     H_    0.575512 0.536211 0.107299 0.196239
H9    H     H_    0.882799 0.534294 0.720406 0.232870
H10   H     H_    0.089076 0.674231 0.393945 0.201891
H11   H     H_    0.886711 0.643590 0.351017 0.196536
H12   H     H_    0.093184 0.343083 0.382821 0.141283
N1    N     N_2   0.498630 0.498660 0.846910 -0.307264
N2    N     N_2   0.498590 0.498630 0.153040 -0.281066
O1    O     O_R   0.500020 0.321960 0.617040 -0.561573
O2    O     O_R   0.499980 0.321920 0.382900 -0.548665
O3    O     O_R   0.317710 0.500000 0.617070 -0.601822
O4    O     O_R   0.317670 0.499960 0.382930 -0.603162
O5    O     O_R   0.500020 0.678080 0.617100 -0.602587
O6    O     O_R   0.499980 0.678040 0.382960 -0.496663
O7    O     O_R   0.682330 0.500040 0.617070 -0.536361
O8    O     O_R   0.682290 0.500000 0.382930 -0.591634
C19   C     C_3   0.905943 0.477640 0.226565 -0.346044
C20   C     C_3   0.884927 0.561330 0.103419 -0.837246
H13   H     H_    0.805020 0.622417 0.123211 0.260978
H14   H     H_    0.968442 0.617699 0.083797 0.259223
H15   H     H_    0.864243 0.505263 0.010122 0.257789
H16   H     H_    0.983689 0.415554 0.200790 0.194706
H17   H     H_    0.825227 0.416153 0.234335 0.257556
S1    S     S_3+6 0.382293 0.884012 0.252773 0.031067
O9    O     O_2   0.459395 0.818891 0.146012 -0.248182
O10   O     O_2   0.284436 0.798782 0.305824 -0.345822
O11   O     O_3   0.314046 0.004857 0.179702 -0.546098
H18   H     H_    0.261292 0.969675 0.105846 0.367275
S2    S     S_3+6 0.617420 0.107436 0.253126 0.053805
O12   O     O_2   0.543601 0.168799 0.142704 -0.269092
O13   O     O_2   0.714544 0.193973 0.306286 -0.328426
O14   O     O_3   0.686384 0.983135 0.185041 -0.508137
H19   H     H_    0.736361 0.014276 0.107062 0.371506
C21   C     C_3   0.316218 0.363784 0.133435 -0.304687
C22   C     C_3   0.253782 0.268429 0.040125 -0.879715
H20   H     H_    0.175057 0.226505 0.096306 0.260135
H21   H     H_    0.216884 0.311238 0.945819 0.237426
H22   H     H_    0.319430 0.194871 0.011186 0.303264
H23   H     H_    0.338267 0.316008 0.229619 0.261370
H24   H     H_    0.246442 0.434705 0.155574 0.187215
C23   C     C_3   0.112842 0.528467 0.783252 -0.324495
C24   C     C_3   0.196552 0.621072 0.858358 -0.816341
H25   H     H_    0.272905 0.653863 0.791942 0.282841
H26   H     H_    0.142554 0.701427 0.893387 0.236874
H27   H     H_    0.236476 0.578252 0.951399 0.247840
H28   H     H_    0.035113 0.514004 0.855069 0.236627
H29   H     H_    0.160152 0.439650 0.775411 0.231635
C25   C     C_3   0.875866 0.709847 0.622101 -0.436048
C26   C     C_3   0.880788 0.774209 0.762735 -0.764732
H30   H     H_    0.833055 0.718992 0.842458 0.248575
H31   H     H_    0.977534 0.790986 0.793916 0.248820
H32   H     H_    0.834016 0.864157 0.756039 0.274195
H33   H     H_    0.929472 0.764835 0.546891 0.219172
H34   H     H_    0.778461 0.712818 0.587584 0.214702
C27   C     C_3   0.152075 0.265419 0.570080 -0.366928
C28   C     C_3   0.155079 0.144223 0.488971 -0.746692
H35   H     H_    0.062185 0.117555 0.451402 0.293363
H36   H     H_    0.216506 0.153298 0.397588 0.247428
H37   H     H_    0.191725 0.070542 0.555340 0.245931
H38   H     H_    0.249663 0.291559 0.582488 0.183382
H39   H     H_    0.119434 0.249870 0.676582 0.273907
S3    S     S_3+6 0.875454 0.271152 0.659124 -0.024279
O15   O     O_2   0.737589 0.273001 0.666562 -0.260950
O16   O     O_2   0.912601 0.139794 0.641012 -0.295274
O17   O     O_3   0.931304 0.322159 0.810623 -0.616600
H40   H     H_    0.896207 0.266677 0.880893 0.383045

loop_
_geom_bond_atom_site_label_1
_geom_bond_atom_site_label_2
_ccdc_geom_bond_type
S2    O12   D    
C11   C18   S    
C11   O4    A    
C1    C8    S    
C14   C18   S    
C10   C21   S    
Cu1   Cu2   S    
C7    S2    S    
C26   H30   S    
C13   O7    A    
C27   C28   S    
C7    C8    D    
O11   H18   S    
H7    N1    S    
C3    C19   S    
C14   H1    S    
C6    C12   S    
C5    C6    D    
Cu2   O6    S    
C16   H10   S    
C4    H2    S    
C22   H21   S    
C23   H28   S    
C11   O3    A    
C2    C13   S    
Cu1   O3    S    
C24   H25   S    
S1    O10   D    
C14   C23   S    
C23   H29   S    
C19   H16   S    
C27   H38   S    
C20   H15   S    
Cu2   N2    S    
H8    N2    S    
C25   H34   S    
C9    N1    D    
C8    H5    S    
C13   O8    A    
C20   H14   S    
C9    H6    S    
C15   H9    S    
S1    O11   S    
C25   C26   S    
C23   C24   S    
Cu1   N1    S    
O17   H40   S    
C5    C7    S    
C19   H17   S    
S1    O9    D    
O14   H19   S    
C21   C22   S    
C12   O6    A    
C22   H22   S    
C2    C4    S    
C19   C20   S    
Cu2   O4    S    
S3    O17   S    
C6    H4    S    
C17   C18   S    
C10   N2    D    
C3    H11   S    
C2    C15   S    
C26   H31   S    
C27   H39   S    
Cu1   O5    S    
C4    C17   S    
C24   H26   S    
S3    O16   D    
C21   H23   S    
C16   H3    S    
C28   H36   S    
C25   H33   S    
S2    O13   D    
C5    S1    S    
C20   H13   S    
C1    O1    A    
C9    C10   S    
Cu2   O8    S    
C4    S3    S    
C28   H37   S    
C12   O5    A    
C2    C3    S    
Cu1   O1    S    
C24   H27   S    
C17   C27   S    
C22   H20   S    
C26   H32   S    
C21   H24   S    
Cu2   O2    S    
C15   C25   S    
S3    O15   D    
C16   C18   S    
C28   H35   S    
S2    O14   S    
C17   H12   S    
C14   C15   S    
C3    C16   S    
Cu1   O7    S    
C1    O2    A    
