data_mof_unit_55362.cif
_audit_creation_date              2012-12-11T18:29:24-0500
_audit_creation_method            fapswitch 2.2
_symmetry_space_group_name_H-M    P1
_symmetry_Int_Tables_number       1
_space_group_crystal_system       triclinic
_cell_length_a                    8.345381
_cell_length_b                    14.55607
_cell_length_c                    17.258761
_cell_angle_alpha                 97.523985
_cell_angle_beta                  96.718323
_cell_angle_gamma                 92.088825
_cell_volume                      2061.34615183

loop_
_atom_site_label
_atom_site_type_symbol
_atom_type_description
_atom_site_fract_x
_atom_site_fract_y
_atom_site_fract_z
_atom_type_partial_charge
Ba1   Ba    Ba6+2 0.833220 0.541860 0.459910 1.643244
Ba2   Ba    Ba6+2 0.356600 0.458220 0.540090 1.655149
C1    C     C_3   0.640085 0.842615 0.207206 -0.110854
C2    C     C_3   0.327901 0.571530 0.224258 -0.025632
C3    C     C_2   0.279820 0.542919 0.137715 -0.095319
C4    C     C_3   0.088285 0.764499 0.241875 0.501194
C5    C     C_2   0.142102 0.490497 0.112220 0.013262
C6    C     C_2   0.054513 0.449639 0.172415 -0.132925
C7    C     C_1   0.116623 0.460772 0.248037 0.048816
C8    C     C_R   0.898338 0.463000 0.862713 -0.180932
C9    C     C_R   0.838141 0.447220 0.783145 0.013862
C10   C     C_R   0.073874 0.530718 0.749917 0.059526
C11   C     C_R   0.134573 0.545985 0.830538 -0.156480
C12   C     C_3   0.604962 0.762493 0.253016 0.365527
C13   C     C_R   0.050309 0.509127 0.887206 0.018597
C14   C     C_2   0.076556 0.472607 0.026725 -0.071734
C15   C     C_2   0.117940 0.525438 0.972018 -0.057857
C16   C     C_3   0.182986 0.840877 0.209566 -0.067838
C17   C     C_R   0.929169 0.476179 0.726585 -0.075826
C18   C     C_R   0.707398 0.936786 0.533185 -0.054615
C19   C     C_R   0.515257 0.796486 0.494377 0.066486
C20   C     C_R   0.364041 0.761022 0.455935 -0.278500
C21   C     C_R   0.249015 0.821045 0.430362 -0.004274
C22   C     C_R   0.287727 0.914487 0.435648 -0.149659
C23   C     C_3   0.477981 0.289806 0.291768 0.361232
C24   C     C_R   0.445789 0.950272 0.461565 0.020670
C25   C     C_R   0.557837 0.893831 0.497545 -0.050860
C26   C     C_R   0.636423 0.087208 0.492042 -0.012677
C27   C     C_R   0.746105 0.032050 0.532945 -0.001987
C28   C     C_3   0.217702 0.745016 0.622627 0.324346
C29   C     C_R   0.679540 0.184817 0.496448 0.057895
C30   C     C_R   0.826454 0.221569 0.538000 -0.220454
C31   C     C_R   0.939522 0.165770 0.570813 -0.006427
C32   C     C_R   0.898681 0.071178 0.569474 -0.147097
C33   C     C_R   0.492360 0.040634 0.448803 0.068791
C34   C     C_3   0.559018 0.282129 0.215426 -0.079001
C35   C     C_3   0.261354 0.849391 0.639797 -0.413592
C36   C     C_3   0.970282 0.254104 0.376532 0.289325
C37   C     C_3   0.942584 0.148971 0.357327 -0.412609
C38   C     C_3   0.754534 0.764602 0.710145 0.545111
C39   C     C_3   0.689550 0.783908 0.791234 -0.058958
C40   C     C_3   0.873500 0.844541 0.702222 -0.323380
C41   C     C_3   0.307136 0.247707 0.271762 -0.353567
C42   C     C_3   0.409324 0.072041 0.375127 -0.383891
C43   C     C_3   0.113281 0.219392 0.756893 0.519953
C44   C     C_3   0.068325 0.135538 0.796227 -0.332438
C45   C     C_3   0.659335 0.236047 0.780106 0.484494
C46   C     C_3   0.610603 0.161646 0.829129 -0.339961
C47   C     C_2   0.256266 0.506810 0.273762 -0.198336
H1    H     H_    0.685475 0.770881 0.309719 0.102271
H2    H     H_    0.790558 0.791749 0.840291 0.024898
H3    H     H_    0.610504 0.723282 0.798955 0.102239
H4    H     H_    0.477580 0.765113 0.265885 -0.121133
H5    H     H_    0.542378 0.843454 0.157797 0.094279
H6    H     H_    0.479254 0.363656 0.318496 0.049086
H7    H     H_    0.562116 0.207909 0.189909 0.081240
H8    H     H_    0.686349 0.308621 0.229470 0.154171
H9    H     H_    0.754410 0.832657 0.181195 0.156469
H10   H     H_    0.256712 0.808625 0.164775 0.057322
H11   H     H_    0.999183 0.246817 0.730814 -0.089259
H12   H     H_    0.393427 0.863038 0.654166 0.157912
H13   H     H_    0.179012 0.105912 0.822996 0.122436
H14   H     H_    0.991130 0.155879 0.843141 0.060742
H15   H     H_    0.001060 0.081286 0.751886 0.067554
H16   H     H_    0.783644 0.262833 0.804893 -0.051091
H17   H     H_    0.695515 0.104685 0.826030 0.052826
H18   H     H_    0.486442 0.132285 0.807123 0.144161
H19   H     H_    0.613735 0.192528 0.891679 0.100825
H20   H     H_    0.204988 0.583677 0.988972 0.062026
H21   H     H_    0.941955 0.408772 0.153509 0.076589
H22   H     H_    0.823381 0.441925 0.904996 0.070458
H23   H     H_    0.220034 0.883648 0.587891 0.064059
H24   H     H_    0.989032 0.414542 0.009311 0.066707
H25   H     H_    0.351721 0.571773 0.097545 0.067344
H26   H     H_    0.246704 0.586942 0.849106 0.089044
H27   H     H_    0.314227 0.505863 0.333303 0.056746
H28   H     H_    0.330454 0.687905 0.452176 0.063488
H29   H     H_    0.179513 0.720795 0.269271 -0.103864
H30   H     H_    0.193042 0.959207 0.417860 0.086808
H31   H     H_    0.986454 0.028002 0.596195 0.068353
H32   H     H_    0.859373 0.293728 0.538393 0.025693
H33   H     H_    0.796942 0.896822 0.560404 0.099929
H34   H     H_    0.204111 0.882370 0.690463 0.133225
H35   H     H_    0.267570 0.879026 0.258317 0.061835
H36   H     H_    0.316701 0.709389 0.596019 0.031424
H37   H     H_    0.106352 0.732961 0.579949 0.053189
H38   H     H_    0.810283 0.909746 0.697605 0.075120
H39   H     H_    0.967355 0.856575 0.754230 0.071767
H40   H     H_    0.934977 0.827539 0.649647 0.102948
H41   H     H_    0.920013 0.681801 0.755790 0.106109
H42   H     H_    0.747926 0.625715 0.711927 0.137121
H43   H     H_    0.753147 0.933531 0.299991 0.204257
H44   H     H_    0.550785 0.935204 0.288026 0.167104
H45   H     H_    0.866268 0.284556 0.401884 0.032550
H46   H     H_    0.674421 0.925062 0.811650 0.166713
H47   H     H_    0.526655 0.864990 0.843337 0.177288
H48   H     H_    0.305788 0.174886 0.242592 0.108554
H49   H     H_    0.256438 0.247614 0.327370 0.116159
H50   H     H_    0.232885 0.288293 0.232642 0.083895
H51   H     H_    0.377648 0.292610 0.126320 0.166997
H52   H     H_    0.554251 0.343122 0.115244 0.191792
H53   H     H_    0.117625 0.313389 0.856518 0.125957
H54   H     H_    0.222747 0.348620 0.787887 0.200385
H55   H     H_    0.731835 0.140242 0.694824 0.119301
H56   H     H_    0.079979 0.270009 0.419962 0.052414
H57   H     H_    0.539753 0.169900 0.675385 0.221699
H58   H     H_    0.944643 0.648037 0.200236 0.204088
H59   H     H_    0.060030 0.681378 0.134730 0.126997
H60   H     H_    0.945330 0.421961 0.612635 0.204044
H61   H     H_    0.822917 0.514598 0.623036 0.215239
H62   H     H_    0.501463 0.085468 0.336884 0.155112
H63   H     H_    0.331631 0.018059 0.335839 0.075130
H64   H     H_    0.328009 0.127536 0.389482 0.146826
H65   H     H_    0.998449 0.871112 0.128249 0.192788
H66   H     H_    0.011845 0.939281 0.216702 0.209462
H67   H     H_    0.822992 0.131177 0.322018 0.149377
H68   H     H_    0.947571 0.116210 0.411805 0.067164
H69   H     H_    0.037608 0.119578 0.322937 0.119219
N1    N     N_3   0.834219 0.677454 0.706079 -0.491222
N2    N     N_3   0.651905 0.931698 0.257806 -0.522610
N3    N     N_3   0.594839 0.866638 0.796368 -0.480414
N4    N     N_3   0.475900 0.333918 0.156996 -0.500544
N5    N     N_3   0.197043 0.291446 0.816096 -0.443611
N6    N     N_3   0.656782 0.196174 0.697540 -0.491612
N7    N     N_3   0.987933 0.706110 0.177680 -0.471802
N8    N     N_3   0.864149 0.455632 0.645662 -0.472048
N9    N     N_3   0.078653 0.906807 0.174329 -0.492975
O1    O     O_2   0.840370 0.437300 0.310630 -0.448033
O2    O     O_2   0.266598 0.171221 0.556643 -0.475436
O3    O     O_3   0.218925 0.190642 0.701451 -0.573530
O4    O     O_3   0.112450 0.444030 0.408320 -0.507710
O5    O     O_3   0.560770 0.615000 0.535160 -0.467627
O6    O     O_2   0.387340 0.269270 0.471720 -0.471468
O7    O     O_3   0.563155 0.235294 0.341981 -0.679300
O8    O     O_2   0.518167 0.482503 0.781282 -0.481663
O9    O     O_3   0.550135 0.307072 0.786627 -0.557624
O10   O     O_3   0.597270 0.610320 0.351390 -0.491446
O11   O     O_2   0.637238 0.501597 0.219185 -0.458023
O12   O     O_3   0.619050 0.757811 0.652754 -0.630066
O13   O     O_3   0.988278 0.289604 0.306543 -0.642656
O14   O     O_3   0.633174 0.678532 0.207830 -0.603244
O15   O     O_2   0.802370 0.730760 0.528330 -0.485401
O16   O     O_3   0.016680 0.660770 0.388810 -0.473870
O17   O     O_2   0.920166 0.827348 0.438931 -0.498835
O18   O     O_3   0.987213 0.805746 0.295144 -0.608468
O19   O     O_2   0.349330 0.562730 0.689420 -0.437313
O20   O     O_3   0.077250 0.556050 0.591680 -0.516087
O21   O     O_3   0.592420 0.389760 0.648620 -0.419568
O22   O     O_3   0.192200 0.711183 0.692799 -0.621190
O23   O     O_3   0.628930 0.385070 0.464840 -0.464629
O24   O     O_3   0.173020 0.339310 0.611190 -0.487576
P1    P     P_3+3 0.017810 0.410420 0.324030 0.959048
P2    P     P_3+3 0.635890 0.718430 0.552520 0.993946
P3    P     P_3+3 0.044339 0.779273 0.390179 0.934592
P4    P     P_3+3 0.171880 0.589650 0.675980 0.996498
P5    P     P_3+3 0.145367 0.217705 0.608445 0.960297
P6    P     P_3+3 0.549765 0.588036 0.249723 0.972509
P7    P     P_3+3 0.561557 0.268332 0.444022 0.939462
P8    P     P_3+3 0.626801 0.405271 0.751624 1.017872

loop_
_geom_bond_atom_site_label_1
_geom_bond_atom_site_label_2
_ccdc_geom_bond_type
Ba2   O23   S    
C7    P1    S    
C15   H20   S    
Ba2   P4    S    
C18   H33   S    
C45   O9    S    
Ba2   O4    S    
Ba1   O1    S    
Ba1   O5    S    
H54   N5    S    
C23   C41   S    
C31   P5    S    
C9    P8    S    
C5    C6    S    
C43   H11   S    
C43   C44   S    
C43   N5    S    
C30   H32   S    
C9    C17   A    
C24   C25   A    
H47   N3    S    
C44   H13   S    
Ba1   O16   S    
C45   H16   S    
C26   C27   A    
C22   C24   A    
Ba1   Ba2   S    
C8    C13   A    
C36   C37   S    
C1    H5    S    
C4    H29   S    
O12   P2    S    
Ba2   O21   S    
C38   O12   S    
H66   N9    S    
Ba1   P1    S    
O6    P7    D    
C39   N3    S    
C3    H25   S    
Ba1   O15   S    
C32   H31   S    
O9    P8    S    
O1    P1    D    
O19   P4    D    
C2    P6    S    
C26   C33   A    
C14   C15   D    
C16   H35   S    
C21   C22   A    
C41   H49   S    
H44   N2    S    
H59   N7    S    
C28   H37   S    
O20   P4    S    
O13   P1    S    
C39   H3    S    
C8    H22   S    
H46   N3    S    
C38   C40   S    
C19   C25   A    
C12   O14   S    
C43   O3    S    
O15   P2    D    
C19   C20   A    
O17   P3    D    
O4    P1    S    
C35   H23   S    
C31   C32   A    
C18   C27   A    
C26   C29   A    
C4    C16   S    
Ba2   O6    S    
O8    P8    D    
C14   H24   S    
C11   H26   S    
C7    C47   D    
H58   N7    S    
C34   H8    S    
C8    C9    A    
C24   C33   A    
C3    C5    D    
C4    O18   S    
C6    C7    D    
O16   P3    S    
Ba2   O20   S    
C37   H68   S    
C27   C32   A    
C28   C35   S    
C44   H15   S    
O21   P8    S    
C34   N4    S    
C1    H9    S    
C34   H7    S    
C16   N9    S    
C16   H10   S    
C22   H30   S    
Ba2   O5    S    
C45   C46   S    
C36   H45   S    
O5    P2    S    
C47   H27   S    
Ba1   O23   S    
O24   P5    S    
C46   H19   S    
C28   H36   S    
Ba1   P2    S    
C33   C42   S    
C12   H4    S    
C1    C12   S    
H61   N8    S    
O18   P3    S    
C42   H63   S    
O14   P6    S    
C5    C14   S    
O7    P7    S    
C42   H64   S    
C11   C13   A    
H42   N1    S    
Ba1   O20   S    
C40   H39   S    
C10   P4    S    
H53   N5    S    
C23   O7    S    
Ba1   O10   S    
Ba2   O24   S    
C13   C15   S    
C38   C39   S    
C36   O13   S    
O23   P7    S    
C29   C30   A    
C41   H48   S    
C20   H28   S    
C41   H50   S    
C2    C3    S    
Ba1   O4    S    
O2    P5    D    
C35   H12   S    
H55   N6    S    
C18   C25   A    
Ba2   O19   S    
C37   H69   S    
C44   H14   S    
C17   N8    S    
C6    H21   S    
H52   N4    S    
O10   P6    S    
C2    C47   S    
C40   H40   S    
H41   N1    S    
C36   H56   S    
O22   P4    S    
C30   C31   A    
H65   N9    S    
O11   P6    D    
C45   N6    S    
C12   H1    S    
C10   C17   A    
C23   H6    S    
H51   N4    S    
C46   H18   S    
H43   N2    S    
C29   P7    S    
C1    N2    S    
C23   C34   S    
C42   H62   S    
H60   N8    S    
C38   N1    S    
C10   C11   A    
C37   H67   S    
C21   P3    S    
H57   N6    S    
C19   P2    S    
C20   C21   A    
C35   H34   S    
O3    P5    S    
C40   H38   S    
C46   H17   S    
C39   H2    S    
C4    N7    S    
C28   O22   S    
