data_mof_unit_45555.cif
_audit_creation_date              2013-03-05T15:52:19-0500
_audit_creation_method            fapswitch 2.2
_symmetry_space_group_name_H-M    P1
_symmetry_Int_Tables_number       1
_space_group_crystal_system       triclinic
_cell_length_a                    10.716217
_cell_length_b                    10.685308
_cell_length_c                    17.093238
_cell_angle_alpha                 80.753462
_cell_angle_beta                  99.301249
_cell_angle_gamma                 118.508965
_cell_volume                      1689.43703606

loop_
_atom_site_label
_atom_site_type_symbol
_atom_site_description
_atom_site_fract_x
_atom_site_fract_y
_atom_site_fract_z
_atom_type_partial_charge
O1    O     O_R   0.754020 0.497590 0.609930 -0.459412
O2    O     O_R   0.481420 0.271390 0.600630 -0.498844
C1    C     C_R   0.361678 0.230293 0.627649 0.549887
O3    O     O_R   0.263810 0.254550 0.589590 -0.480071
O4    O     O_R   0.300820 0.531200 0.560890 -0.430928
C2    C     C_R   0.412493 0.620863 0.601471 0.557973
O5    O     O_R   0.491480 0.744020 0.564270 -0.474896
O6    O     O_R   0.726290 0.693800 0.583010 -0.521707
C3    C     C_R   0.776797 0.619072 0.626914 0.577184
O7    O     O_R   0.747830 0.500190 0.434090 -0.422358
O8    O     O_R   0.475680 0.273800 0.437630 -0.443576
C4    C     C_R   0.349066 0.221596 0.402298 0.556028
O9    O     O_R   0.257620 0.257160 0.413750 -0.510661
O10   O     O_R   0.295080 0.533620 0.397890 -0.459229
C5    C     C_R   0.366192 0.653731 0.360592 0.570917
O11   O     O_R   0.485280 0.746620 0.388440 -0.498428
O12   O     O_R   0.720550 0.696220 0.420010 -0.517160
C6    C     C_R   0.772954 0.623131 0.400546 0.596198
Cr1   Cr    Cr6+3 0.608440 0.389080 0.519680 1.161307
Cr2   Cr    Cr6+3 0.288640 0.400090 0.490760 1.135296
Cr3   Cr    Cr6+3 0.602940 0.710800 0.489510 1.083522
O13   O     O_3   0.500010 0.499990 0.499980 -0.332204
C7    C     C_R   0.351699 0.651978 0.836520 0.028448
C8    C     C_R   0.242145 0.549633 0.790083 -0.070730
C9    C     C_R   0.263082 0.534741 0.715096 0.030634
C10   C     C_R   0.511477 0.703292 0.735638 -0.131930
C11   C     C_R   0.491722 0.718697 0.811912 0.142440
C12   C     C_3   0.092141 0.524346 0.765043 -0.202596
C13   C     C_3   0.115003 0.508758 0.682247 0.332732
C14   C     C_R   0.394445 0.621123 0.684049 -0.012883
H1    H     H_    0.616630 0.763087 0.714921 0.160130
H2    H     H_    0.078299 0.619710 0.768772 0.155151
H3    H     H_    0.013538 0.423657 0.795515 0.162633
C15   C     C_1   0.822673 0.656943 0.706017 -0.028110
C16   C     C_1   0.850653 0.684566 0.773744 -0.033258
C17   C     C_1   0.345349 0.188209 0.709873 0.003315
C18   C     C_1   0.320484 0.159769 0.778123 -0.008276
C19   C     C_1   0.336919 0.663634 0.277581 -0.049696
C20   C     C_1   0.323867 0.673064 0.206896 -0.047865
C21   C     C_R   0.868640 0.687020 0.166827 0.041708
C22   C     C_R   0.922377 0.610719 0.224112 -0.081269
C23   C     C_R   0.898498 0.594602 0.302174 0.030630
C24   C     C_R   0.814488 0.771887 0.273053 -0.132847
C25   C     C_R   0.823467 0.776888 0.192127 0.115137
C26   C     C_3   0.901213 0.461160 0.226251 -0.198550
C27   C     C_3   0.861185 0.438375 0.310318 0.327322
C28   C     C_R   0.839082 0.670123 0.327521 0.001034
H4    H     H_    0.770192 0.833973 0.291068 0.177697
H5    H     H_    0.003325 0.460263 0.222932 0.124345
H6    H     H_    0.812396 0.396075 0.183174 0.185114
C29   C     C_R   0.286604 0.094517 0.173292 0.026388
C30   C     C_R   0.261328 0.204784 0.187260 0.057909
C31   C     C_R   0.278877 0.239610 0.262750 0.053945
C32   C     C_R   0.364145 0.066758 0.313553 -0.075284
C33   C     C_R   0.346353 0.030758 0.235909 -0.126475
C34   C     C_3   0.131896 0.227166 0.165498 -0.265847
C35   C     C_3   0.150146 0.263444 0.249762 -0.267765
C36   C     C_R   0.324067 0.167893 0.326999 0.054884
H7    H     H_    0.405281 0.014369 0.362463 0.169352
H8    H     H_    0.372909 0.949695 0.225290 0.134102
H9    H     H_    0.033164 0.127202 0.152624 0.194449
H10   H     H_    0.150644 0.320031 0.120256 0.166033
H11   H     H_    0.178161 0.376427 0.253452 0.158846
H12   H     H_    0.062528 0.183396 0.285531 0.178349
O14   O     O_R   0.163320 0.092900 0.874450 -0.482472
O15   O     O_R   0.934650 0.822080 0.882840 -0.443877
C37   C     C_R   0.892202 0.702054 0.855739 0.579189
O16   O     O_R   0.915520 0.604140 0.893670 -0.517539
O17   O     O_R   0.191760 0.638110 0.923230 -0.515010
C38   C     C_R   0.316230 0.705725 0.898789 0.573270
O18   O     O_R   0.406180 0.826930 0.920660 -0.443678
O19   O     O_R   0.358620 0.062870 0.901950 -0.486363
C39   C     C_R   0.283913 0.113737 0.857589 0.553944
O20   O     O_R   0.163910 0.085460 0.050210 -0.505694
O21   O     O_R   0.935200 0.815170 0.045770 -0.461893
C40   C     C_R   0.892443 0.693875 0.085659 0.587103
O22   O     O_R   0.916120 0.596690 0.069430 -0.525335
O23   O     O_R   0.192310 0.631200 0.086170 -0.524219
C41   C     C_R   0.312744 0.700944 0.123836 0.554819
O24   O     O_R   0.406770 0.819480 0.096420 -0.463120
O25   O     O_R   0.359170 0.055960 0.064880 -0.481908
C42   C     C_R   0.251232 0.047025 0.095301 0.528787
Cr4   Cr    Cr6+3 0.052530 0.947560 0.964210 1.113077
Cr5   Cr    Cr6+3 0.059970 0.626800 0.992920 1.025918
Cr6   Cr    Cr6+3 0.373320 0.938440 0.995370 1.113412
O26   O     O_3   0.161940 0.837600 0.984160 -0.310663
N1    N     N_R   0.708973 0.341288 0.314570 0.106625
O27   O     O_R   0.613812 0.368597 0.268523 -0.378329
O28   O     O_R   0.668677 0.219624 0.358318 -0.302742
Br1   Br    Br    0.981672 0.387840 0.392358 -0.364858
Br2   Br    Br    0.658106 0.845195 0.874318 -0.404703
Br3   Br    Br    0.997087 0.315934 0.649817 -0.367092
N2    N     N_R   0.112503 0.622901 0.622194 0.098267
O29   O     O_R   0.042306 0.592247 0.552517 -0.253767
O30   O     O_R   0.184458 0.756519 0.636785 -0.360694
Br4   Br    Br    0.750442 0.889223 0.119614 -0.458642

loop_
_geom_bond_atom_site_label_1
_geom_bond_atom_site_label_2
_geom_bond_distance
_ccdc_geom_bond_type
N1    O27   1.302066 A    
N2    O29   1.300841 A    
C22   C23   1.367486 A    
O20   Cr4   2.051058 S    
C24   C25   1.392820 A    
C6    C28   1.434301 S    
O19   Cr6   1.943922 S    
O4    Cr2   1.931647 S    
C26   C27   1.515027 S    
O8    Cr1   1.935378 S    
C10   C11   1.401122 A    
O11   Cr3   2.065183 S    
C1    C17   1.417573 S    
C17   C18   1.197323 T    
Cr5   O26   1.971040 S    
Cr6   O26   1.981149 S    
O4    C2    1.296901 A    
O14   Cr4   2.058747 S    
C5    O11   1.259632 A    
O14   C39   1.275843 A    
C34   C35   1.509667 S    
C15   C16   1.195969 T    
C23   C27   1.507334 S    
O15   Cr4   1.934568 S    
O18   Cr6   2.051686 S    
O6    C3    1.257939 A    
C7    C8    1.398729 A    
C11   Br2   1.921456 S    
C38   O18   1.262390 A    
C26   H5    1.109482 S    
C24   H4    1.083408 S    
C4    C36   1.427187 S    
O15   C37   1.277605 A    
C10   H1    1.082779 S    
N2    O30   1.302531 A    
C33   H8    1.080165 S    
C7    C38   1.463829 S    
O20   C42   1.292419 A    
O25   C42   1.300186 A    
C32   H7    1.082904 S    
C9    C13   1.500660 S    
O1    Cr1   2.056244 S    
C37   O16   1.247651 A    
O16   Cr5   2.063553 S    
O10   Cr2   1.942694 S    
C12   H2    1.110244 S    
Cr1   O13   1.981872 S    
O1    C3    1.274592 A    
C8    C9    1.382460 A    
C31   C35   1.495124 S    
O23   C41   1.266103 A    
O22   Cr5   2.057472 S    
O5    Cr3   2.056590 S    
O12   Cr3   1.937757 S    
C21   C40   1.435027 S    
C20   C41   1.400692 S    
O21   C40   1.266785 A    
C5    C19   1.400897 S    
O24   Cr6   2.063237 S    
C25   Br4   1.922122 S    
C16   C37   1.414405 S    
O7    Cr1   2.058276 S    
C31   C36   1.392741 A    
O12   C6    1.264336 A    
C40   O22   1.259586 A    
C29   C42   1.431395 S    
C21   C22   1.401600 A    
C2    C14   1.455969 S    
Cr2   O13   1.981287 S    
C12   H3    1.111298 S    
C10   C14   1.400561 A    
C7    C11   1.422399 A    
N1    O28   1.300691 A    
C3    C15   1.415899 S    
C34   H10   1.111916 S    
C1    O3    1.255017 A    
C30   C31   1.359398 A    
C35   H12   1.112605 S    
C27   N1    1.463177 S    
C32   C36   1.399951 A    
C9    C14   1.399632 A    
C18   C39   1.419136 S    
C32   C33   1.399277 A    
C12   C13   1.522341 S    
O9    Cr2   2.048357 S    
O2    Cr1   1.940223 S    
C34   H9    1.109169 S    
C8    C12   1.496769 S    
C35   H11   1.106325 S    
O19   C39   1.264129 A    
O6    Cr3   1.946173 S    
O8    C4    1.279747 A    
C2    O5    1.301670 A    
C27   Br1   1.939627 S    
O2    C1    1.281083 A    
C29   C30   1.390885 A    
O17   Cr5   1.939800 S    
C13   N2    1.470346 S    
O21   Cr4   1.939222 S    
C19   C20   1.187122 T    
C26   H6    1.112599 S    
O7    C6    1.263792 A    
C29   C33   1.407210 A    
C23   C28   1.391525 A    
O17   C38   1.280183 A    
C41   O24   1.258073 A    
O3    Cr2   2.061335 S    
O23   Cr5   1.945211 S    
C21   C25   1.410081 A    
Cr4   O26   1.982048 S    
C4    O9    1.258745 A    
C22   C26   1.498190 S    
O10   C5    1.262869 A    
Cr3   O13   1.971091 S    
C24   C28   1.409820 A    
C13   Br3   1.950504 S    
O25   Cr6   1.931594 S    
C30   C34   1.496890 S    
