data_mof_unit_64275.cif
_audit_creation_date              2012-10-26T17:15:02-0400
_audit_creation_method            fapswitch 2.2
_symmetry_space_group_name_H-M    P1
_symmetry_Int_Tables_number       1
_space_group_crystal_system       triclinic
_cell_length_a                    18.983117
_cell_length_b                    19.018976
_cell_length_c                    18.613564
_cell_angle_alpha                 108.598811
_cell_angle_beta                  109.663727
_cell_angle_gamma                 109.457055
_cell_volume                      5216.69787374

loop_
_atom_site_label
_atom_site_type_symbol
_atom_type_description
_atom_site_fract_x
_atom_site_fract_y
_atom_site_fract_z
_atom_type_partial_charge
C1    C     C_R   0.612546 0.616229 0.494401 0.559525
C2    C     C_2   0.819440 0.494057 0.815912 -0.115416
C3    C     C_2   0.756306 0.500782 0.681459 -0.160004
C4    C     C_R   0.380912 0.499016 0.380611 0.552524
C5    C     C_2   0.692961 0.511609 0.690634 -0.114669
C6    C     C_2   0.256517 0.183744 0.506958 -0.160632
C7    C     C_2   0.179809 0.177938 0.490196 -0.115726
C8    C     C_2   0.317419 0.244687 0.495089 -0.159396
C9    C     C_2   0.322183 0.320318 0.510051 -0.116206
C10   C     C_R   0.009234 0.616333 0.127291 0.561232
C11   C     C_R   0.125378 0.499028 0.125290 0.553617
C12   C     C_3   0.177404 0.426406 0.217006 -0.124599
C13   C     C_R   0.006950 0.383140 0.888767 0.559309
C14   C     C_R   0.888074 0.498666 0.886275 0.562200
C15   C     C_R   0.997048 0.115251 0.616736 0.558797
C16   C     C_R   0.384303 0.383245 0.502575 0.558025
C17   C     C_R   0.883291 0.884588 0.503266 0.547670
C18   C     C_R   0.002054 0.883966 0.382820 0.545563
C19   C     C_R   0.116802 0.115729 0.497502 0.555971
C20   C     C_2   0.074900 0.818910 0.323039 -0.171403
C21   C     C_2   0.002140 0.822282 0.311550 -0.022474
C22   C     C_2   0.078393 0.758572 0.252899 -0.174660
C23   C     C_3   0.232320 0.495633 0.314184 -0.119042
C24   C     C_2   0.014306 0.677759 0.202124 -0.107368
C25   C     C_2   0.925875 0.179857 0.684147 -0.049409
C26   C     C_2   0.997131 0.178533 0.686176 -0.116914
C27   C     C_2   0.932896 0.242338 0.761609 -0.162383
C28   C     C_R   0.621292 0.503086 0.619915 0.562342
C29   C     C_2   0.002659 0.319943 0.815717 -0.132193
C30   C     C_3   0.327402 0.568080 0.286847 -0.116334
C31   C     C_3   0.245917 0.566564 0.288092 -0.116229
C32   C     C_3   0.192054 0.497356 0.191998 0.046852
C33   C     C_3   0.272482 0.498802 0.189588 -0.119513
C34   C     C_3   0.312814 0.497205 0.311861 0.047068
C35   C     C_3   0.258968 0.427920 0.215696 -0.124817
C36   C     C_R   0.923051 0.774464 0.224131 0.043630
C37   C     C_R   0.843874 0.720268 0.212476 -0.086457
C38   C     C_R   0.769516 0.675337 0.130884 -0.110529
C39   C     C_R   0.773472 0.684697 0.060621 -0.102318
C40   C     C_R   0.851690 0.739469 0.071960 -0.111089
C41   C     C_R   0.926179 0.784684 0.153471 -0.077975
C42   C     C_R   0.838415 0.114583 0.610488 0.063286
C43   C     C_R   0.787114 0.046841 0.617106 -0.098392
C44   C     C_R   0.702948 0.987295 0.549270 -0.124016
C45   C     C_2   0.741709 0.814692 0.489959 -0.175392
C46   C     C_R   0.669851 0.994695 0.474343 -0.108586
C47   C     C_R   0.720566 0.062263 0.467582 -0.110825
C48   C     C_R   0.804452 0.122519 0.535732 -0.055872
C49   C     C_R   0.855921 0.787723 0.568718 0.046162
C50   C     C_R   0.887049 0.733807 0.538621 -0.085454
C51   C     C_R   0.917195 0.696740 0.586809 -0.114191
C52   C     C_R   0.917123 0.713696 0.665577 -0.103642
C53   C     C_R   0.887609 0.768363 0.696705 -0.108415
C54   C     C_R   0.857562 0.805714 0.648848 -0.078114
C55   C     C_2   0.821919 0.825573 0.515945 -0.025239
C56   C     C_2   0.678280 0.755123 0.500941 -0.177583
C57   C     C_2   0.668731 0.677195 0.480348 -0.102904
C58   C     C_2   0.829696 0.512816 0.755309 -0.165596
Cu1   Cu    Cu3+1 0.500860 0.438990 0.439830 0.924169
Cu2   Cu    Cu3+1 0.499140 0.561010 0.560170 0.921387
Cu3   Cu    Cu3+1 0.946020 0.438950 0.007030 0.925888
Cu4   Cu    Cu3+1 0.068040 0.560950 0.006980 0.919969
Cu5   Cu    Cu3+1 0.938110 1.000000 0.438130 0.935878
Cu6   Cu    Cu3+1 0.061890 0.000000 0.561870 0.932150
H1    H     H_    0.701303 0.655454 0.447845 0.118975
H2    H     H_    0.134372 0.863672 0.384646 0.136510
H3    H     H_    0.133838 0.780582 0.243976 0.144105
H4    H     H_    0.963923 0.654551 0.217719 0.121356
H5    H     H_    0.058600 0.220534 0.746118 0.093375
H6    H     H_    0.877566 0.225768 0.771457 0.150835
H7    H     H_    0.054907 0.340603 0.801970 0.102210
H8    H     H_    0.287578 0.500100 0.137196 0.116571
H9    H     H_    0.265496 0.371104 0.187185 0.123398
H10   H     H_    0.114747 0.368345 0.187240 0.122979
H11   H     H_    0.217198 0.494299 0.366554 0.115600
H12   H     H_    0.890916 0.531739 0.756478 0.140048
H13   H     H_    0.722369 0.851032 0.460983 0.151584
H14   H     H_    0.239114 0.623255 0.316348 0.107440
H15   H     H_    0.390228 0.626005 0.316759 0.106083
H16   H     H_    0.840037 0.712292 0.266369 0.097788
H17   H     H_    0.708817 0.633192 0.122107 0.106973
H18   H     H_    0.715873 0.649749 0.997474 0.108519
H19   H     H_    0.854573 0.747006 0.017610 0.108087
H20   H     H_    0.986262 0.827376 0.161534 0.114200
H21   H     H_    0.812169 0.040488 0.674853 0.102915
H22   H     H_    0.663495 0.935189 0.554612 0.102200
H23   H     H_    0.756023 0.466417 0.809406 0.108200
H24   H     H_    0.604841 0.948256 0.421686 0.106070
H25   H     H_    0.694708 0.068220 0.409762 0.100839
H26   H     H_    0.842917 0.175223 0.530367 0.110372
H27   H     H_    0.886762 0.719624 0.477317 0.099769
H28   H     H_    0.940346 0.654620 0.562926 0.105532
H29   H     H_    0.940121 0.684641 0.702590 0.108435
H30   H     H_    0.887935 0.781733 0.757896 0.109513
H31   H     H_    0.834970 0.848060 0.673739 0.110326
H32   H     H_    0.639261 0.774866 0.524417 0.136605
H33   H     H_    0.756553 0.486770 0.620241 0.144430
H34   H     H_    0.697523 0.535169 0.754323 0.101368
H35   H     H_    0.273097 0.140098 0.524918 0.143511
H36   H     H_    0.159365 0.215052 0.463143 0.105452
H37   H     H_    0.361891 0.229000 0.478577 0.145811
H38   H     H_    0.284272 0.339888 0.535672 0.105233
O1    O     O_R   0.589740 0.537510 0.449170 -0.512435
O2    O     O_R   0.051000 0.089020 0.640050 -0.508516
O3    O     O_R   0.858720 0.910970 0.447760 -0.509745
O4    O     O_R   0.588290 0.640550 0.550800 -0.505663
O5    O     O_R   0.963250 0.910970 0.552260 -0.501522
O6    O     O_R   0.949000 0.910980 0.359950 -0.500135
O7    O     O_R   0.053520 0.910980 0.464460 -0.515506
O8    O     O_R   0.036750 0.089030 0.447740 -0.509900
O9    O     O_R   0.141280 0.089030 0.552240 -0.505313
O10   O     O_R   0.410430 0.448470 0.358910 -0.514360
O11   O     O_R   0.408980 0.551520 0.460540 -0.515576
O12   O     O_R   0.057320 0.640510 0.094780 -0.505991
O13   O     O_R   0.411710 0.359450 0.449200 -0.503633
O14   O     O_R   0.410260 0.462490 0.550830 -0.509213
O15   O     O_R   0.591020 0.448480 0.539460 -0.502917
O16   O     O_R   0.589570 0.551530 0.641090 -0.507375
O17   O     O_R   0.954280 0.537480 0.094820 -0.508557
O18   O     O_R   0.045810 0.448440 0.097300 -0.514706
O19   O     O_R   0.148850 0.551460 0.097260 -0.515165
O20   O     O_R   0.956740 0.359390 0.919230 -0.506953
O21   O     O_R   0.059790 0.462410 0.919190 -0.510560
O22   O     O_R   0.865220 0.448430 0.916750 -0.507168
O23   O     O_R   0.968260 0.551460 0.916710 -0.503180
O24   O     O_R   0.946480 0.089020 0.535540 -0.500366

loop_
_geom_bond_atom_site_label_1
_geom_bond_atom_site_label_2
_ccdc_geom_bond_type
C12   H10   S    
C27   C29   D    
C18   C21   S    
C18   O7    A    
C36   C41   A    
C58   H12   S    
C21   C36   S    
C53   C54   A    
C12   C23   S    
C14   O23   A    
Cu6   O5    S    
Cu3   O22   S    
C20   H2    S    
C36   C37   A    
C9    C16   S    
Cu4   O12   S    
C17   O3    A    
C28   O15   A    
C17   O5    A    
C30   C31   S    
C13   O21   A    
Cu3   O17   S    
C49   C54   A    
C56   C57   D    
Cu6   O2    S    
C34   C35   S    
C10   O17   A    
C33   H8    S    
C47   C48   A    
C45   C56   S    
C9    H38   S    
C15   O24   A    
Cu2   O16   S    
C15   O2    A    
Cu5   O3    S    
C8    H37   S    
C17   C55   S    
C10   O12   A    
C1    O4    A    
C4    O10   A    
Cu1   Cu2   S    
Cu1   O15   S    
C48   H26   S    
C12   C32   S    
Cu3   O18   S    
C47   H25   S    
C40   H19   S    
Cu2   O11   S    
C11   O19   A    
C44   H22   S    
C11   O18   A    
C16   O14   A    
Cu4   O21   S    
C44   C46   A    
Cu1   O10   S    
C46   H24   S    
C37   H16   S    
C4    C34   S    
C14   O22   A    
C7    H36   S    
C30   C34   S    
C51   C52   A    
C43   H21   S    
C4    O11   A    
C52   H29   S    
C23   H11   S    
C39   C40   A    
C8    C9    D    
C15   C26   S    
C6    C8    S    
C10   C24   S    
C25   C26   D    
C49   C55   S    
C41   H20   S    
Cu3   O20   S    
C23   C31   S    
C43   C44   A    
C37   C38   A    
C1    C57   S    
C51   H28   S    
C5    C28   S    
C3    H33   S    
C31   C32   S    
C23   C34   S    
C50   C51   A    
C2    H23   S    
C42   C48   A    
C5    H34   S    
C12   C35   S    
C54   H31   S    
C27   H6    S    
C30   H15   S    
C40   C41   A    
C20   C22   S    
C11   C32   S    
C7    C19   S    
C38   H17   S    
C22   C24   D    
Cu2   O14   S    
C42   C43   A    
C16   O13   A    
C3    C5    D    
Cu2   O4    S    
C52   C53   A    
C31   H14   S    
C19   O8    A    
C13   C29   S    
C56   H32   S    
C1    O1    A    
C46   C47   A    
C35   H9    S    
C30   C33   S    
C53   H30   S    
C39   H18   S    
C57   H1    S    
Cu6   O9    S    
C25   C42   S    
Cu4   O23   S    
C2    C58   D    
C6    C7    D    
C19   O9    A    
C25   C27   S    
Cu1   O1    S    
C6    H35   S    
Cu5   O8    S    
C28   O16   A    
C32   C33   S    
C13   O20   A    
Cu6   O7    S    
C38   C39   A    
C33   C35   S    
Cu3   Cu4   S    
C2    C14   S    
C18   O6    A    
C22   H3    S    
Cu5   O24   S    
C24   H4    S    
Cu5   Cu6   S    
C3    C58   S    
C50   H27   S    
C20   C21   D    
C45   C55   D    
Cu1   O13   S    
C49   C50   A    
C26   H5    S    
C45   H13   S    
Cu5   O6    S    
Cu4   O19   S    
C29   H7    S    
