data_mof_unit_44699.cif
_audit_creation_date              2012-12-10T17:14:41-0500
_audit_creation_method            fapswitch 2.2
_symmetry_space_group_name_H-M    P1
_symmetry_Int_Tables_number       1
_space_group_crystal_system       triclinic
_cell_length_a                    10.619638
_cell_length_b                    12.988297
_cell_length_c                    11.675455
_cell_angle_alpha                 99.94249
_cell_angle_beta                  93.580276
_cell_angle_gamma                 90.006072
_cell_volume                      1583.02855615

loop_
_atom_site_label
_atom_site_type_symbol
_atom_type_description
_atom_site_fract_x
_atom_site_fract_y
_atom_site_fract_z
_atom_type_partial_charge
C1    C     C_R   0.498036 0.299061 0.478576 0.816223
C2    C     C_R   0.501650 0.700933 0.521398 0.813683
C3    C     C_R   0.498589 0.139437 0.565983 -0.270729
C4    C     C_R   0.499772 0.860518 0.433809 -0.263761
C5    C     C_R   0.499399 0.031370 0.555726 0.174043
C6    C     C_R   0.498503 0.968582 0.444022 0.175728
C7    C     C_R   0.381282 0.402391 0.021923 -0.344067
C8    C     C_R   0.618747 0.597678 0.978113 -0.344505
C9    C     C_R   0.392612 0.411653 0.144064 0.094076
C10   C     C_R   0.607389 0.588377 0.855945 0.094504
C11   C     C_R   0.551287 0.542116 0.156986 0.023926
C12   C     C_R   0.448736 0.457922 0.843055 0.025309
C13   C     C_R   0.543143 0.535474 0.034194 0.068453
C14   C     C_R   0.456893 0.464593 0.965851 0.068869
C15   C     C_R   0.259361 0.500662 0.500592 0.849098
C16   C     C_R   0.740628 0.499072 0.499390 0.848682
C17   C     C_3   0.048052 0.490417 0.608224 -0.276020
C18   C     C_3   0.951901 0.508894 0.391783 -0.268765
C19   C     C_3   0.961723 0.410803 0.526635 0.538380
C20   C     C_3   0.038170 0.588481 0.473292 0.538341
C21   C     C_3   0.877077 0.499270 0.498624 -0.098845
C22   C     C_3   0.122905 0.500097 0.501379 -0.099915
C23   C     C_3   0.962386 0.580581 0.579669 -0.311441
C24   C     C_3   0.037659 0.418662 0.420401 -0.305017
C25   C     C_R   0.501687 0.814361 0.533732 -0.043652
C26   C     C_R   0.497135 0.185619 0.466125 -0.049873
C27   C     C_R   0.496401 0.014807 0.344287 -0.217594
C28   C     C_R   0.501487 0.985159 0.655470 -0.217279
C29   C     C_R   0.495598 0.123006 0.355270 -0.199387
C30   C     C_R   0.502733 0.876978 0.644543 -0.197966
Cu1   Cu    Cu3+1 0.509400 0.507730 0.615930 0.947582
Cu2   Cu    Cu3+1 0.490600 0.492270 0.384070 0.947554
H1    H     H_    0.089563 0.481063 0.695442 0.154037
H2    H     H_    0.909840 0.517466 0.304548 0.152822
H3    H     H_    0.928747 0.647100 0.642973 0.144268
H4    H     H_    0.072214 0.352814 0.356870 0.144064
H5    H     H_    0.499328 0.812599 0.347939 0.150986
H6    H     H_    0.499275 0.187350 0.651865 0.154157
H7    H     H_    0.504108 0.842476 0.722693 0.156848
H8    H     H_    0.494387 0.157527 0.277142 0.158139
H9    H     H_    0.495659 0.967440 0.258177 0.136674
H10   H     H_    0.502180 0.032530 0.741575 0.134448
H11   H     H_    0.382602 0.403630 0.789683 0.110150
H12   H     H_    0.617429 0.596411 0.210374 0.114919
H13   H     H_    0.666041 0.636686 0.813687 0.119171
H14   H     H_    0.333950 0.363341 0.186312 0.119375
H15   H     H_    0.313925 0.347002 0.971853 0.132394
H16   H     H_    0.686113 0.653082 0.028195 0.138424
N1    N     N_R   0.523540 0.519360 0.790140 -0.178779
N2    N     N_R   0.476460 0.480640 0.209860 -0.179416
O1    O     O_R   0.506670 0.354460 0.582000 -0.586958
O2    O     O_R   0.493330 0.645540 0.418000 -0.587221
O3    O     O_R   0.490800 0.341410 0.386200 -0.597789
O4    O     O_R   0.509200 0.658590 0.613800 -0.597943
O5    O     O_R   0.324790 0.506500 0.597880 -0.597353
O6    O     O_R   0.675210 0.493500 0.402120 -0.596252
O7    O     O_R   0.308910 0.493440 0.402080 -0.573867
O8    O     O_R   0.691090 0.506560 0.597920 -0.573675
O9    O     O_3   0.912618 0.317910 0.554728 -0.611441
C31   C     C_3   0.011033 0.247473 0.571892 0.054365
H17   H     H_    0.998050 0.219995 0.655406 0.161370
H18   H     H_    0.107862 0.282618 0.579593 0.115886
C32   C     C_3   0.002391 0.152975 0.473103 -0.346899
H19   H     H_    0.909996 0.112566 0.472512 0.228004
H20   H     H_    0.008256 0.179562 0.388143 0.214377
C33   C     C_3   0.108587 0.075952 0.487115 -0.921353
H21   H     H_    0.201900 0.114262 0.485640 0.264024
H22   H     H_    0.099734 0.008513 0.414229 0.260647
H23   H     H_    0.103324 0.046465 0.570533 0.254288
O10   O     O_3   0.086802 0.681763 0.445759 -0.612405
C34   C     C_3   0.988038 0.752217 0.429641 0.054294
H24   H     H_    0.014096 0.829211 0.483630 0.165812
H25   H     H_    0.894759 0.729701 0.457650 0.118340
C35   C     C_3   0.973862 0.765075 0.301749 -0.332740
H26   H     H_    0.063049 0.797531 0.276862 0.226751
H27   H     H_    0.955353 0.687599 0.245893 0.211794
C36   C     C_3   0.865357 0.837940 0.280269 -0.943327
H28   H     H_    0.774597 0.805102 0.301114 0.253225
H29   H     H_    0.858529 0.846751 0.187179 0.254024
H30   H     H_    0.881698 0.916296 0.334817 0.263702

loop_
_geom_bond_atom_site_label_1
_geom_bond_atom_site_label_2
_ccdc_geom_bond_type
C33   H22   S    
C32   H20   S    
C16   C21   S    
C27   C29   A    
C18   C21   S    
C16   O6    A    
C12   N1    A    
C15   C22   S    
C36   H28   S    
C17   C23   S    
C35   H27   S    
C31   C32   S    
C18   C24   S    
Cu1   O8    S    
C19   C21   S    
C12   H11   S    
C5    C6    A    
C33   H23   S    
C31   H18   S    
C1    O3    A    
Cu2   O2    S    
C7    C14   A    
Cu1   Cu2   S    
C3    H6    S    
C35   C36   S    
O10   C34   S    
C33   H21   S    
C32   C33   S    
O9    C31   S    
C13   C14   A    
C15   O7    A    
C20   O10   S    
C17   H1    S    
Cu2   O7    S    
Cu1   N1    S    
C4    C25   A    
C36   H29   S    
C35   H26   S    
C4    C6    A    
C2    O4    A    
Cu1   O1    S    
C34   H25   S    
C16   O8    A    
C19   O9    S    
C31   H17   S    
C7    H15   S    
C8    H16   S    
C5    C28   A    
C1    O1    A    
C27   H9    S    
C6    C27   A    
C20   C23   S    
C10   H13   S    
C11   H12   S    
C24   H4    S    
C18   H2    S    
Cu2   N2    S    
C2    O2    A    
C12   C14   A    
C23   H3    S    
C21   C23   S    
C1    C26   S    
C22   C24   S    
Cu2   O3    S    
C36   H30   S    
C25   C30   A    
C7    C9    A    
C3    C26   A    
C9    N2    A    
C20   C22   S    
C3    C5    A    
C34   C35   S    
C17   C22   S    
C28   C30   A    
C19   C24   S    
C34   H24   S    
C11   N2    A    
C11   C13   A    
C29   H8    S    
C28   H10   S    
C17   C19   S    
C30   H7    S    
C2    C25   S    
C18   C20   S    
Cu1   O4    S    
C32   H19   S    
C8    C13   A    
C9    H14   S    
C4    H5    S    
C26   C29   A    
C8    C10   A    
Cu1   O5    S    
C10   N1    A    
Cu2   O6    S    
C15   O5    A    
