data_mof_unit_29226.cif
_audit_creation_date              2013-03-05T15:58:07-0500
_audit_creation_method            fapswitch 2.2
_symmetry_space_group_name_H-M    P1
_symmetry_Int_Tables_number       1
_space_group_crystal_system       triclinic
_cell_length_a                    15.145385
_cell_length_b                    13.987742
_cell_length_c                    10.883777
_cell_angle_alpha                 88.953183
_cell_angle_beta                  84.639015
_cell_angle_gamma                 92.566617
_cell_volume                      2292.75229231

loop_
_atom_site_label
_atom_site_type_symbol
_atom_site_description
_atom_site_fract_x
_atom_site_fract_y
_atom_site_fract_z
_atom_type_partial_charge
O1    O     O_R   0.370250 0.582280 0.500040 -0.555439
O2    O     O_R   0.370250 0.417720 0.500040 -0.542642
C1    C     C_R   0.329040 0.498200 0.503109 0.862909
O3    O     O_R   0.499970 0.582270 0.317700 -0.600864
O4    O     O_R   0.499970 0.417730 0.317700 -0.599032
C2    C     C_R   0.497452 0.500327 0.260248 0.729087
Cu1   Cu    Cu3+1 0.499990 0.597420 0.500010 0.976985
Cu2   Cu    Cu3+1 0.499990 0.402580 0.500010 0.972580
O5    O     O_R   0.629730 0.582260 0.499980 -0.568983
O6    O     O_R   0.629730 0.417740 0.499980 -0.584613
O7    O     O_R   0.500000 0.582270 0.682320 -0.554163
O8    O     O_R   0.500000 0.417730 0.682320 -0.565271
C3    C     C_R   0.672149 0.501865 0.490857 0.808160
C4    C     C_R   0.490305 0.498602 0.740238 0.819359
C5    C     C_3   0.428962 0.574111 0.080845 -0.421723
C6    C     C_3   0.455807 0.400747 0.080421 -0.402288
H1    H     H_    0.443671 0.646409 0.116639 0.194422
H2    H     H_    0.497426 0.341386 0.105455 0.186746
H3    H     H_    0.360120 0.553093 0.120065 0.168980
H4    H     H_    0.388971 0.384672 0.130070 0.176577
C7    C     C_3   0.432861 0.578872 0.938296 -0.349030
C8    C     C_3   0.447705 0.400748 0.939453 -0.374583
H5    H     H_    0.364183 0.573875 0.911747 0.221847
H6    H     H_    0.376713 0.390952 0.922485 0.221993
H7    H     H_    0.463456 0.649322 0.904664 0.205718
H8    H     H_    0.482856 0.339002 0.898583 0.192041
H9    H     H_    0.614815 0.571438 0.856857 0.176117
H10   H     H_    0.617066 0.443105 0.879766 0.170495
C9    C     C_3   0.589403 0.522103 0.050193 0.332582
C10   C     C_3   0.494376 0.499898 0.121615 0.148662
C11   C     C_3   0.487141 0.496623 0.879205 0.067896
C12   C     C_3   0.583125 0.508517 0.910641 -0.369902
C13   C     C_R   0.827848 0.512272 0.377533 0.084568
C14   C     C_R   0.771175 0.504538 0.488593 -0.097697
C15   C     C_R   0.811096 0.494577 0.599526 0.122472
C16   C     C_R   0.902567 0.517433 0.600421 0.044080
C17   C     C_R   0.957103 0.505532 0.490110 -0.061895
C18   C     C_R   0.918303 0.492334 0.378830 0.013898
C19   C     C_R   0.940408 0.557771 0.702991 0.172437
C20   C     C_R   0.033485 0.569567 0.700039 0.118221
C21   C     C_R   0.087406 0.529297 0.602475 0.045384
C22   C     C_R   0.049597 0.506815 0.491836 -0.023521
C23   C     C_R   0.104097 0.486522 0.383456 0.094416
C24   C     C_R   0.065194 0.468226 0.271808 0.108317
C25   C     C_R   0.971560 0.467169 0.271510 0.209038
C26   C     C_R   0.177715 0.512739 0.610589 0.137558
C27   C     C_R   0.232565 0.495506 0.502741 -0.078382
C28   C     C_R   0.196357 0.484452 0.390289 -0.255486
H11   H     H_    0.241299 0.471727 0.309576 0.136188
C29   C     C_R   0.433330 0.790793 0.567671 0.292324
C30   C     C_R   0.439623 0.201499 0.579663 0.272068
N1    N     N_R   0.499930 0.743810 0.499950 -0.198580
N2    N     N_R   0.499930 0.256190 0.499950 -0.202185
C31   C     C_R   0.565395 0.799964 0.431490 0.245282
C32   C     C_R   0.563674 0.209045 0.426704 0.275853
C33   C     C_R   0.567580 0.902147 0.433694 0.036100
C34   C     C_R   0.566811 0.107056 0.431692 0.021646
C35   C     C_R   0.499390 0.948844 0.500642 0.004292
C36   C     C_R   0.500905 0.051763 0.503904 0.001903
C37   C     C_R   0.428754 0.893214 0.562302 -0.087508
C38   C     C_R   0.438944 0.098435 0.583362 -0.090628
C39   C     C_R   0.636572 0.959210 0.368953 -0.179654
C40   C     C_R   0.635270 0.058479 0.365986 -0.185987
C41   C     C_R   0.376062 0.038536 0.658677 0.180517
C42   C     C_R   0.359341 0.943532 0.624517 0.174457
H12   H     H_    0.692914 0.928602 0.318421 0.164345
H13   H     H_    0.690270 0.095982 0.312466 0.160936
C43   C     C_3   0.072736 0.639109 0.787581 -0.719022
H14   H     H_    0.038485 0.707560 0.786638 0.243482
H15   H     H_    0.066094 0.608233 0.882911 0.270600
H16   H     H_    0.143094 0.659900 0.758636 0.250461
I1    I     I_    0.222909 0.481209 0.786561 -0.422767
C44   C     C_3   0.123796 0.450924 0.154306 -0.773767
H17   H     H_    0.173759 0.511312 0.136191 0.222617
H18   H     H_    0.158231 0.383093 0.163719 0.235646
H19   H     H_    0.087546 0.447246 0.070882 0.278234
I2    I     I_    0.908507 0.402038 0.122894 -0.365839
I3    I     I_    0.350661 0.716382 0.710307 -0.428019
I4    I     I_    0.336679 0.269327 0.685967 -0.350100
C45   C     C_3   0.637354 0.755622 0.352828 -0.767582
H20   H     H_    0.701459 0.766727 0.393585 0.243139
H21   H     H_    0.623174 0.680441 0.343538 0.285109
H22   H     H_    0.642204 0.786507 0.257601 0.203673
C46   C     C_3   0.631635 0.262005 0.336294 -0.766332
H23   H     H_    0.699148 0.254896 0.366427 0.218048
H24   H     H_    0.628732 0.232148 0.242806 0.190432
H25   H     H_    0.622882 0.337588 0.323574 0.273462
C47   C     C_3   0.343520 0.060500 0.790219 -0.789349
H26   H     H_    0.344154 0.995473 0.850383 0.231049
H27   H     H_    0.388529 0.114071 0.829683 0.237314
H28   H     H_    0.274148 0.083647 0.795635 0.260148
C48   C     C_3   0.263216 0.907678 0.635542 -0.792005
H29   H     H_    0.221188 0.965141 0.605308 0.235730
H30   H     H_    0.252515 0.846692 0.573969 0.245759
H31   H     H_    0.240097 0.887655 0.732780 0.253739
C49   C     C_3   0.623400 0.626567 0.065617 -0.785245
H32   H     H_    0.582387 0.679867 0.024138 0.216558
H33   H     H_    0.624011 0.641091 0.162621 0.241891
H34   H     H_    0.691857 0.639019 0.020970 0.283367
C50   C     C_3   0.659488 0.455016 0.093825 -0.794312
H35   H     H_    0.724957 0.471415 0.041093 0.289646
H36   H     H_    0.667277 0.464173 0.193024 0.232648
H37   H     H_    0.641866 0.378675 0.078766 0.211270
I5    I     I_    0.802509 0.613276 0.240460 -0.417112
C51   C     C_3   0.757773 0.453709 0.711504 -0.828577
H38   H     H_    0.799349 0.433652 0.785793 0.264374
H39   H     H_    0.713503 0.509863 0.740950 0.232767
H40   H     H_    0.719133 0.388037 0.689183 0.241778
I6    I     I_    0.860116 0.625734 0.846858 -0.392314

loop_
_geom_bond_atom_site_label_1
_geom_bond_atom_site_label_2
_geom_bond_distance
_ccdc_geom_bond_type
C42   C48   1.511679 S    
C13   I5    2.108919 S    
C21   C22   1.415412 A    
C15   C16   1.408720 A    
C30   C38   1.441011 A    
C46   H25   1.079417 S    
C4    C11   1.508465 S    
Cu1   Cu2   2.725370 S    
Cu1   O7    1.991667 S    
C7    C11   1.557563 S    
C9    C10   1.585618 S    
C16   C17   1.409146 A    
C17   C18   1.406316 A    
C46   H24   1.110814 S    
Cu1   N1    2.047695 S    
C9    C12   1.545317 S    
C45   H22   1.110313 S    
O4    C2    1.307391 A    
Cu2   O6    1.966878 S    
O7    C4    1.314892 A    
C34   C36   1.405093 A    
C6    C10   1.569977 S    
C49   H34   1.108161 S    
Cu1   O5    1.985762 S    
C14   C15   1.407321 A    
C44   H17   1.110754 S    
C17   C22   1.402047 A    
O5    C3    1.320623 A    
C50   H35   1.110696 S    
C18   C25   1.415359 A    
C27   C28   1.395457 A    
C43   H14   1.109537 S    
C49   H33   1.079588 S    
C29   N1    1.389503 A    
C21   C26   1.407977 A    
C23   C28   1.407770 A    
C26   I1    2.138306 S    
C6    H4    1.113631 S    
C44   H18   1.110615 S    
O3    Cu1   1.999378 S    
C29   I3    2.126512 S    
C50   H36   1.106114 S    
N1    C31   1.387810 A    
C34   C40   1.410839 A    
C31   C45   1.486952 S    
N2    C32   1.390983 A    
C51   H40   1.109910 S    
C40   H13   1.080469 S    
C36   C38   1.406613 A    
C8    C11   1.551823 S    
C39   H12   1.080545 S    
H10   C12   1.111487 S    
C46   H23   1.110654 S    
O3    C2    1.316418 A    
C19   C20   1.409250 A    
C35   C36   1.439891 A    
C50   H37   1.107894 S    
O1    C1    1.304912 A    
C38   C41   1.427764 A    
C5    H3    1.113795 S    
C23   C24   1.421581 A    
C39   C40   1.389388 A    
C15   C51   1.487820 S    
O4    Cu2   1.991682 S    
C51   H39   1.088786 S    
C11   C12   1.526885 S    
C47   H28   1.109866 S    
C5    C7    1.547171 S    
Cu2   O8    1.999365 S    
C49   H32   1.107736 S    
C48   H30   1.109889 S    
C13   C14   1.415105 A    
C45   H21   1.072364 S    
C20   C21   1.418724 A    
C2    C10   1.514017 S    
O8    C4    1.312332 A    
C37   C42   1.417661 A    
C32   C34   1.429724 A    
C20   C43   1.515036 S    
C44   H19   1.104899 S    
C33   C39   1.411599 A    
C22   C23   1.415839 A    
C24   C25   1.417846 A    
C5    C10   1.553528 S    
C5    H1    1.111094 S    
C7    H7    1.110868 S    
C26   C27   1.404300 A    
C28   H11   1.082365 S    
C6    C8    1.550551 S    
C9    C50   1.549164 S    
H9    C12   1.112872 S    
O1    Cu1   1.966859 S    
C16   C19   1.416571 A    
O2    Cu2   1.985718 S    
C47   H27   1.109680 S    
C45   H20   1.110420 S    
O6    C3    1.312778 A    
Cu2   N2    2.047637 S    
C9    C49   1.544725 S    
C31   C33   1.428898 A    
C51   H38   1.109787 S    
C13   C18   1.411562 A    
C29   C37   1.437805 A    
C41   C42   1.404927 A    
C7    H5    1.104845 S    
O2    C1    1.310858 A    
C3    C14   1.496470 S    
C43   H16   1.107014 S    
C1    C27   1.460325 S    
C48   H29   1.111225 S    
C33   C35   1.400489 A    
C8    H6    1.110742 S    
C48   H31   1.110049 S    
C24   C44   1.516658 S    
C30   I4    2.122539 S    
C19   I6    2.153239 S    
C47   H26   1.111934 S    
C6    H2    1.109820 S    
C8    H8    1.112755 S    
C43   H15   1.110590 S    
C25   I2    2.150069 S    
C30   N2    1.391857 A    
C32   C46   1.514039 S    
C35   C37   1.404482 A    
C41   C47   1.511548 S    
