data_mof_unit_65103.cif
_audit_creation_date              2012-12-10T17:25:18-0500
_audit_creation_method            fapswitch 2.2
_symmetry_space_group_name_H-M    P1
_symmetry_Int_Tables_number       1
_space_group_crystal_system       triclinic
_cell_length_a                    18.728116
_cell_length_b                    18.852966
_cell_length_c                    18.764194
_cell_angle_alpha                 109.48253
_cell_angle_beta                  109.242693
_cell_angle_gamma                 109.366834
_cell_volume                      5120.26221923

loop_
_atom_site_label
_atom_site_type_symbol
_atom_type_description
_atom_site_fract_x
_atom_site_fract_y
_atom_site_fract_z
_atom_type_partial_charge
C1    C     C_R   0.617567 0.618554 0.498449 0.787392
C2    C     C_R   0.170599 0.183463 0.255502 -0.120337
C3    C     C_R   0.172029 0.423402 0.185459 -0.170000
C4    C     C_R   0.186180 0.502102 0.188024 -0.059229
C5    C     C_R   0.263320 0.579974 0.255761 0.070627
C6    C     C_R   0.326267 0.576940 0.317968 -0.181395
C7    C     C_R   0.312565 0.497897 0.314238 -0.050644
C8    C     C_R   0.234611 0.420301 0.247932 0.078358
C9    C     C_R   0.319394 0.697092 0.224003 -0.148565
C10   C     C_R   0.324636 0.771120 0.220231 -0.169454
C11   C     C_R   0.287930 0.815276 0.257632 0.035547
C12   C     C_R   0.379855 0.498584 0.381213 0.792096
C13   C     C_R   0.249427 0.786260 0.302445 -0.212347
C14   C     C_R   0.244396 0.712101 0.307976 -0.030585
C15   C     C_R   0.277226 0.665299 0.264953 0.037694
C16   C     C_R   0.753830 0.755816 0.577267 -0.210111
C17   C     C_R   0.819696 0.821670 0.580775 0.171960
C18   C     C_R   0.814122 0.816152 0.502039 -0.065394
C19   C     C_R   0.742674 0.746734 0.422054 -0.211009
C20   C     C_R   0.677060 0.680578 0.418578 0.163462
C21   C     C_R   0.683690 0.685177 0.497297 -0.063037
C22   C     C_R   0.662076 0.462241 0.734867 0.166455
C23   C     C_R   0.379087 0.381420 0.498579 0.813916
C24   C     C_R   0.727429 0.462981 0.798945 -0.169379
C25   C     C_R   0.813149 0.499896 0.813991 -0.064483
C26   C     C_R   0.833472 0.535579 0.764019 -0.127525
C27   C     C_R   0.768753 0.534087 0.699395 -0.240301
C28   C     C_R   0.683673 0.498320 0.685200 -0.002329
C29   C     C_R   0.253397 0.333708 0.526539 0.007467
C30   C     C_R   0.191225 0.269108 0.529495 0.048607
C31   C     C_R   0.185041 0.186710 0.501212 -0.028636
C32   C     C_R   0.240377 0.168642 0.471814 0.102795
C33   C     C_R   0.302373 0.233392 0.470864 -0.181654
C34   C     C_R   0.618433 0.499717 0.618623 0.786497
C35   C     C_R   0.309848 0.315389 0.498082 -0.167000
C36   C     C_R   0.000837 0.618615 0.120139 0.779435
C37   C     C_R   0.118989 0.501196 0.120054 0.778826
C38   C     C_R   0.999518 0.381682 0.880611 0.856803
C39   C     C_R   0.880861 0.500316 0.881266 0.847596
C40   C     C_R   0.000712 0.881757 0.381248 0.783196
C41   C     C_R   0.881149 0.882258 0.501170 0.802378
C42   C     C_R   0.999786 0.118817 0.618963 0.798887
C43   C     C_R   0.118605 0.118480 0.499899 0.819493
C44   C     C_R   0.013015 0.761630 0.186474 -0.185048
C45   C     C_R   0.227054 0.207500 0.223281 0.100531
C46   C     C_R   0.011419 0.825606 0.248706 -0.163090
C47   C     C_R   0.000952 0.814746 0.315269 -0.057096
C48   C     C_R   0.991268 0.739823 0.319506 -0.120187
C49   C     C_R   0.989340 0.673352 0.255546 0.180214
C50   C     C_R   0.001004 0.684930 0.188491 -0.049698
C51   C     C_R   0.047462 0.275434 0.837913 0.138412
C52   C     C_R   0.047015 0.210937 0.773595 -0.149950
C53   C     C_R   0.999622 0.186118 0.685993 -0.103072
C54   C     C_R   0.952261 0.226026 0.662288 -0.202950
C55   C     C_R   0.952227 0.291473 0.725099 -0.053506
C56   C     C_R   0.246832 0.283746 0.216404 0.033808
C57   C     C_R   0.000047 0.315857 0.813557 -0.089167
C58   C     C_R   0.212739 0.336679 0.247079 -0.081382
C59   C     C_R   0.155431 0.310135 0.277436 -0.144525
C60   C     C_R   0.133240 0.233346 0.280648 0.184282
Cu1   Cu    Cu3+1 0.500020 0.438210 0.438220 0.998586
Cu2   Cu    Cu3+1 0.499980 0.561790 0.561780 1.001493
Cu3   Cu    Cu3+1 0.938210 0.438200 0.999980 0.960221
Cu4   Cu    Cu3+1 0.061840 0.561770 0.999960 0.996155
Cu5   Cu    Cu3+1 0.061800 0.999890 0.561700 0.968403
Cu6   Cu    Cu3+1 0.938200 0.999930 0.438120 0.959224
H1    H     H_    0.154174 0.124577 0.259395 0.142337
H2    H     H_    0.222554 0.821403 0.332726 0.213527
H3    H     H_    0.757471 0.758918 0.637216 0.151721
H4    H     H_    0.738801 0.743823 0.362102 0.153368
H5    H     H_    0.711606 0.435431 0.837591 0.155636
H6    H     H_    0.899101 0.563806 0.774264 0.180533
H7    H     H_    0.785112 0.561677 0.660957 0.141218
H8    H     H_    0.345739 0.219872 0.449220 0.170395
H9    H     H_    0.021890 0.771285 0.135559 0.161780
H10   H     H_    0.019666 0.884057 0.245786 0.140423
H11   H     H_    0.983017 0.732554 0.371677 0.139182
H12   H     H_    0.083397 0.179759 0.791933 0.160693
H13   H     H_    0.916416 0.207207 0.594453 0.200642
H14   H     H_    0.127671 0.349585 0.298555 0.184507
H15   H     H_    0.111970 0.363920 0.134451 0.150059
H16   H     H_    0.385755 0.636491 0.369975 0.140247
H17   H     H_    0.345407 0.662286 0.191814 0.145233
H18   H     H_    0.355482 0.792456 0.185953 0.169444
O1    O     O_R   0.590200 0.537990 0.447840 -0.578325
O2    O     O_R   0.052220 0.642350 0.090110 -0.586438
O3    O     O_R   0.038000 0.447810 0.090170 -0.590229
O4    O     O_R   0.142390 0.552170 0.090150 -0.582412
O5    O     O_R   0.947830 0.357620 0.909840 -0.589078
O6    O     O_R   0.052230 0.461980 0.909820 -0.553582
O7    O     O_R   0.857660 0.447800 0.909790 -0.594847
O8    O     O_R   0.962050 0.552160 0.909780 -0.569456
O9    O     O_R   0.052180 0.909730 0.461910 -0.571617
O10   O     O_R   0.947800 0.909770 0.357550 -0.587654
O11   O     O_R   0.962000 0.909720 0.552080 -0.583817
O12   O     O_R   0.590170 0.642360 0.552180 -0.591139
O13   O     O_R   0.857620 0.909750 0.447720 -0.583057
O14   O     O_R   0.052200 0.090060 0.642270 -0.591705
O15   O     O_R   0.947820 0.090090 0.537910 -0.584457
O16   O     O_R   0.142380 0.090070 0.552100 -0.579299
O17   O     O_R   0.038000 0.090100 0.447740 -0.594831
O18   O     O_R   0.409840 0.447810 0.357640 -0.578420
O19   O     O_R   0.409810 0.552180 0.461990 -0.559870
O20   O     O_R   0.409830 0.357640 0.447820 -0.584808
O21   O     O_R   0.409800 0.462010 0.552160 -0.565904
O22   O     O_R   0.590190 0.447820 0.538010 -0.579233
O23   O     O_R   0.590160 0.552190 0.642360 -0.586050
O24   O     O_R   0.947830 0.537990 0.090130 -0.588510
C61   C     C_2   0.288565 0.890916 0.249093 0.837606
O25   O     O_2   0.327870 0.920307 0.215953 -0.597045
O26   O     O_R   0.243187 0.928253 0.277924 -0.785358
H19   H     H_    0.247176 0.978231 0.266974 0.325188
C62   C     C_2   0.205702 0.686725 0.359625 0.807421
O27   O     O_2   0.186283 0.734151 0.402062 -0.591031
O28   O     O_R   0.191773 0.609775 0.361127 -0.762187
H20   H     H_    0.165117 0.600741 0.398612 0.344579
C63   C     C_3   0.892999 0.897791 0.668332 -0.824357
H21   H     H_    0.881497 0.895290 0.722082 0.222300
H22   H     H_    0.955098 0.897795 0.680297 0.248395
H23   H     H_    0.899185 0.959290 0.670625 0.224992
C64   C     C_3   0.599946 0.608028 0.331246 -0.814049
H24   H     H_    0.538501 0.602151 0.330074 0.221384
H25   H     H_    0.601925 0.619695 0.277501 0.222452
H26   H     H_    0.599625 0.546028 0.318411 0.251751
C65   C     C_3   0.570187 0.421908 0.719151 -0.846838
H27   H     H_    0.564439 0.394550 0.762335 0.232633
H28   H     H_    0.549536 0.471498 0.731732 0.248158
H29   H     H_    0.525358 0.368647 0.650657 0.224677
C66   C     C_3   0.262408 0.149097 0.193949 -0.781488
H30   H     H_    0.234252 0.089106 0.197275 0.211525
H31   H     H_    0.246399 0.129488 0.125485 0.237734
H32   H     H_    0.334042 0.183269 0.236702 0.269943
C67   C     C_2   0.256020 0.418013 0.548416 0.866000
O29   O     O_2   0.234368 0.436749 0.491397 -0.607271
O30   O     O_R   0.285115 0.476473 0.634472 -0.750953
H33   H     H_    0.284547 0.531910 0.641314 0.335200
C68   C     C_3   0.129796 0.285503 0.560541 -0.812550
H34   H     H_    0.142157 0.352828 0.585210 0.252883
H35   H     H_    0.061629 0.243382 0.506121 0.238568
H36   H     H_    0.135707 0.270972 0.614244 0.226347
C69   C     C_3   0.232968 0.080285 0.439730 -0.810996
H37   H     H_    0.166582 0.030603 0.384067 0.216858
H38   H     H_    0.280672 0.077525 0.417684 0.245706
H39   H     H_    0.245796 0.064292 0.492808 0.254030
C70   C     C_3   0.975398 0.592133 0.260900 -0.787654
H40   H     H_    0.909501 0.537721 0.208326 0.235334
H41   H     H_    0.025103 0.575210 0.254356 0.242529
H42   H     H_    0.980236 0.600162 0.324010 0.225611
C71   C     C_3   0.098931 0.300817 0.931954 -0.816406
H43   H     H_    0.133271 0.263518 0.939403 0.249978
H44   H     H_    0.148510 0.370763 0.970401 0.234935
H45   H     H_    0.054570 0.288331 0.959040 0.227379
C72   C     C_2   0.299993 0.306733 0.175179 0.858618
O31   O     O_2   0.279461 0.334668 0.126155 -0.616941
O32   O     O_R   0.373953 0.297506 0.192953 -0.759548
H46   H     H_    0.404585 0.315895 0.161427 0.330994
C73   C     C_2   0.901160 0.331779 0.695183 0.820682
O33   O     O_2   0.922173 0.406374 0.742552 -0.611177
O34   O     O_R   0.829711 0.284575 0.610993 -0.757249
H47   H     H_    0.800497 0.318823 0.597873 0.341676
C74   C     C_3   0.068128 0.204363 0.309093 -0.842706
H48   H     H_    0.062050 0.146271 0.315140 0.233850
H49   H     H_    0.087993 0.257172 0.372889 0.251632
H50   H     H_    0.003431 0.188291 0.260708 0.232320

loop_
_geom_bond_atom_site_label_1
_geom_bond_atom_site_label_2
_ccdc_geom_bond_type
C48   H11   S    
C40   C47   S    
C29   C67   S    
C1    C21   S    
C73   O33   D    
C6    H16   S    
Cu2   O12   S    
C11   C61   S    
C26   H6    S    
C37   O4    A    
O26   H19   S    
Cu4   O6    S    
C40   O9    A    
C74   H50   S    
C46   H10   S    
C70   H40   S    
C71   H43   S    
O30   H33   S    
Cu2   O21   S    
C41   O11   A    
C53   C54   A    
C45   C66   S    
C68   H35   S    
C38   O5    A    
C26   C27   A    
C16   C21   A    
C31   C43   S    
C34   O23   A    
Cu6   O13   S    
Cu5   O14   S    
Cu2   O19   S    
C63   H22   S    
C42   C53   S    
C5    C6    A    
C2    C60   A    
C36   O24   A    
O28   H20   S    
C23   O21   A    
C18   C19   A    
Cu4   O2    S    
C49   C50   A    
C64   H26   S    
C70   H41   S    
C54   C55   A    
C72   O31   D    
C47   C48   A    
C45   C56   A    
C16   C17   A    
C3    H15   S    
C65   H29   S    
C51   C57   A    
C72   O32   S    
C9    C10   A    
C17   C63   S    
Cu6   O10   S    
C66   H32   S    
C8    C58   S    
Cu5   O9    S    
C65   H27   S    
C28   C34   S    
C59   C60   A    
C73   O34   S    
C30   C68   S    
C22   C28   A    
C13   C14   A    
C63   H23   S    
C67   O30   S    
Cu6   O17   S    
C52   H12   S    
C39   O7    A    
C74   H49   S    
C44   C46   A    
C17   C18   A    
C2    C45   A    
C1    O1    A    
C7    C12   S    
C68   H36   S    
C5    C15   S    
C51   C52   A    
C34   O22   A    
C7    C8    A    
Cu1   O20   S    
C43   O16   A    
C12   O19   A    
C3    C8    A    
C18   C41   S    
C56   C72   S    
C22   C65   S    
Cu2   O23   S    
C36   O2    A    
C58   C59   A    
C42   O15   A    
C69   H38   S    
Cu6   O15   S    
C44   H9    S    
C43   O17   A    
C12   O18   A    
C29   C30   A    
C38   C57   S    
C31   C32   A    
C55   C73   S    
Cu3   O5    S    
C60   C74   S    
C64   H24   S    
C49   C70   S    
C25   C26   A    
C24   C25   A    
Cu1   O22   S    
C32   C69   S    
Cu1   O1    S    
C9    H17   S    
C48   C49   A    
C2    H1    S    
C23   C35   S    
C55   C57   A    
O34   H47   S    
C67   O29   D    
C41   O13   A    
C71   H45   S    
Cu4   O8    S    
Cu3   O7    S    
C3    C4    A    
C39   O8    A    
C27   C28   A    
C70   H42   S    
C36   C50   S    
C52   C53   A    
C20   C64   S    
C62   O27   D    
C44   C50   A    
C29   C35   A    
C46   C47   A    
Cu3   O3    S    
C20   C21   A    
C37   O3    A    
C16   H3    S    
Cu5   O16   S    
C40   O10   A    
C4    C5    A    
C42   O14   A    
C59   H14   S    
C6    C7    A    
C69   H39   S    
C14   C62   S    
C68   H34   S    
C38   O6    A    
C63   H21   S    
C32   C33   A    
C19   C20   A    
C61   O26   S    
Cu1   O18   S    
C66   H30   S    
C74   H48   S    
C69   H37   S    
C25   C39   S    
C11   C13   A    
C30   C31   A    
C1    O12   A    
C10   H18   S    
C33   C35   A    
C56   C58   A    
C22   C24   A    
C23   O20   A    
C9    C15   A    
Cu1   Cu2   S    
C64   H25   S    
C10   C11   A    
C54   H13   S    
Cu3   Cu4   S    
C71   H44   S    
C33   H8    S    
Cu5   O11   S    
C4    C37   S    
C51   C71   S    
Cu5   Cu6   S    
C61   O25   D    
O32   H46   S    
C65   H28   S    
C14   C15   A    
C19   H4    S    
C66   H31   S    
Cu3   O24   S    
C27   H7    S    
Cu4   O4    S    
C24   H5    S    
C62   O28   S    
C13   H2    S    
