data_mof_unit_31387.cif
_audit_creation_date              2012-12-10T18:23:04-0500
_audit_creation_method            fapswitch 2.2
_symmetry_space_group_name_H-M    P1
_symmetry_Int_Tables_number       1
_space_group_crystal_system       triclinic
_cell_length_a                    14.998414
_cell_length_b                    14.021061
_cell_length_c                    10.608191
_cell_angle_alpha                 88.532325
_cell_angle_beta                  91.431394
_cell_angle_gamma                 90.398993
_cell_volume                      2229.36310339

loop_
_atom_site_label
_atom_site_type_symbol
_atom_type_description
_atom_site_fract_x
_atom_site_fract_y
_atom_site_fract_z
_atom_type_partial_charge
C1    C     C_R   0.326606 0.499568 0.499278 1.029181
C2    C     C_R   0.673001 0.500135 0.499576 0.995983
C3    C     C_R   0.951630 0.473780 0.475602 -0.004088
C4    C     C_R   0.045473 0.472854 0.478465 -0.004375
C5    C     C_R   0.903766 0.521809 0.375106 0.019882
C6    C     C_R   0.093085 0.426986 0.580912 0.025851
C7    C     C_R   0.951488 0.365797 0.660046 -0.076420
C8    C     C_R   0.044181 0.548860 0.268853 -0.053074
C9    C     C_R   0.044600 0.371754 0.671301 0.101294
C10   C     C_R   0.951437 0.558267 0.269891 0.107795
C11   C     C_R   0.565399 0.799452 0.439688 0.025479
C12   C     C_R   0.434337 0.200572 0.559726 0.024630
C13   C     C_R   0.434932 0.796155 0.560671 -0.009274
C14   C     C_R   0.565187 0.204021 0.439327 -0.006465
C15   C     C_R   0.431817 0.896924 0.560212 -0.043372
C16   C     C_R   0.567107 0.103242 0.436710 -0.069627
C17   C     C_R   0.568253 0.900403 0.438852 -0.083417
C18   C     C_R   0.431802 0.099586 0.561052 -0.054392
C19   C     C_R   0.499823 0.949461 0.499199 0.004481
C20   C     C_R   0.499616 0.050671 0.499082 0.014598
C21   C     C_R   0.362953 0.945654 0.620019 0.182915
C22   C     C_R   0.635188 0.054003 0.375350 0.177943
C23   C     C_R   0.636469 0.953276 0.377889 0.175948
C24   C     C_R   0.362984 0.046615 0.620782 0.148024
C25   C     C_R   0.498570 0.501173 0.257406 1.016235
C26   C     C_R   0.501294 0.498945 0.742521 1.047496
C27   C     C_3   0.505637 0.592022 0.034963 -0.093207
C28   C     C_3   0.493301 0.408716 0.964678 -0.088383
C29   C     C_3   0.577030 0.539562 0.961070 -0.081158
C30   C     C_3   0.422245 0.461379 0.038719 -0.119119
C31   C     C_3   0.431442 0.549724 0.950620 0.156813
C32   C     C_3   0.567852 0.450847 0.048873 0.135827
C33   C     C_3   0.501907 0.497524 0.876735 -0.109817
C34   C     C_3   0.497359 0.503162 0.123034 -0.123166
C35   C     C_R   0.809892 0.528493 0.382368 -0.069624
C36   C     C_R   0.187228 0.436464 0.586599 -0.068106
C37   C     C_R   0.768576 0.498371 0.494138 -0.163323
C38   C     C_R   0.230104 0.496182 0.497401 -0.162561
C39   C     C_R   0.816325 0.452694 0.593237 -0.050863
C40   C     C_R   0.182425 0.542407 0.398248 -0.035779
C41   C     C_R   0.905819 0.429469 0.576120 -0.005805
C42   C     C_R   0.091271 0.521288 0.380940 0.008221
H1    H     H_    0.614645 0.759073 0.392003 0.185310
H2    H     H_    0.384242 0.241126 0.605661 0.124344
H3    H     H_    0.385535 0.753454 0.608990 0.156433
H4    H     H_    0.615630 0.247150 0.394093 0.129709
N1    N     N_R   0.500000 0.750030 0.500000 -0.107917
N2    N     N_R   0.500000 0.249970 0.500000 -0.101620
O1    O     O_R   0.367850 0.580280 0.500030 -0.623595
O2    O     O_R   0.632150 0.419720 0.499970 -0.611542
O3    O     O_R   0.632150 0.580280 0.499970 -0.585869
O4    O     O_R   0.367850 0.419720 0.500030 -0.628167
O5    O     O_R   0.499970 0.580260 0.313950 -0.546587
O6    O     O_R   0.500030 0.419740 0.686050 -0.566092
O7    O     O_R   0.500030 0.580260 0.686050 -0.644560
O8    O     O_R   0.499970 0.419740 0.313950 -0.652183
Zn1   Zn    Zn3+2 0.500000 0.607200 0.500000 1.042963
Zn2   Zn    Zn3+2 0.500000 0.392800 0.500000 1.026453
N3    N     N_2   0.359873 0.602858 0.887004 -0.280296
H5    H     H_    0.381755 0.650066 0.818370 0.229289
C43   C     C_3   0.294732 0.645135 0.965841 -0.649847
H6    H     H_    0.236060 0.667658 0.906748 0.211407
H7    H     H_    0.323071 0.708852 0.012261 0.259326
H8    H     H_    0.271941 0.593055 0.037757 0.301254
N4    N     N_2   0.637770 0.395445 0.112633 -0.336541
H9    H     H_    0.613174 0.341058 0.169250 0.230055
C44   C     C_3   0.710549 0.365001 0.037021 -0.734707
H10   H     H_    0.759228 0.324557 0.097755 0.214559
H11   H     H_    0.745952 0.427452 0.996205 0.226800
H12   H     H_    0.686160 0.317984 0.961142 0.317911
C45   C     C_2   0.512708 0.695154 0.068707 0.446886
H13   H     H_    0.557990 0.741926 0.017974 0.042918
O9    O     O_2   0.465330 0.727999 0.148481 -0.538796
C46   C     C_2   0.484216 0.306501 0.926945 0.447981
H14   H     H_    0.428527 0.263739 0.959822 0.023710
O10   O     O_2   0.539273 0.270581 0.860385 -0.531473
C47   C     C_2   0.661425 0.588245 0.920565 0.372416
H15   H     H_    0.712795 0.604966 0.990279 0.072530
O11   O     O_2   0.671722 0.612145 0.810532 -0.568560
C48   C     C_2   0.336678 0.416061 0.080300 0.466222
H16   H     H_    0.288589 0.391676 0.010153 0.112683
O12   O     O_2   0.320887 0.405644 0.192057 -0.528773
C49   C     C_2   0.753317 0.559892 0.272237 0.392169
H17   H     H_    0.757825 0.523024 0.184516 0.092735
O13   O     O_2   0.704651 0.628948 0.277285 -0.606732
C50   C     C_2   0.242902 0.386634 0.685609 0.420016
H18   H     H_    0.240895 0.309625 0.695532 0.079294
O14   O     O_2   0.291850 0.431790 0.755991 -0.628038
C51   C     C_2   0.777715 0.441399 0.721071 0.523362
H19   H     H_    0.820022 0.454138 0.803463 -0.002785
O15   O     O_2   0.701178 0.414331 0.736151 -0.527837
C52   C     C_2   0.224272 0.619923 0.320085 0.459419
H20   H     H_    0.186736 0.684246 0.297174 0.016976
O16   O     O_2   0.297835 0.611028 0.275456 -0.519347
C53   C     C_2   0.903395 0.288170 0.729996 0.355682
H21   H     H_    0.925876 0.263910 0.823161 0.073894
O17   O     O_2   0.838815 0.248520 0.681750 -0.549240
C54   C     C_2   0.089508 0.556197 0.146181 0.328768
H22   H     H_    0.071741 0.610888 0.076114 0.065380
O18   O     O_2   0.145575 0.497587 0.121004 -0.570680
N5    N     N_2   0.088352 0.323533 0.774967 -0.354044
H23   H     H_    0.073176 0.252020 0.785503 0.208330
C55   C     C_3   0.088164 0.374601 0.891727 -0.702264
H24   H     H_    0.118196 0.446672 0.877875 0.281462
H25   H     H_    0.128295 0.334871 0.964765 0.257487
H26   H     H_    0.019119 0.382078 0.925520 0.211555
N6    N     N_2   0.907050 0.604800 0.165259 -0.331212
H27   H     H_    0.920833 0.578389 0.078092 0.206100
C56   C     C_3   0.908093 0.707869 0.168704 -0.765656
H28   H     H_    0.867804 0.737366 0.087804 0.238861
H29   H     H_    0.977390 0.735707 0.162248 0.218516
H30   H     H_    0.878628 0.732040 0.257423 0.269695
N7    N     N_2   0.294673 0.893083 0.683203 -0.311108
H31   H     H_    0.270339 0.923100 0.763043 0.253809
C57   C     C_3   0.226587 0.849606 0.603561 -0.811195
H32   H     H_    0.214788 0.775142 0.637466 0.242416
H33   H     H_    0.246448 0.848078 0.503293 0.247841
H34   H     H_    0.163207 0.889635 0.608723 0.243528
N8    N     N_2   0.703156 0.104236 0.308943 -0.305112
H35   H     H_    0.680914 0.159739 0.251075 0.209273
C58   C     C_3   0.781175 0.127898 0.384956 -0.690890
H36   H     H_    0.763685 0.179022 0.458541 0.268648
H37   H     H_    0.832427 0.161322 0.324011 0.228801
H38   H     H_    0.809925 0.062458 0.430598 0.255874
N9    N     N_2   0.708197 0.906875 0.319295 -0.296930
H39   H     H_    0.735303 0.849964 0.369945 0.228023
C59   C     C_3   0.692658 0.888228 0.187183 -0.700197
H40   H     H_    0.753841 0.858294 0.147381 0.234775
H41   H     H_    0.675907 0.955288 0.134007 0.251296
H42   H     H_    0.637333 0.836058 0.175621 0.242653
N10   N     N_2   0.291918 0.093264 0.680411 -0.318490
H43   H     H_    0.311443 0.146476 0.740602 0.214388
C60   C     C_3   0.218025 0.119435 0.596584 -0.790212
H44   H     H_    0.162304 0.146055 0.652512 0.233542
H45   H     H_    0.193710 0.056663 0.543753 0.264544
H46   H     H_    0.238520 0.176451 0.528447 0.235641

loop_
_geom_bond_atom_site_label_1
_geom_bond_atom_site_label_2
_ccdc_geom_bond_type
C13   H3    S    
N5    H23   S    
C27   C29   S    
C11   N1    A    
C19   C20   A    
C2    C37   S    
C25   O8    A    
C12   N2    A    
C28   C46   S    
C26   O7    A    
C6    C9    A    
C14   H4    S    
C47   H15   S    
C15   C19   A    
C17   C23   A    
C46   O10   D    
C18   C24   A    
C35   C37   A    
C8    C42   A    
C29   C32   S    
C56   H29   S    
C30   C31   S    
C50   O14   D    
C57   H32   S    
C29   C33   S    
O1    Zn1   S    
C31   N3    S    
C43   H7    S    
C8    C54   S    
C58   H38   S    
C2    O2    A    
C11   C17   A    
C53   H21   S    
C6    C36   A    
C57   H33   S    
C60   H46   S    
N6    H27   S    
C31   C33   S    
C11   H1    S    
O3    Zn1   S    
C51   O15   D    
C25   C34   S    
C23   N9    S    
C30   C48   S    
C40   C42   A    
N3    H5    S    
N5    C55   S    
C60   H45   S    
N6    C56   S    
C10   N6    S    
C26   O6    A    
C47   O11   D    
C27   C34   S    
C22   N8    S    
C37   C39   A    
N3    C43   S    
C46   H14   S    
C30   C34   S    
C27   C31   S    
C44   H10   S    
O2    Zn2   S    
C28   C32   S    
C21   N7    S    
C56   H30   S    
C45   O9    D    
C35   C49   S    
C50   H18   S    
C14   N2    A    
N4    C44   S    
C44   H11   S    
C32   C34   S    
C43   H8    S    
C59   H41   S    
N1    Zn1   S    
C26   C33   S    
C49   H17   S    
C15   C21   A    
C16   C20   A    
C57   H34   S    
C52   O16   D    
C55   H25   S    
C40   C52   S    
C58   H36   S    
N8    C58   S    
O4    Zn2   S    
C1    C38   S    
C4    C6    A    
C49   O13   D    
C28   C33   S    
C54   H22   S    
C54   O18   D    
O7    Zn1   S    
C60   H44   S    
C14   C16   A    
C3    C4    A    
C3    C5    A    
C27   C45   S    
C13   N1    A    
N7    H31   S    
O6    Zn2   S    
C7    C9    A    
C3    C41   A    
C16   C22   A    
C8    C10   A    
C25   O5    A    
C48   H16   S    
N10   C60   S    
O5    Zn1   S    
N8    H35   S    
C53   O17   D    
N2    Zn2   S    
C59   H40   S    
C7    C53   S    
C44   H12   S    
C36   C50   S    
C13   C15   A    
C59   H42   S    
C5    C10   A    
C12   H2    S    
C56   H28   S    
C36   C38   A    
C38   C40   A    
C24   N10   S    
N9    H39   S    
C4    C42   A    
C5    C35   A    
C28   C30   S    
C52   H20   S    
C17   C19   A    
C48   O12   D    
O8    Zn2   S    
C55   H26   S    
C18   C20   A    
C7    C41   A    
C43   H6    S    
C1    O4    A    
C58   H37   S    
C2    O3    A    
C45   H13   S    
C29   C47   S    
C39   C41   A    
C9    N5    S    
N4    H9    S    
C21   C24   A    
C12   C18   A    
C55   H24   S    
N9    C59   S    
C22   C23   A    
C51   H19   S    
C1    O1    A    
C39   C51   S    
N10   H43   S    
C32   N4    S    
N7    C57   S    
