data_mof_unit_6584.cif
_audit_creation_date              2013-03-05T15:45:10-0500
_audit_creation_method            fapswitch 2.2
_symmetry_space_group_name_H-M    P1
_symmetry_Int_Tables_number       1
_space_group_crystal_system       triclinic
_cell_length_a                    10.846279
_cell_length_b                    11.062404
_cell_length_c                    9.857076
_cell_angle_alpha                 111.549404
_cell_angle_beta                  99.586065
_cell_angle_gamma                 91.136883
_cell_volume                      1080.44034276

loop_
_atom_site_label
_atom_site_type_symbol
_atom_site_description
_atom_site_fract_x
_atom_site_fract_y
_atom_site_fract_z
_atom_type_partial_charge
O1    O     O_R   0.511700 0.332330 0.577400 -0.618865
O2    O     O_R   0.474680 0.295500 0.332650 -0.508580
C1    C     C_R   0.487268 0.253873 0.439565 0.772983
O3    O     O_R   0.338160 0.518420 0.622400 -0.617359
O4    O     O_R   0.301140 0.481590 0.377650 -0.535626
C2    C     C_R   0.263342 0.513174 0.502582 0.807309
Cu1   Cu    Cu3+1 0.521920 0.521810 0.644910 1.039536
Cu2   Cu    Cu3+1 0.478080 0.478190 0.355090 1.019315
O5    O     O_R   0.525320 0.704500 0.667350 -0.506783
O6    O     O_R   0.488300 0.667670 0.422600 -0.605695
O7    O     O_R   0.698860 0.518410 0.622350 -0.558304
O8    O     O_R   0.661840 0.481580 0.377600 -0.587122
C3    C     C_R   0.510189 0.746584 0.560425 0.742922
C4    C     C_R   0.738308 0.494451 0.500046 0.817064
C5    C     C_R   0.161359 0.653892 0.782205 0.184247
C6    C     C_R   0.126015 0.655603 0.912903 -0.091211
H1    H     H_    0.182965 0.713350 0.019839 0.178221
C7    C     C_R   0.016661 0.584785 0.906693 -0.168703
H2    H     H_    0.991587 0.582974 0.007631 0.148657
C8    C     C_R   0.935029 0.523292 0.771608 -0.076337
H3    H     H_    0.852504 0.468107 0.773090 0.170086
C9    C     C_R   0.963264 0.529750 0.639221 0.070488
C10   C     C_R   0.086753 0.574052 0.642071 0.002876
C11   C     C_R   0.130107 0.533385 0.505416 -0.151987
C12   C     C_R   0.042304 0.492545 0.370053 0.185624
H4    H     H_    0.848583 0.454062 0.269483 0.168558
C13   C     C_R   0.915416 0.479311 0.372586 -0.212456
C14   C     C_R   0.874219 0.495080 0.504360 -0.136351
H5    H     H_    0.451946 0.860658 0.374008 0.213815
H6    H     H_    0.574846 0.130799 0.607756 0.195274
C15   C     C_2   0.468888 0.113901 0.402266 0.178972
C16   C     C_2   0.516330 0.066088 0.504659 -0.207529
C17   C     C_2   0.519225 0.887477 0.596354 0.149580
C18   C     C_2   0.490634 0.929983 0.484708 -0.205033
H7    H     H_    0.421734 0.412517 0.845939 0.140388
H8    H     H_    0.598004 0.566544 0.158125 0.197805
N1    N     N_2   0.445130 0.445430 0.137370 -0.285969
C19   C     C_2   0.516980 0.504858 0.083310 -0.005248
N2    N     N_2   0.554930 0.554500 0.862630 -0.077030
C20   C     C_2   0.492996 0.488562 0.920698 -0.017062
H9    H     H_    0.368134 0.387263 0.065185 0.223528
N3    N     N_3   0.081412 0.466331 0.230184 -0.532065
H10   H     H_    0.006349 0.425102 0.141208 0.214914
H11   H     H_    0.111246 0.556014 0.228181 0.210325
N4    N     N_R   0.393038 0.033734 0.261645 0.131824
O9    O     O_R   0.288647 0.073646 0.213810 -0.320298
O10   O     O_R   0.439450 0.936519 0.169617 -0.288335
N5    N     N_R   0.636111 0.662758 0.957742 0.229354
O11   O     O_R   0.730394 0.698068 0.910790 -0.286828
O12   O     O_R   0.602047 0.746666 0.074521 -0.322891
N6    N     N_3   0.260304 0.748781 0.796704 -0.495571
H12   H     H_    0.266048 0.755234 0.694846 0.205632
H13   H     H_    0.345460 0.723063 0.840961 0.281965
N7    N     N_R   0.558789 0.976066 0.748353 0.139637
O13   O     O_R   0.646813 0.947704 0.836040 -0.259531
O14   O     O_R   0.495973 0.075836 0.804381 -0.342132

loop_
_geom_bond_atom_site_label_1
_geom_bond_atom_site_label_2
_geom_bond_distance
_ccdc_geom_bond_type
C12   N3    1.439026 S    
O4    Cu2   1.967949 S    
H6    C16   1.086619 S    
C10   C11   1.418499 A    
C3    C17   1.463282 S    
N1    C19   1.303379 D    
C5    N6    1.438069 S    
O2    C1    1.285469 A    
C12   C13   1.386464 A    
C15   C16   1.339114 D    
Cu2   O8    1.966410 S    
C13   C14   1.395419 A    
C2    C11   1.469951 S    
N5    O12   1.301340 A    
H7    C20   1.085006 S    
Cu1   Cu2   2.673188 S    
C9    C14   1.424845 A    
N4    O9    1.301624 A    
C8    H3    1.078565 S    
C1    C15   1.455220 S    
Cu1   O7    1.967949 S    
H4    C13   1.083700 S    
N3    H11   1.045550 S    
O3    Cu1   1.966410 S    
C5    C10   1.430395 A    
N5    O11   1.298892 A    
C19   C20   1.521970 S    
C8    C9    1.415093 A    
C17   C18   1.341882 D    
C7    C8    1.392023 A    
N4    O10   1.299903 A    
N1    H9    1.030622 S    
O4    C2    1.290121 A    
O7    C4    1.283847 A    
N7    O14   1.301816 A    
O3    C2    1.298213 A    
N3    H10   1.045789 S    
N6    H13   1.044859 S    
C15   N4    1.439738 S    
H8    C19   1.082810 S    
C17   N7    1.442189 S    
N6    H12   1.044199 S    
C11   C12   1.417129 A    
C6    C7    1.388523 A    
C7    H2    1.081134 S    
Cu2   N1    2.008184 S    
N2    C20   1.313872 D    
Cu1   O5    1.949519 S    
Cu1   N2    2.008349 S    
N7    O13   1.301261 A    
N2    N5    1.395315 S    
O5    C3    1.288564 A    
C4    C14   1.467448 S    
O1    Cu1   1.946871 S    
H5    C18   1.083925 S    
Cu2   O6    1.946871 S    
O2    Cu2   1.949519 S    
C9    C10   1.409354 A    
C5    C6    1.397818 A    
O8    C4    1.304064 A    
C6    H1    1.083311 S    
O1    C1    1.293888 A    
O6    C3    1.295080 A    
C16   C18   1.459758 S    
