data_mof_unit_57648.cif
_audit_creation_date              2012-12-11T15:52:32-0500
_audit_creation_method            fapswitch 2.2
_symmetry_space_group_name_H-M    P1
_symmetry_Int_Tables_number       1
_space_group_crystal_system       triclinic
_cell_length_a                    6.926109
_cell_length_b                    14.549416
_cell_length_c                    16.023984
_cell_angle_alpha                 90.25661
_cell_angle_beta                  90.121185
_cell_angle_gamma                 90.079495
_cell_volume                      1614.72896333

loop_
_atom_site_label
_atom_site_type_symbol
_atom_type_description
_atom_site_fract_x
_atom_site_fract_y
_atom_site_fract_z
_atom_type_partial_charge
O1    O     O_R   0.494400 0.415640 0.412830 -0.540384
O2    O     O_R   0.823920 0.405510 0.586560 -0.543013
O3    O     O_R   0.994250 0.584360 0.587170 -0.545591
C1    C     C_R   0.654921 0.383260 0.615438 0.691444
O4    O     O_R   0.824110 0.404610 0.413450 -0.541861
O5    O     O_R   0.994440 0.583460 0.412820 -0.541335
C2    C     C_R   0.654744 0.382190 0.384580 0.694244
O6    O     O_R   0.494210 0.416540 0.587180 -0.536749
O7    O     O_3   0.660810 0.558680 0.500000 -0.373730
V1    V     V_3+5 0.935650 0.489110 0.500000 1.404517
O8    O     O_R   0.324150 0.594490 0.413440 -0.545739
C3    C     C_R   0.155044 0.616713 0.384387 0.678046
O9    O     O_R   0.323970 0.595390 0.586550 -0.543196
C4    C     C_R   0.155281 0.617684 0.615576 0.702743
V2    V     V_3+5 0.435660 0.510890 0.500000 1.403260
O10   O     O_3   0.160630 0.441320 0.500000 -0.366738
C5    C     C_3   0.044100 0.644541 0.764617 0.231215
H1    H     H_    0.893672 0.624823 0.746706 0.066684
C6    C     C_3   0.034166 0.716034 0.837427 -0.355171
H2    H     H_    0.112090 0.689841 0.893281 0.146433
H3    H     H_    0.880754 0.725819 0.855950 0.110776
H4    H     H_    0.878232 0.751918 0.640806 0.144865
H5    H     H_    0.857979 0.855549 0.748269 0.142754
C7    C     C_3   0.026414 0.772889 0.660085 -0.420608
C8    C     C_3   0.349248 0.721032 0.713166 -0.298639
C9    C     C_3   0.144753 0.687158 0.686783 0.103123
H6    H     H_    0.423068 0.753280 0.659011 0.123106
H7    H     H_    0.439755 0.661924 0.733206 0.170009
C10   C     C_3   0.122902 0.809436 0.810962 0.085048
C11   C     C_3   0.012546 0.843798 0.732672 -0.336600
C12   C     C_3   0.336531 0.791683 0.785153 -0.310952
H8    H     H_    0.420168 0.765725 0.839555 0.144565
H9    H     H_    0.405311 0.857162 0.765130 0.133229
H10   H     H_    0.095457 0.805733 0.605095 0.143931
H11   H     H_    0.073477 0.910784 0.712161 0.134691
C13   C     C_R   0.953116 0.774388 0.216323 -0.163233
H12   H     H_    0.812211 0.792970 0.192426 0.113799
C14   C     C_R   0.964123 0.711185 0.281869 -0.151365
H13   H     H_    0.831162 0.682877 0.306255 0.117687
C15   C     C_R   0.143891 0.684807 0.315275 -0.046781
C16   C     C_R   0.312321 0.723527 0.281271 -0.158842
H14   H     H_    0.453228 0.704971 0.305183 0.115131
C17   C     C_R   0.301313 0.786726 0.215723 -0.150774
H15   H     H_    0.434269 0.815051 0.191348 0.115026
C18   C     C_R   0.121563 0.812990 0.182233 -0.055886
C19   C     C_R   0.812320 0.274453 0.716459 -0.159349
H16   H     H_    0.953104 0.293026 0.692551 0.120515
C20   C     C_R   0.801329 0.209735 0.780633 -0.155174
H17   H     H_    0.934183 0.180346 0.804132 0.117483
C21   C     C_R   0.621645 0.183321 0.813844 -0.044282
C22   C     C_R   0.453258 0.223405 0.781124 -0.160644
H18   H     H_    0.312478 0.204861 0.805053 0.116412
C23   C     C_R   0.464247 0.288119 0.716947 -0.140129
H19   H     H_    0.331395 0.317530 0.693465 0.126073
C24   C     C_R   0.643917 0.314445 0.683666 -0.048270
C25   C     C_R   0.792177 0.248695 0.305445 -0.211291
H20   H     H_    0.914400 0.249084 0.347877 0.119733
C26   C     C_R   0.784915 0.183036 0.241041 0.015019
C27   C     C_R   0.625119 0.181101 0.184797 -0.096807
C28   C     C_R   0.475218 0.244903 0.197278 -0.132654
H21   H     H_    0.351648 0.245867 0.155797 0.162538
C29   C     C_R   0.483567 0.309367 0.262397 -0.156609
H22   H     H_    0.366043 0.357797 0.269506 0.123617
C30   C     C_R   0.643310 0.312686 0.316510 -0.058116
O11   O     O_R   0.771300 0.080930 0.910090 -0.543330
O12   O     O_R   0.441270 0.092800 0.083770 -0.519510
O13   O     O_R   0.271080 0.913920 0.084380 -0.538044
C31   C     C_R   0.610998 0.113672 0.114236 0.705519
O14   O     O_R   0.441580 0.091910 0.910670 -0.547677
O15   O     O_R   0.271390 0.913020 0.910040 -0.546866
C32   C     C_R   0.610606 0.114311 0.881913 0.672494
O16   O     O_R   0.770990 0.081830 0.084440 -0.513472
O17   O     O_3   0.604750 0.938760 0.997250 -0.381664
V3    V     V_3+5 0.329850 0.008280 0.997210 1.454393
O18   O     O_R   0.941680 0.901940 0.910610 -0.547759
C33   C     C_R   0.110821 0.879591 0.881610 0.649840
O19   O     O_R   0.941370 0.902830 0.083720 -0.545215
C34   C     C_R   0.110450 0.880814 0.112923 0.713543
V4    V     V_3+5 0.829860 0.986420 0.997150 1.431483
O20   O     O_3   0.104830 0.056030 0.997180 -0.343680
O21   O     O_3   0.144078 0.565528 0.790390 -0.657483
H23   H     H_    0.056187 0.531455 0.828152 0.282366
C35   C     C_2   0.942599 0.115012 0.238706 0.345905
H24   H     H_    0.953377 0.063779 0.287471 0.019373
O22   O     O_2   0.067168 0.118958 0.185141 -0.517425

loop_
_geom_bond_atom_site_label_1
_geom_bond_atom_site_label_2
_ccdc_geom_bond_type
C8    C12   S    
O12   C31   A    
O11   V4    S    
C16   H14   S    
C23   C24   A    
C6    H2    S    
C1    O6    A    
O21   H23   S    
C10   C33   S    
O19   C34   A    
C8    H7    S    
C29   H22   S    
C11   H11   S    
C5    C9    S    
C13   H12   S    
C6    H3    S    
C7    C9    S    
O16   V4    S    
O5    C3    A    
C14   H13   S    
V2    O10   S    
O12   V3    S    
C25   H20   S    
C28   C29   A    
O17   V3    S    
O14   C32   A    
C29   C30   A    
O8    V2    S    
C12   H8    S    
C19   C24   A    
O15   V3    S    
C25   C30   A    
C18   C34   S    
O1    V2    S    
O7    V1    S    
C20   C21   A    
C27   C28   A    
V3    O20   S    
O9    C4    A    
C16   C17   A    
O13   C34   A    
C21   C22   A    
O19   V4    S    
C19   C20   A    
C22   H18   S    
H5    C11   S    
O14   V3    S    
O4    C2    A    
C26   C27   A    
O11   C32   A    
C21   C32   S    
C7    H10   S    
C28   H21   S    
C22   C23   A    
C3    C15   S    
O2    C1    A    
O18   C33   A    
C10   C11   S    
C27   C31   S    
C35   H24   S    
C31   O16   A    
C12   H9    S    
C5    H1    S    
O17   V4    S    
C13   C18   A    
O13   V3    S    
C4    C9    S    
C17   C18   A    
O3    C4    A    
C20   H17   S    
C35   O22   D    
O6    V2    S    
O9    V2    S    
C1    C24   S    
O15   C33   A    
H4    C7    S    
C6    C10   S    
C19   H16   S    
C15   C16   A    
O1    C2    A    
O5    V1    S    
O8    C3    A    
C23   H19   S    
C8    H6    S    
C13   C14   A    
C8    C9    S    
O4    V1    S    
C10   C12   S    
O3    V1    S    
V1    O10   S    
C26   C35   S    
C14   C15   A    
C17   H15   S    
C5    C6    S    
C25   C26   A    
C5    O21   S    
O7    V2    S    
C7    C11   S    
C2    C30   S    
V4    O20   S    
O18   V4    S    
O2    V1    S    
