data_mof_unit_32942.cif
_audit_creation_date              2012-12-11T18:34:56-0500
_audit_creation_method            fapswitch 2.2
_symmetry_space_group_name_H-M    P1
_symmetry_Int_Tables_number       1
_space_group_crystal_system       triclinic
_cell_length_a                    8.214744
_cell_length_b                    14.428882
_cell_length_c                    22.890241
_cell_angle_alpha                 93.807101
_cell_angle_beta                  89.267872
_cell_angle_gamma                 91.616165
_cell_volume                      2705.94449285

loop_
_atom_site_label
_atom_site_type_symbol
_atom_type_description
_atom_site_fract_x
_atom_site_fract_y
_atom_site_fract_z
_atom_type_partial_charge
Ba1   Ba    Ba6+2 0.846250 0.544220 0.470860 1.635872
Ba2   Ba    Ba6+2 0.343570 0.455860 0.529140 1.635569
C1    C     C_3   0.659007 0.885542 0.311008 -0.349631
C2    C     C_R   0.094326 0.576219 0.937137 -0.028226
C3    C     C_R   0.048205 0.571168 0.877340 0.596347
C4    C     C_3   0.089093 0.737906 0.305319 0.312118
C5    C     C_R   0.968816 0.410568 0.882805 0.572427
C6    C     C_R   0.012373 0.413831 0.942525 -0.016430
C7    C     C_R   0.075461 0.497063 0.969832 -0.052161
C8    C     C_R   0.158296 0.658865 0.965219 -0.074922
C9    C     C_R   0.202523 0.662682 0.024240 -0.072903
C10   C     C_R   0.183810 0.584085 0.057428 -0.017872
C11   C     C_R   0.119797 0.501059 0.030102 -0.052009
C12   C     C_3   0.627023 0.789512 0.332813 0.345544
C13   C     C_R   0.994510 0.335078 0.975568 -0.073698
C14   C     C_R   0.038177 0.338973 0.034542 -0.075639
C15   C     C_R   0.101065 0.421792 0.062668 -0.026737
C16   C     C_3   0.067966 0.760522 0.242051 -0.313868
C17   C     C_R   0.146395 0.426673 0.122418 0.592811
C18   C     C_R   0.227595 0.587044 0.117241 0.574351
C19   C     C_2   0.798289 0.440042 0.770750 -0.086094
C20   C     C_3   0.775613 0.410435 0.706919 -0.046583
C21   C     C_1   0.001049 0.517878 0.684908 0.035315
C22   C     C_2   0.048110 0.522241 0.740950 -0.100341
C23   C     C_3   0.508850 0.333500 0.355718 0.293118
C24   C     C_2   0.939505 0.483682 0.788187 0.194658
C25   C     C_R   0.401179 0.554487 0.230609 -0.095230
C26   C     C_R   0.441411 0.562691 0.290086 -0.015048
C27   C     C_R   0.190529 0.482528 0.315259 0.031352
C28   C     C_3   0.172894 0.742337 0.590774 0.308406
C29   C     C_R   0.146045 0.476411 0.255487 -0.098796
C30   C     C_R   0.250212 0.513931 0.212140 0.193254
C31   C     C_2   0.869278 0.470478 0.666301 -0.287765
C32   C     C_R   0.691624 0.935909 0.529365 -0.037795
C33   C     C_R   0.508659 0.800632 0.498633 0.044876
C34   C     C_3   0.498375 0.311207 0.289917 -0.363371
C35   C     C_R   0.368636 0.767806 0.469039 -0.297318
C36   C     C_R   0.264418 0.829301 0.445443 0.019312
C37   C     C_R   0.307862 0.922383 0.445101 -0.141306
C38   C     C_R   0.458521 0.955664 0.467768 0.019265
C39   C     C_R   0.553700 0.896937 0.499690 -0.042927
C40   C     C_3   0.172121 0.847242 0.603363 -0.378325
C41   C     C_R   0.645835 0.088000 0.491166 -0.010034
C42   C     C_R   0.737114 0.030362 0.526073 -0.007063
C43   C     C_R   0.688988 0.185004 0.493297 0.022381
C44   C     C_R   0.820957 0.219812 0.526682 -0.286445
C45   C     C_3   0.105554 0.254773 0.694071 0.331339
C46   C     C_R   0.922465 0.161196 0.553724 0.013552
C47   C     C_R   0.878386 0.066804 0.555152 -0.137984
C48   C     C_R   0.516415 0.045544 0.456708 0.058595
C49   C     C_3   0.019947 0.256841 0.408169 0.303107
C50   C     C_3   0.997406 0.152991 0.392520 -0.393807
C51   C     C_3   0.674607 0.662011 0.641395 0.299549
C52   C     C_3   0.682995 0.685878 0.707032 -0.363024
C53   C     C_3   0.469161 0.080722 0.398650 -0.367599
C54   C     C_3   0.128024 0.228096 0.756524 -0.312719
C55   C     C_3   0.570221 0.208408 0.670259 0.351759
C56   C     C_3   0.538499 0.113800 0.694382 -0.363991
C57   C     C_R   0.334060 0.529668 0.331904 -0.303783
H1    H     H_    0.695103 0.785772 0.374140 0.094420
H2    H     H_    0.796842 0.642986 0.624858 0.012537
H3    H     H_    0.588147 0.602141 0.633584 0.080240
H4    H     H_    0.786136 0.893037 0.294879 0.152237
H5    H     H_    0.775359 0.742415 0.716453 0.134387
H6    H     H_    0.716978 0.624094 0.729961 0.070763
H7    H     H_    0.562327 0.708847 0.723935 0.134404
H8    H     H_    0.494162 0.780414 0.341543 -0.050105
H9    H     H_    0.642323 0.938205 0.347682 0.068975
H10   H     H_    0.384717 0.343327 0.373824 0.019872
H11   H     H_    0.584481 0.397908 0.364109 0.069976
H12   H     H_    0.258659 0.868454 0.638994 0.130491
H13   H     H_    0.422272 0.247155 0.280754 0.135514
H14   H     H_    0.443373 0.368643 0.268194 0.069490
H15   H     H_    0.622263 0.300266 0.271156 0.134127
H16   H     H_    0.574000 0.898000 0.275199 0.113700
H17   H     H_    0.069654 0.695344 0.213747 0.122620
H18   H     H_    0.183755 0.317386 0.687405 0.097503
H19   H     H_    0.976035 0.271074 0.688302 -0.049391
H20   H     H_    0.246354 0.194357 0.761168 0.143678
H21   H     H_    0.127745 0.291578 0.786450 0.124390
H22   H     H_    0.028224 0.179521 0.769020 0.122887
H23   H     H_    0.208686 0.883163 0.563792 0.063094
H24   H     H_    0.704363 0.221082 0.669403 -0.061107
H25   H     H_    0.523478 0.205770 0.624788 0.078078
H26   H     H_    0.606680 0.060304 0.667753 0.070765
H27   H     H_    0.406889 0.094683 0.692482 0.149934
H28   H     H_    0.009005 0.676629 0.313099 0.100991
H29   H     H_    0.579612 0.114983 0.740462 0.125411
H30   H     H_    0.022175 0.276631 0.058107 0.124788
H31   H     H_    0.946501 0.269780 0.955888 0.124408
H32   H     H_    0.251304 0.727822 0.043877 0.124073
H33   H     H_    0.488254 0.578906 0.198840 0.120752
H34   H     H_    0.047859 0.868967 0.616916 0.117641
H35   H     H_    0.174664 0.721113 0.941588 0.124113
H36   H     H_    0.166650 0.552407 0.752670 0.131848
H37   H     H_    0.712030 0.414125 0.802482 0.119647
H38   H     H_    0.031803 0.442100 0.242950 0.132245
H39   H     H_    0.367840 0.535141 0.377557 0.081425
H40   H     H_    0.218379 0.720644 0.311923 -0.036434
H41   H     H_    0.845426 0.458633 0.619852 0.082008
H42   H     H_    0.334634 0.694713 0.467933 0.073324
H43   H     H_    0.223651 0.968597 0.426561 0.083977
H44   H     H_    0.955012 0.021870 0.578237 0.074700
H45   H     H_    0.903749 0.285123 0.424710 0.011362
H46   H     H_    0.851785 0.293390 0.528496 0.058627
H47   H     H_    0.764234 0.893899 0.555791 0.097091
H48   H     H_    0.949085 0.792849 0.236045 0.141498
H49   H     H_    0.167378 0.808689 0.228693 0.129958
H50   H     H_    0.298007 0.721192 0.579627 0.004852
H51   H     H_    0.090630 0.723420 0.553512 0.063863
H52   H     H_    0.412889 0.026611 0.368066 0.083834
H53   H     H_    0.378564 0.135763 0.404687 0.145335
H54   H     H_    0.581511 0.100133 0.374734 0.137625
H55   H     H_    0.114142 0.267809 0.442308 0.063475
H56   H     H_    0.888318 0.139879 0.364720 0.126583
H57   H     H_    0.981932 0.114579 0.432632 0.067978
H58   H     H_    0.105547 0.126072 0.368062 0.123160
N1    N     N_R   0.986519 0.488739 0.850270 -0.422845
N2    N     N_R   0.206111 0.509299 0.149919 -0.423042
O1    O     O_2   0.901900 0.448470 0.362340 -0.453511
O2    O     O_2   0.260731 0.166786 0.548855 -0.478612
O3    O     O_3   0.150300 0.180542 0.655075 -0.603465
O4    O     O_3   0.142240 0.449440 0.433360 -0.497801
O5    O     O_3   0.549340 0.612930 0.525560 -0.487760
O6    O     O_2   0.396530 0.270940 0.479440 -0.465644
O7    O     O_3   0.580347 0.258533 0.379924 -0.655600
O8    O     O_2   0.439684 0.457271 0.710630 -0.496453
O9    O     O_3   0.490747 0.277447 0.705596 -0.596709
O10   O     O_2   0.060712 0.640742 0.849801 -0.594619
O11   O     O_2   0.915830 0.337293 0.859767 -0.618598
O12   O     O_3   0.622587 0.739823 0.614151 -0.638116
O13   O     O_2   0.135425 0.356597 0.149542 -0.596418
O14   O     O_2   0.284564 0.659455 0.140125 -0.614456
O15   O     O_3   0.645560 0.619080 0.391970 -0.492820
O16   O     O_2   0.778630 0.551646 0.291357 -0.496855
O17   O     O_3   0.067390 0.300070 0.357785 -0.626230
O18   O     O_3   0.681228 0.722266 0.290370 -0.601179
O19   O     O_2   0.793170 0.729090 0.520590 -0.470071
O20   O     O_3   0.052800 0.667320 0.419180 -0.495353
O21   O     O_2   0.926557 0.832145 0.449045 -0.492524
O22   O     O_3   0.044580 0.814557 0.342477 -0.607982
O23   O     O_2   0.287790 0.551560 0.637690 -0.461586
O24   O     O_3   0.047460 0.550640 0.566640 -0.498933
O25   O     O_3   0.544140 0.380990 0.608030 -0.475382
O26   O     O_3   0.120858 0.700217 0.641159 -0.624332
O27   O     O_3   0.640350 0.387150 0.474440 -0.469652
O28   O     O_3   0.136890 0.332750 0.580830 -0.491345
P1    P     P_3+3 0.074990 0.420800 0.372080 0.993229
P2    P     P_3+3 0.618830 0.715330 0.538180 0.972765
P3    P     P_3+3 0.070507 0.786910 0.414969 0.937157
P4    P     P_3+3 0.114710 0.579280 0.627920 0.990500
P5    P     P_3+3 0.116585 0.210879 0.583607 0.942661
P6    P     P_3+3 0.637604 0.612334 0.315438 0.942979
P7    P     P_3+3 0.577705 0.272884 0.456408 0.936566
P8    P     P_3+3 0.561022 0.385598 0.683924 0.944967

loop_
_geom_bond_atom_site_label_1
_geom_bond_atom_site_label_2
_ccdc_geom_bond_type
C42   C47   A    
C19   C24   D    
C53   H53   S    
C40   H34   S    
Ba2   O25   S    
C1    H9    S    
C40   H23   S    
O5    P2    S    
C27   P1    S    
C5    C6    A    
C52   H6    S    
C43   C44   A    
C54   H20   S    
C28   H51   S    
C33   C35   A    
C22   C24   S    
C23   O7    S    
C36   C37   A    
C50   H56   S    
O15   P6    S    
C8    H35   S    
C13   C14   A    
C44   H46   S    
Ba2   P4    S    
Ba1   Ba2   S    
C49   O17   S    
C7    C11   A    
C16   H48   S    
C5    O11   D    
O9    P8    S    
C51   H2    S    
C27   C57   A    
C6    C7    A    
C21   C31   D    
C12   H8    S    
C55   H24   S    
Ba1   P2    S    
C51   O12   S    
C18   O14   D    
C1    H16   S    
Ba1   O20   S    
C50   H58   S    
C23   H11   S    
O24   P4    S    
C17   N2    Am   
C14   H30   S    
C19   C20   S    
Ba2   O24   S    
C5    N1    Am   
Ba1   O27   S    
C32   C39   A    
C55   O9    S    
C56   H27   S    
O22   P3    S    
C20   P8    S    
C50   H57   S    
O19   P2    D    
C4    C16   S    
C44   C46   A    
C49   H55   S    
C28   H50   S    
C49   C50   S    
C32   H47   S    
C54   H22   S    
C32   C42   A    
C8    C9    A    
C22   H36   S    
O8    P8    D    
C37   C38   A    
C14   C15   A    
C45   O3    S    
C53   H54   S    
Ba2   O28   S    
Ba2   O4    S    
C4    H28   S    
Ba1   O1    S    
O3    P5    S    
O23   P4    D    
C41   C42   A    
Ba1   O4    S    
C35   C36   A    
Ba1   O24   S    
C51   H3    S    
C29   C30   A    
O27   P7    S    
C12   O18   S    
C21   C22   D    
C10   C18   A    
C55   H25   S    
O18   P6    S    
C25   H33   S    
O17   P1    S    
O4    P1    S    
C4    O22   S    
C41   C43   A    
O26   P4    S    
C1    C12   S    
C34   H15   S    
O7    P7    S    
C46   C47   A    
O1    P1    D    
C6    C13   A    
C1    H4    S    
C46   P5    S    
C26   P6    S    
Ba2   O23   S    
O12   P2    S    
C23   H10   S    
C45   H18   S    
C30   N2    S    
C2    C8    A    
Ba1   O15   S    
C56   H26   S    
O21   P3    D    
O6    P7    D    
C28   O26   S    
C26   C57   A    
C17   O13   D    
C20   C31   S    
C21   P4    S    
C38   C39   A    
C16   H17   S    
C53   H52   S    
C25   C30   A    
C24   N1    S    
C2    C3    A    
C56   H29   S    
C47   H44   S    
C9    C10   A    
C41   C48   A    
C51   C52   S    
C52   H7    S    
C19   H37   S    
Ba2   O5    S    
Ba2   O27   S    
C12   H1    S    
O20   P3    S    
C48   C53   S    
C54   H21   S    
O2    P5    D    
C11   C15   A    
C3    N1    Am   
C31   H41   S    
C4    H40   S    
O25   P8    S    
O28   P5    S    
C49   H45   S    
Ba1   O5    S    
C37   H43   S    
C27   C29   A    
C13   H31   S    
C35   H42   S    
C55   C56   S    
C52   H5    S    
C38   C48   A    
C3    O10   D    
C40   H12   S    
C15   C17   A    
C29   H38   S    
C33   C39   A    
C16   H49   S    
C34   H14   S    
Ba1   O19   S    
C23   C34   S    
Ba2   O6    S    
C9    H32   S    
C10   C11   A    
C25   C26   A    
C57   H39   S    
C28   C40   S    
Ba1   P1    S    
C43   P7    S    
C33   P2    S    
C45   H19   S    
C2    C7    A    
C36   P3    S    
C18   N2    Am   
O16   P6    D    
C34   H13   S    
C45   C54   S    
