data_mof_unit_21720.cif
_audit_creation_date              2012-12-10T19:25:47-0500
_audit_creation_method            fapswitch 2.2
_symmetry_space_group_name_H-M    P1
_symmetry_Int_Tables_number       1
_space_group_crystal_system       triclinic
_cell_length_a                    9.763518
_cell_length_b                    10.482679
_cell_length_c                    16.659926
_cell_angle_alpha                 90.093606
_cell_angle_beta                  85.104588
_cell_angle_gamma                 90.966462
_cell_volume                      1698.64547125

loop_
_atom_site_label
_atom_site_type_symbol
_atom_type_description
_atom_site_fract_x
_atom_site_fract_y
_atom_site_fract_z
_atom_type_partial_charge
C1    C     C_R   0.501085 0.742510 0.499817 0.863001
C2    C     C_R   0.498899 0.257515 0.500301 0.857614
C3    C     C_3   0.438829 0.956297 0.436001 -0.177722
C4    C     C_3   0.561132 0.043848 0.564295 -0.178497
C5    C     C_3   0.567685 0.044198 0.431928 -0.188492
C6    C     C_3   0.432279 0.955919 0.568363 -0.190451
C7    C     C_3   0.497250 0.122412 0.500460 0.036955
C8    C     C_3   0.502715 0.877683 0.499819 0.033641
C9    C     C_3   0.368295 0.037218 0.504568 -0.133260
C10   C     C_3   0.631674 0.962908 0.495726 -0.135109
C11   C     C_3   0.951806 0.607786 0.522279 0.695648
C12   C     C_3   0.048199 0.392207 0.477724 0.693319
C13   C     C_3   0.057850 0.586204 0.450942 -0.261672
C14   C     C_3   0.942151 0.413782 0.549060 -0.261915
C15   C     C_3   0.038735 0.523469 0.571779 -0.255752
C16   C     C_3   0.961274 0.476517 0.428225 -0.255317
C17   C     C_R   0.480740 0.492011 0.652982 0.875275
C18   C     C_R   0.519276 0.497423 0.346614 0.877289
C19   C     C_R   0.468741 0.446013 0.735699 -0.094381
C20   C     C_R   0.531623 0.475500 0.260023 -0.102570
C21   C     C_R   0.578430 0.379000 0.763385 -0.209230
C22   C     C_R   0.414853 0.480445 0.217149 -0.199319
C23   C     C_R   0.566390 0.325868 0.839554 -0.253367
C24   C     C_R   0.422169 0.442547 0.137327 -0.230821
C25   C     C_R   0.445589 0.341507 0.890053 0.081646
C26   C     C_R   0.546590 0.399035 0.099105 0.080691
C27   C     C_R   0.330095 0.397409 0.860192 0.567764
C28   C     C_R   0.666526 0.401422 0.140170 0.558147
C29   C     C_R   0.343585 0.452274 0.783260 -0.300384
C30   C     C_R   0.657247 0.436424 0.221430 -0.306208
C31   C     C_2   0.447705 0.321806 0.976832 -0.201633
C32   C     C_2   0.555914 0.366253 0.013498 -0.177732
H1    H     H_    0.673887 0.367117 0.726146 0.164489
H2    H     H_    0.317105 0.511399 0.245638 0.169365
H3    H     H_    0.076392 0.544330 0.631520 0.145222
H4    H     H_    0.923702 0.455585 0.368485 0.142997
H5    H     H_    0.747182 0.428713 0.254794 0.164266
H6    H     H_    0.257372 0.501360 0.761383 0.160642
H7    H     H_    0.650367 0.394680 0.978397 0.179693
H8    H     H_    0.352507 0.294898 0.011613 0.185644
H9    H     H_    0.330550 0.449667 0.105452 0.170418
H10   H     H_    0.654033 0.277874 0.860550 0.159994
H11   H     H_    0.622496 0.085176 0.376489 0.139259
H12   H     H_    0.377424 0.915032 0.623809 0.133589
H13   H     H_    0.389349 0.915807 0.383818 0.134773
H14   H     H_    0.610506 0.084493 0.616482 0.133857
H15   H     H_    0.260894 0.071100 0.508675 0.175794
H16   H     H_    0.739084 0.929058 0.491614 0.176574
H17   H     H_    0.111762 0.658074 0.410205 0.141987
H18   H     H_    0.888238 0.341902 0.589798 0.136318
N1    N     N_3   0.136700 0.499970 0.500060 -0.112923
N2    N     N_3   0.863300 0.500030 0.499940 -0.112432
O1    O     O_R   0.383390 0.686040 0.500000 -0.634185
O2    O     O_R   0.616610 0.313960 0.500000 -0.637765
O3    O     O_R   0.616650 0.686050 0.499970 -0.566170
O4    O     O_R   0.383350 0.313950 0.500030 -0.568385
O5    O     O_R   0.369590 0.500020 0.615820 -0.625512
O6    O     O_R   0.630410 0.499980 0.384180 -0.625901
O7    O     O_R   0.602840 0.500020 0.615790 -0.601894
O8    O     O_R   0.397160 0.499980 0.384210 -0.602955
Zn1   Zn    Zn3+2 0.344250 0.499990 0.500020 0.974721
Zn2   Zn    Zn3+2 0.655750 0.500010 0.499980 0.974243
O9    O     O_3   0.890463 0.723459 0.547830 -0.591006
C33   C     C_3   0.993734 0.816543 0.557197 -0.389575
H19   H     H_    0.048516 0.842572 0.498094 0.161372
H20   H     H_    0.067965 0.784923 0.599908 0.172851
H21   H     H_    0.944483 0.904058 0.582581 0.188468
O10   O     O_3   0.109548 0.276509 0.452236 -0.591903
C34   C     C_3   0.006228 0.183775 0.442137 -0.383746
H22   H     H_    0.933269 0.215608 0.398736 0.174932
H23   H     H_    0.949989 0.158030 0.500880 0.158977
H24   H     H_    0.055633 0.096037 0.417212 0.190083
O11   O     O_3   0.210296 0.412069 0.909774 -0.628750
C35   C     C_3   0.106939 0.332435 0.881371 -0.363658
H25   H     H_    0.139153 0.230984 0.878096 0.165740
H26   H     H_    0.077373 0.364853 0.821807 0.165575
H27   H     H_    0.013839 0.337167 0.924205 0.207977
O12   O     O_3   0.788850 0.357319 0.102705 -0.621160
C36   C     C_3   0.886081 0.458666 0.095109 -0.345755
H28   H     H_    0.917596 0.489892 0.154705 0.163247
H29   H     H_    0.846700 0.540778 0.062068 0.163761
H30   H     H_    0.979851 0.424754 0.059828 0.219687

loop_
_geom_bond_atom_site_label_1
_geom_bond_atom_site_label_2
_ccdc_geom_bond_type
O6    Zn2   S    
C25   C31   S    
C27   C29   A    
C1    C8    S    
O11   C35   S    
C2    C7    S    
N1    Zn1   S    
C6    C9    S    
C4    H14   S    
C26   C32   S    
C12   O10   S    
C23   H10   S    
C35   H26   S    
C19   C21   A    
C24   C26   A    
C11   O9    S    
C21   H1    S    
O3    Zn2   S    
C31   H8    S    
C32   H7    S    
C34   H23   S    
C1    O1    A    
C11   N2    S    
C13   N1    S    
O1    Zn1   S    
C18   O6    A    
C14   N2    S    
C12   C16   S    
O10   C34   S    
C35   H27   S    
C29   H6    S    
C15   N1    S    
C28   O12   S    
C5    H11   S    
C6    H12   S    
C24   H9    S    
C11   C15   S    
C4    C7    S    
C15   H3    S    
C22   H2    S    
C35   H25   S    
C33   H21   S    
C4    C6    S    
C3    C8    S    
C2    O2    A    
C36   H29   S    
O12   C36   S    
C6    C8    S    
O2    Zn2   S    
C3    H13   S    
O9    C33   S    
C30   H5    S    
O8    Zn1   S    
C33   H20   S    
C34   H24   S    
C3    C9    S    
C31   C32   D    
C17   O7    A    
C13   H17   S    
C18   O8    A    
C12   C14   S    
C9    H15   S    
C21   C23   A    
C10   H16   S    
C22   C24   A    
C4    C10   S    
C19   C29   A    
C12   N1    S    
C5    C7    S    
C7    C9    S    
O7    Zn2   S    
O4    Zn1   S    
C16   N2    S    
C20   C22   A    
C3    C5    S    
C36   H30   S    
O5    Zn1   S    
C25   C27   A    
C26   C28   A    
C33   H19   S    
C28   C30   A    
C1    O3    A    
C5    C10   S    
N2    Zn2   S    
C20   C30   A    
C11   C13   S    
C14   H18   S    
C17   C19   S    
C18   C20   S    
C23   C25   A    
C34   H22   S    
C36   H28   S    
C8    C10   S    
C13   C16   S    
C14   C15   S    
C2    O4    A    
C27   O11   S    
C16   H4    S    
C17   O5    A    
