data_mof_unit_10327.cif
_audit_creation_date              2013-03-05T15:40:10-0500
_audit_creation_method            fapswitch 2.2
_symmetry_space_group_name_H-M    P1
_symmetry_Int_Tables_number       1
_space_group_crystal_system       triclinic
_cell_length_a                    10.810954
_cell_length_b                    10.875557
_cell_length_c                    15.53644
_cell_angle_alpha                 96.863474
_cell_angle_beta                  74.401317
_cell_angle_gamma                 98.824239
_cell_volume                      1732.70788191

loop_
_atom_site_label
_atom_site_type_symbol
_atom_site_description
_atom_site_fract_x
_atom_site_fract_y
_atom_site_fract_z
_atom_type_partial_charge
Zn1   Zn    Zn3+2 0.580150 0.419820 0.574680 0.952613
Zn2   Zn    Zn3+2 0.401380 0.373730 0.437510 0.952159
Zn3   Zn    Zn3+2 0.631680 0.593260 0.413140 0.968431
Zn4   Zn    Zn3+2 0.386790 0.613180 0.574670 0.964517
O1    O     O_3   0.500000 0.500000 0.500000 -0.484478
O2    O     O_R   0.212140 0.566330 0.564260 -0.625408
O3    O     O_R   0.764730 0.456770 0.540270 -0.635090
O4    O     O_R   0.412790 0.208310 0.468260 -0.653647
O5    O     O_R   0.610350 0.768590 0.427210 -0.637609
O6    O     O_R   0.463530 0.379110 0.309170 -0.643517
O7    O     O_R   0.388210 0.611730 0.699360 -0.649781
O8    O     O_R   0.624720 0.532760 0.292120 -0.632611
O9    O     O_R   0.523540 0.476390 0.699360 -0.652084
O10   O     O_R   0.537910 0.240570 0.564270 -0.630003
O11   O     O_R   0.438950 0.782540 0.540270 -0.630329
O12   O     O_R   0.222350 0.398740 0.468260 -0.645738
O13   O     O_R   0.800790 0.578160 0.427210 -0.648479
C1    C     C_R   0.158109 0.479251 0.519817 0.868588
C2    C     C_R   0.842500 0.521158 0.479512 0.881745
C3    C     C_R   0.466404 0.168146 0.520431 0.826535
C4    C     C_R   0.531424 0.834180 0.481984 0.830008
C5    C     C_R   0.556428 0.444508 0.258699 0.789180
C6    C     C_R   0.448820 0.556960 0.741647 0.792363
C7    C     C_R   0.730226 0.380057 0.019911 -0.185106
H1    H     H_    0.753628 0.338927 0.145550 0.130911
H2    H     H_    0.818523 0.342454 0.983804 0.159123
C8    C     C_R   0.581469 0.425624 0.162071 0.011489
C9    C     C_R   0.306885 0.620517 0.888322 -0.356349
C10   C     C_R   0.265082 0.618959 0.981797 0.535409
C11   C     C_R   0.339686 0.569698 0.026496 -0.247442
C12   C     C_R   0.461858 0.531347 0.981349 0.002630
C13   C     C_R   0.506632 0.541083 0.887536 0.063590
C14   C     C_R   0.539585 0.481159 0.026223 0.094695
C15   C     C_R   0.657795 0.436441 0.976036 0.110718
C16   C     C_R   0.702902 0.452284 0.883800 -0.046558
C17   C     C_R   0.631783 0.511778 0.842793 -0.229432
C18   C     C_R   0.504366 0.475250 0.119957 -0.248242
C19   C     C_R   0.693003 0.376339 0.112360 -0.201558
C20   C     C_R   0.424088 0.577841 0.840363 -0.113113
H3    H     H_    0.421923 0.515037 0.163201 0.120771
H4    H     H_    0.244184 0.647840 0.852210 0.157707
H5    H     H_    0.297439 0.561902 0.097024 0.155448
H6    H     H_    0.677481 0.534857 0.774875 0.180212
C21   C     C_2   0.980739 0.527287 0.469864 -0.368926
H7    H     H_    0.048955 0.575879 0.415801 0.143015
C22   C     C_2   0.022066 0.472785 0.527594 -0.292934
H8    H     H_    0.955639 0.425687 0.582904 0.181700
C23   C     C_2   0.550117 0.969898 0.482924 -0.231944
C24   C     C_2   0.449246 0.034894 0.522385 -0.187719
C25   C     C_R   0.683745 0.033547 0.447951 0.154570
C26   C     C_R   0.781541 0.023058 0.489715 -0.117986
C27   C     C_R   0.905356 0.087973 0.460348 -0.148030
C28   C     C_R   0.932625 0.162986 0.388851 -0.087450
C29   C     C_R   0.836422 0.172513 0.346120 -0.157839
C30   C     C_R   0.712502 0.107754 0.375224 -0.138734
H9    H     H_    0.761205 0.966561 0.545975 0.100416
H10   H     H_    0.979962 0.080883 0.493389 0.141728
H11   H     H_    0.028273 0.213742 0.366592 0.148219
H12   H     H_    0.857689 0.230529 0.290681 0.124311
H13   H     H_    0.638683 0.116346 0.341780 0.123095
C31   C     C_R   0.311297 0.977567 0.547326 0.171170
C32   C     C_R   0.234748 0.999896 0.634922 -0.158407
C33   C     C_R   0.103633 0.951588 0.657641 -0.149980
C34   C     C_R   0.047760 0.881908 0.592935 -0.114453
C35   C     C_R   0.122755 0.860938 0.505281 -0.139358
C36   C     C_R   0.253929 0.908814 0.482290 -0.095183
H14   H     H_    0.276646 0.054804 0.685413 0.116359
H15   H     H_    0.045138 0.968891 0.725280 0.132508
H16   H     H_    0.946128 0.845120 0.610475 0.117486
H17   H     H_    0.078908 0.808708 0.454915 0.130510
H18   H     H_    0.310583 0.893381 0.413835 0.104868
C37   C     C_R   0.821649 0.403584 0.826691 0.100197
C38   C     C_R   0.810644 0.298450 0.765884 -0.124888
C39   C     C_R   0.921555 0.250133 0.712534 -0.167909
C40   C     C_R   0.044079 0.307318 0.718727 -0.139721
C41   C     C_R   0.055786 0.412871 0.778268 -0.115205
C42   C     C_R   0.945055 0.461193 0.832210 -0.165987
H19   H     H_    0.716156 0.253434 0.760426 0.143875
H20   H     H_    0.912532 0.168690 0.666176 0.137979
H21   H     H_    0.129933 0.270222 0.677107 0.122817
H22   H     H_    0.150790 0.456802 0.782599 0.139688
H23   H     H_    0.955214 0.542678 0.878384 0.140482
O14   O     O_3   0.144249 0.649089 0.031166 -0.613439
C43   C     C_3   0.115584 0.759864 0.005685 0.080352
H24   H     H_    0.078660 0.739442 0.944607 0.137051
H25   H     H_    0.201594 0.832825 0.993603 0.138691
C44   C     C_3   0.009540 0.811871 0.080650 -0.788633
H26   H     H_    0.043037 0.834350 0.143000 0.256388
H27   H     H_    0.984949 0.898317 0.061204 0.200331
H28   H     H_    0.921375 0.742200 0.093574 0.264648

loop_
_geom_bond_atom_site_label_1
_geom_bond_atom_site_label_2
_geom_bond_distance
_ccdc_geom_bond_type
C44   H26   1.110941 S    
C38   C39   1.398429 A    
C16   C17   1.389345 A    
C43   C44   1.521227 S    
C28   C29   1.397858 A    
C21   H7    1.087212 S    
C32   C33   1.398792 A    
C32   H14   1.083173 S    
Zn1   O1    1.967670 S    
C13   C17   1.410300 A    
C9    C10   1.401480 A    
C7    H2    1.081707 S    
C10   O14   1.390888 S    
C18   H3    1.076942 S    
C11   C12   1.418206 A    
C15   C16   1.406578 A    
C8    C19   1.391489 A    
C35   H17   1.081806 S    
O8    C5    1.267103 A    
C9    H4    1.081082 S    
O9    C6    1.283014 A    
C26   H9    1.083264 S    
C13   C20   1.422846 A    
Zn3   O8    1.933655 S    
C29   C30   1.398614 A    
C31   C36   1.406730 A    
C36   H18   1.083044 S    
C7    C19   1.387319 A    
C38   H19   1.083311 S    
C12   C14   1.427175 A    
C10   C11   1.393743 A    
Zn2   O12   1.918723 S    
C40   H21   1.082658 S    
C4    C23   1.457594 S    
C23   C25   1.490756 S    
C30   H13   1.083091 S    
C1    C22   1.434356 S    
C21   C22   1.333893 D    
C14   C15   1.428929 A    
C29   H12   1.082470 S    
O2    C1    1.267186 A    
C24   C31   1.491549 S    
C39   C40   1.397182 A    
C26   C27   1.398898 A    
O10   C3    1.284527 A    
C41   C42   1.399934 A    
Zn4   O2    1.923586 S    
C37   C38   1.405178 A    
C9    C20   1.402195 A    
O6    C5    1.272790 A    
C7    C15   1.410013 A    
C40   C41   1.397890 A    
C37   C42   1.404303 A    
Zn3   O5    1.935215 S    
H1    C19   1.083853 S    
C3    C24   1.435445 S    
O14   C43   1.413746 S    
C25   C26   1.405519 A    
O4    C3    1.264405 A    
C34   H16   1.082464 S    
C43   H24   1.111427 S    
Zn4   O7    1.943386 S    
C23   C24   1.355765 D    
C16   C37   1.483085 S    
O3    C2    1.280179 A    
C5    C8    1.447072 S    
C44   H27   1.110676 S    
Zn2   O1    1.937518 S    
Zn1   O9    1.923142 S    
Zn2   O6    1.930291 S    
C2    C21   1.453194 S    
C22   H8    1.084886 S    
Zn1   O3    1.913337 S    
C12   C13   1.418320 A    
Zn2   O4    1.945555 S    
C43   H25   1.115724 S    
Zn4   O1    1.927749 S    
Zn3   O1    1.930654 S    
C41   H22   1.080106 S    
C28   H11   1.082470 S    
C33   H15   1.082368 S    
C25   C30   1.405969 A    
C39   H20   1.082393 S    
C34   C35   1.397371 A    
Zn4   O11   1.936672 S    
O5    C4    1.269738 A    
C42   H23   1.082860 S    
C8    C18   1.389236 A    
C6    C20   1.479912 S    
O7    C6    1.288640 A    
O13   C2    1.284968 A    
Zn3   O13   1.932056 S    
C31   C32   1.404616 A    
C14   C18   1.409453 A    
C27   H10   1.082234 S    
C33   C34   1.397786 A    
O11   C4    1.263858 A    
O12   C1    1.269012 A    
C35   C36   1.398297 A    
C44   H28   1.111207 S    
C11   H5    1.075939 S    
C17   H6    1.079552 S    
Zn1   O10   1.930350 S    
C27   C28   1.397506 A    
