data_mof_unit_55910.cif
_audit_creation_date              2013-03-05T15:49:14-0500
_audit_creation_method            fapswitch 2.2
_symmetry_space_group_name_H-M    P1
_symmetry_Int_Tables_number       1
_space_group_crystal_system       triclinic
_cell_length_a                    18.375488
_cell_length_b                    18.503882
_cell_length_c                    19.087334
_cell_angle_alpha                 109.419775
_cell_angle_beta                  109.626989
_cell_angle_gamma                 107.756009
_cell_volume                      5091.70651331

loop_
_atom_site_label
_atom_site_type_symbol
_atom_site_description
_atom_site_fract_x
_atom_site_fract_y
_atom_site_fract_z
_atom_type_partial_charge
O1    O     O_R   0.592010 0.539900 0.448660 -0.672785
O2    O     O_R   0.591210 0.643320 0.551330 -0.615253
C1    C     C_R   0.620305 0.619539 0.499089 0.781361
O3    O     O_R   0.408080 0.448290 0.356360 -0.634872
O4    O     O_R   0.407280 0.551710 0.459030 -0.584052
C2    C     C_R   0.378771 0.500577 0.380576 0.875158
Zn1   Zn    Zn3+2 0.500540 0.430950 0.431450 1.064359
Zn2   Zn    Zn3+2 0.499460 0.569050 0.568550 1.127305
O5    O     O_R   0.408790 0.356680 0.448670 -0.571902
O6    O     O_R   0.407990 0.460100 0.551340 -0.579393
O7    O     O_R   0.592720 0.448290 0.540970 -0.631252
O8    O     O_R   0.591920 0.551710 0.643640 -0.558080
C3    C     C_R   0.382840 0.380505 0.503709 0.927952
C4    C     C_R   0.618772 0.495572 0.619242 0.889663
C5    C     C_3   0.326190 0.572265 0.288846 -0.028669
C6    C     C_3   0.240135 0.571323 0.284385 -0.210603
H1    H     H_    0.230272 0.628992 0.308842 0.162727
C7    C     C_3   0.191022 0.499242 0.190744 -0.056962
C8    C     C_3   0.276616 0.501190 0.195406 -0.055634
C9    C     C_3   0.262186 0.430071 0.221892 -0.211749
C10   C     C_3   0.176345 0.428791 0.217515 -0.052619
C11   C     C_3   0.225816 0.499784 0.310928 -0.077252
C12   C     C_3   0.311389 0.501969 0.315510 -0.088372
H2    H     H_    0.272112 0.372740 0.196379 0.225992
C13   C     C_R   0.614945 0.778751 0.516587 -0.103674
C14   C     C_R   0.619956 0.860737 0.541513 -0.162265
C15   C     C_R   0.694138 0.930619 0.560912 0.058545
C16   C     C_R   0.760664 0.915895 0.549794 -0.134678
C17   C     C_R   0.754812 0.831962 0.521698 0.036355
C18   C     C_R   0.685516 0.764265 0.512453 0.087817
C19   C     C_R   0.815242 0.814125 0.499773 -0.146053
C20   C     C_R   0.811123 0.731584 0.472296 0.076583
C21   C     C_R   0.751455 0.666289 0.476662 0.022400
C22   C     C_R   0.687597 0.684056 0.497267 -0.153917
C23   C     C_R   0.866407 0.713803 0.440249 -0.144815
C24   C     C_R   0.858345 0.631581 0.405849 -0.245574
C25   C     C_R   0.803608 0.566675 0.412374 -0.011730
C26   C     C_R   0.758102 0.586474 0.456859 0.009756
H3    H     H_    0.553551 0.727245 0.498268 0.167526
H4    H     H_    0.565484 0.869404 0.545491 0.172214
H5    H     H_    0.816347 0.970392 0.562206 0.162289
H6    H     H_    0.914523 0.762352 0.437759 0.148562
H7    H     H_    0.897678 0.619525 0.376412 0.143054
C27   C     C_R   0.774056 0.659394 0.760957 -0.174824
C28   C     C_R   0.814550 0.733236 0.841213 0.225731
C29   C     C_R   0.843913 0.725578 0.914641 0.179833
C30   C     C_R   0.838383 0.645775 0.908508 0.189616
C31   C     C_R   0.803655 0.573608 0.827580 -0.041926
C32   C     C_R   0.755767 0.575737 0.754911 -0.055887
C33   C     C_R   0.814202 0.498893 0.816643 -0.079742
C34   C     C_R   0.761564 0.420754 0.738350 0.044600
C35   C     C_R   0.690673 0.413773 0.672118 -0.014826
C36   C     C_R   0.689799 0.494324 0.681145 -0.075823
C37   C     C_R   0.777035 0.348498 0.726948 -0.153498
C38   C     C_R   0.721801 0.269188 0.654756 -0.262608
C39   C     C_R   0.644633 0.255746 0.593699 -0.074540
C40   C     C_R   0.626844 0.326865 0.601722 0.342678
H8    H     H_    0.831893 0.351235 0.774160 0.157429
H9    H     H_    0.736908 0.216114 0.649635 0.199876
C41   C     C_R   0.386296 0.394319 0.670043 0.344139
C42   C     C_R   0.373614 0.405911 0.741796 -0.160186
C43   C     C_R   0.295342 0.348993 0.731363 -0.125449
C44   C     C_R   0.234758 0.277626 0.651633 -0.044251
C45   C     C_R   0.246634 0.262958 0.579491 0.041800
C46   C     C_R   0.318354 0.325694 0.585348 -0.051480
C47   C     C_R   0.186458 0.186014 0.501234 -0.098938
C48   C     C_R   0.187389 0.174914 0.425235 0.071562
C49   C     C_R   0.245937 0.244686 0.426217 0.062317
C50   C     C_R   0.316059 0.316239 0.506083 -0.118162
C51   C     C_R   0.128897 0.096415 0.347451 -0.126946
C52   C     C_R   0.121459 0.091278 0.270857 -0.179850
C53   C     C_R   0.170619 0.164292 0.269473 0.012663
C54   C     C_R   0.231684 0.240905 0.346673 -0.092280
H10   H     H_    0.176310 0.233811 0.646428 0.197081
H11   H     H_    0.087735 0.038307 0.344631 0.146185
H12   H     H_    0.075306 0.030728 0.212322 0.189655
H13   H     H_    0.265802 0.297537 0.343297 0.174460
O9    O     O_R   0.951440 0.539900 0.094740 -0.663215
O10   O     O_R   0.054870 0.643310 0.094700 -0.590857
C55   C     C_R   0.003732 0.619042 0.125108 0.926337
O11   O     O_R   0.044440 0.448270 0.096110 -0.639278
O12   O     O_R   0.147870 0.551680 0.096080 -0.569295
C56   C     C_R   0.124446 0.499175 0.123585 0.895705
Zn3   Zn    Zn3+2 0.934770 0.430930 0.003810 1.007514
Zn4   Zn    Zn3+2 0.072900 0.569020 0.003770 1.084373
O13   O     O_R   0.952810 0.356650 0.912880 -0.630842
O14   O     O_R   0.056240 0.460060 0.912840 -0.588243
O15   O     O_R   0.859800 0.448280 0.911500 -0.588901
O16   O     O_R   0.963240 0.551690 0.911470 -0.633072
C57   C     C_R   0.005389 0.380289 0.885184 0.839721
C58   C     C_R   0.882565 0.502453 0.885505 0.884901
O17   O     O_R   0.052860 0.908430 0.461230 -0.628342
O18   O     O_R   0.948620 0.908400 0.356980 -0.608525
C59   C     C_R   0.003451 0.881620 0.382522 0.810765
O19   O     O_R   0.960510 0.908410 0.552140 -0.612756
O20   O     O_R   0.856270 0.908390 0.447890 -0.621384
C60   C     C_R   0.880500 0.881090 0.500619 0.812026
Zn5   Zn    Zn3+2 0.069600 0.000030 0.569620 1.004799
Zn6   Zn    Zn3+2 0.930400 0.000000 0.430410 1.102550
O21   O     O_R   0.051380 0.091620 0.643040 -0.614579
O22   O     O_R   0.947140 0.091600 0.538800 -0.573078
O23   O     O_R   0.143730 0.091640 0.552130 -0.641918
O24   O     O_R   0.039490 0.091610 0.447890 -0.549608
C61   C     C_R   0.000294 0.123476 0.617319 0.856106
C62   C     C_R   0.119931 0.118166 0.498736 0.845115
H14   H     H_    0.707242 0.519272 0.106586 0.161916
C63   C     C_R   0.166564 0.764650 0.268159 -0.246511
C64   C     C_R   0.243930 0.843155 0.325163 0.357935
C65   C     C_R   0.240142 0.913708 0.377799 -0.177531
C66   C     C_R   0.161307 0.904900 0.375520 -0.215950
C67   C     C_R   0.083188 0.825114 0.319273 0.093797
C68   C     C_R   0.084534 0.756383 0.260716 0.016399
C69   C     C_R   0.004028 0.813070 0.320106 -0.147078
C70   C     C_R   0.925640 0.734439 0.263842 0.065102
C71   C     C_R   0.924689 0.666906 0.201057 0.110668
C72   C     C_R   0.004358 0.680985 0.196870 -0.140892
C73   C     C_R   0.847444 0.722279 0.268765 -0.149360
C74   C     C_R   0.770141 0.645504 0.213229 -0.121343
C75   C     C_R   0.767839 0.579120 0.150688 -0.119533
C76   C     C_R   0.842903 0.589175 0.143922 -0.049024
H15   H     H_    0.171974 0.709740 0.231680 0.175579
H16   H     H_    0.298402 0.975694 0.421508 0.209453
H17   H     H_    0.162605 0.961666 0.418129 0.157896
H18   H     H_    0.844158 0.770926 0.316124 0.157424
H19   H     H_    0.711820 0.637699 0.218775 0.152290
H20   H     H_    0.831218 0.533443 0.091705 0.203884
H21   H     H_    0.029159 0.154539 0.953317 0.203552
C77   C     C_R   0.963459 0.386687 0.730811 -0.233935
C78   C     C_R   0.946246 0.394768 0.658683 -0.235835
C79   C     C_R   0.954622 0.342234 0.594166 0.298551
C80   C     C_R   0.976300 0.276569 0.600343 0.220165
C81   C     C_R   0.984647 0.260353 0.671398 -0.047898
C82   C     C_R   0.983359 0.320871 0.739257 0.067930
C83   C     C_R   0.992066 0.187337 0.678849 -0.099159
C84   C     C_R   0.992171 0.174368 0.748308 0.120912
C85   C     C_R   0.006820 0.242778 0.820267 0.073564
C86   C     C_R   0.001125 0.314805 0.814685 -0.120532
C87   C     C_R   0.977989 0.094168 0.747964 -0.124670
C88   C     C_R   0.990523 0.087116 0.821041 -0.116138
C89   C     C_R   0.016894 0.159124 0.895776 -0.081246
C90   C     C_R   0.024840 0.236382 0.895773 -0.108327
H22   H     H_    0.958379 0.432482 0.778903 0.175336
H23   H     H_    0.929884 0.445347 0.654827 0.214357
H24   H     H_    0.956055 0.035679 0.691277 0.146456
H25   H     H_    0.980848 0.025911 0.819855 0.189423
H26   H     H_    0.044598 0.290488 0.955262 0.186845
C91   C     C_2   0.700085 0.017943 0.589871 0.399518
H27   H     H_    0.646739 0.027528 0.596223 0.068853
O25   O     O_2   0.764565 0.080207 0.607196 -0.606023
C92   C     C_2   0.744207 0.535769 0.500998 0.450911
H28   H     H_    0.684817 0.475424 0.469935 0.149298
O26   O     O_2   0.804757 0.555000 0.567685 -0.571799
C93   C     C_2   0.583727 0.164645 0.524086 0.526208
H29   H     H_    0.608652 0.118272 0.511715 0.068970
O27   O     O_2   0.505503 0.138816 0.482216 -0.460235
C94   C     C_2   0.766354 0.672464 0.686854 0.612001
H30   H     H_    0.726307 0.618725 0.624375 0.016992
O28   O     O_2   0.808849 0.742804 0.694995 -0.528443
N1    N     N_R   0.820704 0.814993 0.848221 0.269943
O29   O     O_R   0.751822 0.818692 0.803922 -0.323546
O30   O     O_R   0.894103 0.886295 0.901133 -0.328628
N2    N     N_R   0.875348 0.798209 0.995000 0.277211
O31   O     O_R   0.959116 0.846350 0.046366 -0.335037
O32   O     O_R   0.821405 0.823727 0.011044 -0.301188
N3    N     N_R   0.848279 0.632407 0.980126 0.199433
O33   O     O_R   0.903362 0.696118 0.056719 -0.372480
O34   O     O_R   0.787793 0.564088 0.969333 -0.381949
C95   C     C_2   0.411672 0.651374 0.329423 0.425151
H31   H     H_    0.467650 0.644539 0.327544 0.014256
O35   O     O_2   0.418867 0.723463 0.364901 -0.501891
N4    N     N_R   0.541850 0.306759 0.542148 0.225507
O36   O     O_R   0.522185 0.280092 0.462729 -0.323279
O37   O     O_R   0.478573 0.284147 0.559432 -0.361979
C96   C     C_2   0.157957 0.158991 0.186881 0.451344
H32   H     H_    0.108172 0.099765 0.128056 0.105991
O38   O     O_2   0.203076 0.220119 0.183307 -0.577469
N5    N     N_R   0.470815 0.449749 0.687170 0.217483
O39   O     O_R   0.530031 0.424163 0.702787 -0.351841
O40   O     O_R   0.496354 0.532813 0.720244 -0.337315
C97   C     C_2   0.442551 0.478236 0.828415 0.504598
H33   H     H_    0.425287 0.518062 0.869192 0.038303
O41   O     O_2   0.518671 0.492557 0.855770 -0.455742
C98   C     C_2   0.277770 0.359371 0.804075 0.445512
H34   H     H_    0.328036 0.407258 0.868883 0.063656
O42   O     O_2   0.206225 0.313912 0.792528 -0.562732
C99   C     C_2   0.308078 0.500090 0.132223 0.437995
H35   H     H_    0.373403 0.507836 0.147935 0.047033
O43   O     O_2   0.260924 0.489663 0.063154 -0.532582
N6    N     N_R   0.325639 0.851286 0.328526 0.229629
O44   O     O_R   0.399054 0.919769 0.388781 -0.351312
O45   O     O_R   0.327064 0.791679 0.269620 -0.337698
N7    N     N_R   0.941738 0.357067 0.522503 0.235462
O46   O     O_R   0.881908 0.379121 0.493710 -0.341226
O47   O     O_R   0.997351 0.361628 0.494184 -0.290454
N8    N     N_R   0.992940 0.231837 0.535682 0.221474
O48   O     O_R   0.928292 0.181985 0.458095 -0.312736
O49   O     O_R   0.071716 0.265720 0.546922 -0.397109
C100  C     C_2   0.093273 0.347158 0.178039 0.488639
H36   H     H_    0.057634 0.339663 0.212507 0.052233
O50   O     O_2   0.064630 0.289447 0.106485 -0.566693
C101  C     C_2   0.194163 0.498313 0.373557 0.406879
H37   H     H_    0.134187 0.502274 0.363947 0.064387
O51   O     O_2   0.234528 0.491949 0.434656 -0.522885
C102  C     C_2   0.800435 0.480328 0.376336 0.477855
H38   H     H_    0.848856 0.473596 0.357926 0.079896
O52   O     O_2   0.742553 0.415487 0.363937 -0.534712

loop_
_geom_bond_atom_site_label_1
_geom_bond_atom_site_label_2
_geom_bond_distance
_ccdc_geom_bond_type
C27   C32   1.435395 A    
C84   C87   1.423627 A    
Zn6   O24   2.026130 S    
N4    O36   1.303005 A    
Zn2   O6    2.029589 S    
C82   C86   1.416339 A    
N3    O33   1.297563 A    
C38   H9    1.082492 S    
H14   C75   1.083136 S    
C7    C10   1.534408 S    
C101  H37   1.084441 S    
C67   C68   1.399926 A    
C28   N1    1.438833 S    
O10   Zn4   2.022206 S    
C10   C100  1.497887 S    
C38   C39   1.383025 A    
C77   C78   1.375120 A    
C57   C86   1.439480 S    
C70   C71   1.405283 A    
O19   Zn5   2.026219 S    
O17   Zn5   2.042153 S    
C84   C85   1.396058 A    
C28   C29   1.395072 A    
C39   C40   1.422709 A    
C5    C8    1.535743 S    
N4    O37   1.299471 A    
C14   C15   1.390956 A    
C25   C26   1.418242 A    
C61   C83   1.450500 S    
C16   C17   1.420141 A    
C91   O25   1.221253 D    
C73   H18   1.076948 S    
Zn3   O13   2.022248 S    
C69   C70   1.410165 A    
C98   O42   1.221498 D    
C8    C99   1.499434 S    
C46   C50   1.448471 A    
C52   H12   1.083671 S    
C96   H32   1.085749 S    
O7    C4    1.273397 A    
C76   H20   1.068009 S    
C65   H16   1.082780 S    
C71   C72   1.441262 A    
O20   Zn6   2.028148 S    
C16   H5    1.081158 S    
O21   C61   1.300013 A    
C64   C65   1.395979 A    
O23   C62   1.278663 A    
C7    C8    1.533725 S    
C63   C68   1.420121 A    
N6    O45   1.301586 A    
C23   H6    1.078517 S    
O5    C3    1.296980 A    
C74   C75   1.376583 A    
C43   C98   1.492985 S    
C66   C67   1.418072 A    
C25   C102  1.488223 S    
C88   H25   1.082689 S    
C93   H29   1.086038 S    
C91   H27   1.085647 S    
C97   O41   1.220906 D    
C49   C50   1.426503 A    
N5    O40   1.302674 A    
C24   C25   1.384365 A    
C63   C64   1.401908 A    
N1    O30   1.301281 A    
C100  H36   1.084286 S    
C74   H19   1.082832 S    
C53   C96   1.478443 S    
C93   O27   1.220044 D    
C81   C82   1.415792 A    
O18   Zn6   2.007743 S    
C65   C66   1.391380 A    
O10   C55   1.305333 A    
C49   C54   1.424671 A    
C5    C12   1.530475 S    
C47   C48   1.402662 A    
N3    O34   1.300741 A    
C10   C11   1.535057 S    
C101  O51   1.219654 D    
N1    O29   1.301559 A    
C35   C40   1.456431 A    
C42   C43   1.400633 A    
O3    Zn1   2.011518 S    
C11   C12   1.532448 S    
O11   C56   1.277726 A    
C59   C69   1.428359 S    
C79   N7    1.440172 S    
C33   C34   1.413687 A    
N2    O32   1.300967 A    
Zn4   O14   2.027488 S    
C88   C89   1.386716 A    
O2    Zn2   2.024493 S    
C18   C22   1.429772 A    
C34   C35   1.412175 A    
C27   C94   1.480877 S    
C20   C23   1.414875 A    
C9    H2    1.109044 S    
C89   C90   1.392032 A    
O24   C62   1.282348 A    
O13   C57   1.281956 A    
Zn4   O16   2.027904 S    
C6    H1    1.110409 S    
N8    O48   1.302550 A    
C1    C22   1.453116 S    
C13   C14   1.393467 A    
Zn5   O23   2.028276 S    
C48   C49   1.395643 A    
C41   C42   1.423245 A    
O1    C1    1.273441 A    
C23   C24   1.378659 A    
C45   C47   1.413150 A    
Zn1   O7    2.045921 S    
C98   H34   1.082986 S    
C17   C18   1.396757 A    
C66   H17   1.081184 S    
C30   C31   1.422282 A    
C9    C12   1.542920 S    
Zn2   O8    2.011519 S    
O20   C60   1.280862 A    
C43   C44   1.388532 A    
O17   C59   1.280923 A    
C7    C56   1.443725 S    
C67   C69   1.409238 A    
O18   C59   1.278113 A    
C29   C30   1.410723 A    
C35   C36   1.448186 A    
C102  H38   1.085914 S    
C51   C52   1.389435 A    
C90   H26   1.081152 S    
N5    O39   1.298894 A    
C39   C93   1.490156 S    
C81   C83   1.446136 A    
C95   H31   1.084649 S    
Zn6   O22   2.042150 S    
O8    C4    1.297951 A    
C41   C46   1.447985 A    
C71   C76   1.433246 A    
O22   C61   1.274934 A    
Zn5   O21   2.007530 S    
C92   O26   1.220943 D    
C5    C95   1.495450 S    
O3    C2    1.275713 A    
O16   C58   1.286742 A    
H21   C89   1.082406 S    
C63   H15   1.079224 S    
C47   C62   1.434498 S    
C99   O43   1.219642 D    
C80   C81   1.453250 A    
C68   C72   1.418345 A    
O11   Zn3   2.027947 S    
C97   H33   1.084688 S    
C78   C79   1.381198 A    
C37   H8    1.076582 S    
C13   C18   1.423493 A    
Zn1   O5    2.024492 S    
C37   C38   1.374707 A    
C31   C32   1.391886 A    
C6    C11   1.549625 S    
C11   C101  1.499047 S    
O1    Zn1   2.029590 S    
C19   C20   1.408431 A    
C80   N8    1.424940 S    
C27   C28   1.410508 A    
Zn3   O15   2.029933 S    
C102  O52   1.220881 D    
C53   C54   1.403581 A    
O6    C3    1.273379 A    
O4    Zn2   2.045919 S    
C75   C76   1.390310 A    
O19   C60   1.276318 A    
C83   C84   1.423182 A    
C78   H23   1.083647 S    
C44   H10   1.079037 S    
N2    O31   1.301238 A    
O12   Zn4   2.029811 S    
C21   C26   1.452174 A    
C30   N3    1.431152 S    
C48   C51   1.418132 A    
N7    O46   1.301599 A    
C34   C37   1.412701 A    
C8    C9    1.541850 S    
C94   O28   1.221494 D    
C79   C80   1.416999 A    
C41   N5    1.426636 S    
C52   C53   1.391906 A    
C17   C19   1.400349 A    
C15   C91   1.478578 S    
C87   H24   1.080170 S    
C77   C82   1.416139 A    
C20   C21   1.410401 A    
C14   H4    1.083629 S    
O4    C2    1.280866 A    
O15   C58   1.280798 A    
C3    C50   1.450918 S    
C32   C36   1.431919 A    
C2    C12   1.443551 S    
C45   C46   1.406608 A    
C31   C33   1.411086 A    
C85   C90   1.420364 A    
C21   C22   1.448807 A    
O2    C1    1.297542 A    
O9    C55   1.267657 A    
C19   C60   1.428648 S    
N6    O44   1.301656 A    
C64   N6    1.439500 S    
C96   O38   1.220150 D    
C70   C73   1.425360 A    
C87   C88   1.392560 A    
C44   C45   1.416646 A    
O9    Zn3   2.027531 S    
C33   C58   1.446635 S    
C4    C36   1.449355 S    
C94   H30   1.062111 S    
C9    C10   1.543702 S    
C51   H11   1.081319 S    
C42   C97   1.488904 S    
C6    C7    1.544355 S    
O12   C56   1.280896 A    
C29   N2    1.432844 S    
O14   C57   1.280553 A    
C95   O35   1.219439 D    
C15   C16   1.397348 A    
C54   H13   1.080121 S    
C92   H28   1.082198 S    
C85   C86   1.403796 A    
C24   H7    1.084279 S    
C100  O50   1.219482 D    
C55   C72   1.458571 S    
C40   N4    1.428951 S    
C99   H35   1.084459 S    
C73   C74   1.384148 A    
C77   H22   1.076091 S    
C26   C92   1.476242 S    
C13   H3    1.077445 S    
C5    C6    1.549122 S    
N7    O47   1.300942 A    
N8    O49   1.297251 A    
