data_mof_unit_45002.cif
_audit_creation_date              2013-03-05T16:42:23-0500
_audit_creation_method            fapswitch 2.2
_symmetry_space_group_name_H-M    P1
_symmetry_Int_Tables_number       1
_space_group_crystal_system       triclinic
_cell_length_a                    9.904925
_cell_length_b                    10.685627
_cell_length_c                    15.436407
_cell_angle_alpha                 90.774757
_cell_angle_beta                  68.508817
_cell_angle_gamma                 90.051378
_cell_volume                      1520.04977542

loop_
_atom_site_label
_atom_site_type_symbol
_atom_site_description
_atom_site_fract_x
_atom_site_fract_y
_atom_site_fract_z
_atom_type_partial_charge
O1    O     O_R   0.385310 0.683210 0.499990 -0.613044
O2    O     O_R   0.614650 0.683240 0.500000 -0.622566
C1    C     C_R   0.500945 0.739780 0.498154 0.871796
O3    O     O_R   0.319830 0.499970 0.632240 -0.626753
O4    O     O_R   0.549170 0.500000 0.632250 -0.609819
C2    C     C_R   0.409197 0.501859 0.675742 0.886235
Zn1   Zn    Zn3+2 0.346870 0.499980 0.499990 0.992510
Zn2   Zn    Zn3+2 0.653130 0.500020 0.500010 0.952112
O5    O     O_R   0.385350 0.316760 0.500000 -0.573418
O6    O     O_R   0.614690 0.316790 0.500010 -0.623029
O7    O     O_R   0.450830 0.500000 0.367750 -0.576918
O8    O     O_R   0.680170 0.500030 0.367760 -0.619657
C3    C     C_R   0.500871 0.260209 0.498529 0.901910
C4    C     C_R   0.590370 0.503171 0.324100 0.893121
C5    C     C_R   0.350706 0.510459 0.776973 -0.116699
C6    C     C_R   0.641970 0.529637 0.224620 -0.055812
C7    C     C_R   0.163244 0.463882 0.925855 0.301492
C8    C     C_R   0.212301 0.466249 0.828664 -0.269320
C9    C     C_R   0.437839 0.560123 0.821451 -0.253388
C10   C     C_R   0.394362 0.559512 0.918207 0.068381
C11   C     C_R   0.254593 0.510936 0.971354 0.030214
C12   C     C_R   0.491802 0.595376 0.962528 0.099059
C13   C     C_R   0.454586 0.566665 0.057318 0.071928
C14   C     C_R   0.309483 0.535161 0.110566 -0.214180
C15   C     C_R   0.210545 0.510322 0.068326 -0.166736
C16   C     C_R   0.627150 0.654065 0.915264 -0.215117
C17   C     C_R   0.727957 0.671266 0.957899 -0.173877
C18   C     C_R   0.699291 0.626512 0.047227 0.201418
C19   C     C_R   0.563502 0.570947 0.096145 0.076535
C20   C     C_R   0.804362 0.635145 0.088449 -0.128736
C21   C     C_R   0.774749 0.588630 0.177791 -0.173756
C22   C     C_R   0.542170 0.515571 0.181151 -0.206903
H1    H     H_    0.100875 0.487038 0.112495 0.190909
H2    H     H_    0.446065 0.461664 0.215579 0.202030
H3    H     H_    0.852970 0.601994 0.211014 0.148323
H4    H     H_    0.830487 0.715919 0.919630 0.148619
H5    H     H_    0.145698 0.426594 0.793117 0.188689
H6    H     H_    0.542570 0.593943 0.778306 0.151866
H7    H     H_    0.269309 0.530776 0.185647 0.157662
H8    H     H_    0.657173 0.690290 0.845966 0.145382
H9    H     H_    0.908037 0.679214 0.052222 0.131009
C23   C     C_R   0.375219 0.936487 0.508029 0.155535
C24   C     C_R   0.505012 0.871339 0.487705 -0.122079
C25   C     C_R   0.637925 0.934479 0.454275 -0.210037
H10   H     H_    0.740415 0.884559 0.432336 0.178689
C26   C     C_R   0.637933 0.064048 0.454702 -0.194209
H11   H     H_    0.740468 0.113223 0.432709 0.186669
C27   C     C_R   0.505026 0.128296 0.489002 -0.129089
C28   C     C_R   0.375266 0.064126 0.509705 0.234810
C29   C     C_3   0.241414 0.071518 0.595767 -0.463349
C30   C     C_3   0.239408 0.929923 0.592551 -0.507968
H12   H     H_    0.262737 0.110203 0.656783 0.192519
H13   H     H_    0.148213 0.114868 0.583649 0.251980
H14   H     H_    0.256126 0.885668 0.652689 0.200137
H15   H     H_    0.147453 0.892543 0.575344 0.218392
C31   C     C_R   0.904619 0.594421 0.543249 0.219386
N1    N     N_R   0.856900 0.500860 0.500610 -0.130395
C32   C     C_R   0.952627 0.409639 0.454587 -0.192718
H16   H     H_    0.917213 0.335918 0.419149 0.186542
C33   C     C_R   0.095544 0.407539 0.455233 0.320854
N2    N     N_R   0.142540 0.500820 0.500610 -0.166282
C34   C     C_R   0.047409 0.594777 0.542927 0.150217
C35   C     C_3   0.995449 0.625622 0.644402 -0.485017
C36   C     C_3   0.842484 0.624733 0.644818 -0.506259
H17   H     H_    0.016679 0.549057 0.685900 0.223238
H18   H     H_    0.030450 0.719497 0.659074 0.197807
H19   H     H_    0.777181 0.546591 0.686078 0.223254
H20   H     H_    0.789030 0.718173 0.659447 0.197253
N3    N     N_R   0.184630 0.301246 0.413548 0.222789
O9    O     O_R   0.301500 0.315425 0.340495 -0.392962
O10   O     O_R   0.128733 0.189895 0.430759 -0.439056
N4    N     N_R   0.027356 0.403375 0.975476 0.193003
O11   O     O_R   0.922207 0.409913 0.944120 -0.402138
O12   O     O_R   0.019731 0.319578 0.037498 -0.382985

loop_
_geom_bond_atom_site_label_1
_geom_bond_atom_site_label_2
_geom_bond_distance
_ccdc_geom_bond_type
C5    C8    1.395253 A    
C35   H17   1.112244 S    
C9    C10   1.394709 A    
C6    C21   1.401372 A    
Zn1   O7    1.920189 S    
C1    C24   1.416033 S    
C16   C17   1.393479 A    
C36   H20   1.111531 S    
C18   C19   1.413590 A    
C8    H5    1.083643 S    
C19   C22   1.390781 A    
O4    C2    1.300371 A    
O7    C4    1.297545 A    
C32   C33   1.419468 A    
C14   H7    1.080411 S    
C31   N1    1.365810 A    
N3    O10   1.300958 A    
O5    C3    1.287155 A    
Zn1   N2    2.020414 S    
C2    C5    1.455616 S    
C29   H12   1.112508 S    
C13   C14   1.412666 A    
C31   C36   1.490459 S    
C20   H9    1.083734 S    
C4    C6    1.461411 S    
C23   C30   1.494353 S    
C35   H18   1.108365 S    
N2    C34   1.362178 A    
O3    Zn1   1.959260 S    
C25   C26   1.384458 A    
C7    C8    1.398018 A    
C26   C27   1.402041 A    
C29   H13   1.109685 S    
C36   H19   1.110319 S    
C14   C15   1.385279 A    
O3    C2    1.292290 A    
C32   H16   1.082264 S    
C7    C11   1.421276 A    
C33   N2    1.385656 A    
O1    C1    1.285873 A    
C22   H2    1.075640 S    
C5    C9    1.386138 A    
C24   C25   1.401679 A    
C34   C35   1.490916 S    
C9    H6    1.072324 S    
Zn2   N1    2.021750 S    
O4    Zn2   1.920189 S    
Zn2   O8    1.959257 S    
C29   C30   1.513527 S    
N4    O12   1.301607 A    
C27   C28   1.388382 A    
O8    C4    1.298605 A    
C31   C34   1.412514 A    
C23   C24   1.391390 A    
C13   C19   1.413523 A    
C25   H10   1.083490 S    
Zn1   O5    1.994923 S    
C11   C15   1.397429 A    
C26   H11   1.083534 S    
O1    Zn1   1.994269 S    
O2    Zn2   1.994923 S    
C10   C12   1.422141 A    
N4    O11   1.301643 A    
O6    C3    1.286200 A    
C3    C27   1.414313 S    
C17   H4    1.084046 S    
C6    C22   1.390319 A    
C30   H14   1.112398 S    
C18   C20   1.407116 A    
O2    C1    1.288200 A    
C16   H8    1.077239 S    
N1    C32   1.357661 A    
C20   C21   1.398906 A    
C33   N3    1.431336 S    
C21   H3    1.082879 S    
C30   H15   1.110582 S    
N3    O9    1.297093 A    
C23   C28   1.363801 A    
C35   C36   1.512791 S    
C10   C11   1.427266 A    
C7    N4    1.439712 S    
Zn2   O6    1.994269 S    
C28   C29   1.495214 S    
C12   C16   1.420220 A    
C17   C18   1.393356 A    
C12   C13   1.409868 A    
C15   H1    1.080826 S    
