data_mof_unit_21669.cif
_audit_creation_date              2012-12-10T17:50:44-0500
_audit_creation_method            fapswitch 2.2
_symmetry_space_group_name_H-M    P1
_symmetry_Int_Tables_number       1
_space_group_crystal_system       triclinic
_cell_length_a                    14.8051
_cell_length_b                    14.700133
_cell_length_c                    15.858831
_cell_angle_alpha                 75.490376
_cell_angle_beta                  102.632752
_cell_angle_gamma                 115.172224
_cell_volume                      2999.1956947

loop_
_atom_site_label
_atom_site_type_symbol
_atom_type_description
_atom_site_fract_x
_atom_site_fract_y
_atom_site_fract_z
_atom_type_partial_charge
C1    C     C_R   0.880645 0.311433 0.514243 0.809591
C2    C     C_R   0.119258 0.688372 0.487447 0.809751
C3    C     C_R   0.778970 0.020044 0.548678 -0.189906
C4    C     C_R   0.221485 0.973857 0.491567 -0.189862
C5    C     C_R   0.848918 0.121477 0.541018 0.167811
C6    C     C_R   0.151098 0.874389 0.485514 0.165783
C7    C     C_R   0.709920 0.176255 0.515659 -0.274679
C8    C     C_R   0.289707 0.823203 0.494930 -0.279713
C9    C     C_R   0.639716 0.074643 0.526387 0.081845
C10   C     C_R   0.360745 0.921140 0.506112 0.081520
C11   C     C_R   0.675796 0.996398 0.540891 0.115645
C12   C     C_R   0.324924 0.997446 0.501952 0.116026
C13   C     C_R   0.534486 0.048902 0.520647 0.074943
C14   C     C_R   0.466278 0.945465 0.520179 0.076365
C15   C     C_R   0.505871 0.869503 0.536259 -0.206746
C16   C     C_R   0.495332 0.122567 0.517433 -0.208294
C17   C     C_R   0.608638 0.894772 0.547121 -0.214873
C18   C     C_R   0.392581 0.096832 0.508853 -0.216294
C19   C     C_R   0.698784 0.635695 0.331506 -0.306826
C20   C     C_R   0.301087 0.364120 0.668484 -0.308537
C21   C     C_R   0.788720 0.624057 0.366029 0.048258
C22   C     C_R   0.211292 0.376080 0.634058 0.048451
C23   C     C_R   0.999766 0.499830 0.659885 0.829933
C24   C     C_R   0.000248 0.500197 0.340109 0.831348
C25   C     C_R   0.717830 0.514843 0.493805 0.107744
C26   C     C_R   0.282064 0.484834 0.506096 0.106721
C27   C     C_R   0.628103 0.534651 0.466681 -0.093011
C28   C     C_R   0.371704 0.464841 0.533207 -0.094033
C29   C     C_R   0.615741 0.586640 0.379267 0.143554
C30   C     C_R   0.384046 0.412852 0.620629 0.141366
C31   C     C_R   0.547860 0.499448 0.519679 0.015690
C32   C     C_R   0.451896 0.499869 0.480186 0.016879
C33   C     C_R   0.438110 0.531336 0.388502 -0.203513
C34   C     C_R   0.561609 0.467828 0.611343 -0.208344
C35   C     C_R   0.519157 0.582220 0.339590 0.185470
C36   C     C_R   0.480555 0.416967 0.660239 0.183687
C37   C     C_3   0.939464 0.408201 0.036881 0.181622
C38   C     C_3   0.060665 0.592094 0.963048 0.181410
C39   C     C_3   0.906844 0.478328 0.958142 0.187363
C40   C     C_3   0.093285 0.521966 0.041791 0.187234
C41   C     C_1   0.999609 0.499846 0.749445 -0.168177
C42   C     C_1   0.000459 0.500286 0.250528 -0.168672
C43   C     C_3   0.033126 0.428840 0.994967 -0.244815
C44   C     C_3   0.967002 0.571455 0.004968 -0.245215
C45   C     C_3   0.000080 0.499881 0.916662 0.091454
C46   C     C_3   0.000048 0.500410 0.083276 0.091537
C47   C     C_1   0.999794 0.499822 0.824979 -0.028173
C48   C     C_1   0.000311 0.500400 0.174976 -0.028017
C49   C     C_R   0.813676 0.201306 0.524047 -0.072114
C50   C     C_R   0.186014 0.797469 0.487367 -0.071770
Cu1   Cu    Cu3+1 0.081740 0.475690 0.522610 0.945600
Cu2   Cu    Cu3+1 0.918260 0.524310 0.477390 0.945107
H1    H     H_    0.148928 0.340651 0.672331 0.131434
H2    H     H_    0.851207 0.659801 0.327881 0.132777
H3    H     H_    0.694268 0.680406 0.266399 0.153399
H4    H     H_    0.305581 0.319454 0.733614 0.153589
H5    H     H_    0.363638 0.515011 0.352989 0.149977
H6    H     H_    0.636059 0.484030 0.646873 0.150813
H7    H     H_    0.940011 0.629682 0.009553 0.150869
H8    H     H_    0.060116 0.370613 0.990379 0.151033
H9    H     H_    0.635662 0.834078 0.559495 0.146058
H10   H     H_    0.365909 0.155574 0.507176 0.147915
H11   H     H_    0.313611 0.765148 0.490754 0.174026
H12   H     H_    0.684837 0.237988 0.497973 0.170566
H13   H     H_    0.805006 0.958684 0.560433 0.134437
H14   H     H_    0.195599 0.033347 0.489381 0.134745
H15   H     H_    0.459722 0.788946 0.543775 0.146470
H16   H     H_    0.542082 0.200538 0.524416 0.154094
N1    N     N_R   0.795440 0.560790 0.443380 -0.196831
N2    N     N_R   0.204560 0.439210 0.556620 -0.196609
O1    O     O_R   0.977900 0.338120 0.529810 -0.584215
O2    O     O_R   0.022100 0.661880 0.470190 -0.584843
O3    O     O_R   0.839850 0.379180 0.491620 -0.578827
O4    O     O_R   0.160150 0.620820 0.508380 -0.578557
O5    O     O_R   0.069010 0.479460 0.640020 -0.585736
O6    O     O_R   0.930990 0.520540 0.359980 -0.585368
O7    O     O_R   0.930960 0.520530 0.601820 -0.571921
O8    O     O_R   0.069040 0.479470 0.398180 -0.570945
C51   C     C_3   0.800771 0.453310 0.909667 -0.863652
H17   H     H_    0.748434 0.441090 0.955784 0.235618
H18   H     H_    0.799601 0.517508 0.855419 0.232867
H19   H     H_    0.776179 0.382925 0.882051 0.242408
C52   C     C_3   0.199362 0.546990 0.090253 -0.863199
H20   H     H_    0.251692 0.559208 0.044130 0.235620
H21   H     H_    0.223958 0.617377 0.117867 0.242320
H22   H     H_    0.200541 0.482795 0.144503 0.233260
C53   C     C_1   0.277945 0.566032 0.434000 0.287699
N3    N     N_1   0.275432 0.631385 0.376048 -0.316105
C54   C     C_1   0.721866 0.433398 0.565689 0.284203
N4    N     N_1   0.724277 0.367809 0.623433 -0.316605
C55   C     C_3   0.870355 0.303628 0.079571 -0.859672
H23   H     H_    0.836378 0.252071 0.030563 0.237269
H24   H     H_    0.914196 0.270954 0.135139 0.232654
H25   H     H_    0.809692 0.310949 0.104409 0.238024
C56   C     C_3   0.129761 0.696656 0.920324 -0.859479
H26   H     H_    0.163747 0.748240 0.969310 0.237130
H27   H     H_    0.190417 0.689324 0.895484 0.238326
H28   H     H_    0.085908 0.729308 0.864749 0.232404
C57   C     C_3   0.041007 0.853787 0.478450 -0.829835
H29   H     H_    0.007328 0.795007 0.534702 0.241692
H30   H     H_    0.029381 0.923260 0.479727 0.211058
H31   H     H_    0.000825 0.828053 0.415476 0.239630
C58   C     C_3   0.958833 0.140622 0.549514 -0.831884
H32   H     H_    0.990781 0.189328 0.488668 0.241827
H33   H     H_    0.000684 0.177673 0.607190 0.237664
H34   H     H_    0.970413 0.068589 0.559456 0.210370
C59   C     C_3   0.499025 0.625260 0.243661 -0.879990
H35   H     H_    0.418390 0.612177 0.223020 0.240196
H36   H     H_    0.543216 0.709020 0.231248 0.234210
H37   H     H_    0.520216 0.588387 0.202386 0.231991
C60   C     C_3   0.500629 0.373643 0.756099 -0.880901
H38   H     H_    0.581202 0.386412 0.776668 0.240348
H39   H     H_    0.479701 0.410557 0.797532 0.232273
H40   H     H_    0.456191 0.289924 0.768365 0.233783

loop_
_geom_bond_atom_site_label_1
_geom_bond_atom_site_label_2
_ccdc_geom_bond_type
C4    H14   S    
C53   N3    T    
C5    C58   S    
C27   C29   A    
C24   C42   S    
C56   H26   S    
Cu1   O4    S    
C20   H4    S    
C56   H28   S    
C60   H39   S    
C20   C30   A    
C40   C46   S    
C1    O1    A    
C19   C21   A    
Cu1   O5    S    
C21   H2    S    
C8    C10   A    
C44   H7    S    
C15   C17   A    
C9    C13   A    
C38   C45   S    
Cu2   N1    S    
C2    C50   S    
C17   H9    S    
C40   C43   S    
C57   H29   S    
C26   C53   S    
C38   C56   S    
C59   H35   S    
C16   H16   S    
Cu1   N2    S    
C4    C12   A    
C2    O4    A    
C39   C45   S    
C13   C14   A    
C59   H36   S    
C40   C52   S    
C5    C49   A    
C60   H40   S    
C3    H13   S    
Cu1   O1    S    
C2    O2    A    
C44   C46   S    
C22   H1    S    
C45   C47   S    
C46   C48   S    
C37   C55   S    
C27   C31   A    
Cu1   Cu2   S    
C28   C32   A    
C35   C59   S    
C7    C49   A    
C4    C6    A    
Cu2   O3    S    
C10   C14   A    
C55   H23   S    
C51   H18   S    
C24   O6    A    
Cu2   O6    S    
C23   O7    A    
C21   N1    A    
C39   C51   S    
C37   C43   S    
C38   C44   S    
Cu2   O2    S    
C55   H24   S    
C9    C11   A    
C52   H20   S    
C15   H15   S    
C52   H22   S    
C36   C60   S    
C41   C47   T    
C31   C34   A    
C58   H33   S    
C42   C48   T    
C6    C50   A    
C43   C45   S    
C10   C12   A    
C43   H8    S    
C24   O8    A    
C57   H30   S    
C20   C22   A    
C26   N2    A    
C59   H37   S    
C25   N1    A    
Cu2   O7    S    
C19   C29   A    
C8    C50   A    
C19   H3    S    
C7    C9    A    
C11   C17   A    
C33   H5    S    
C60   H38   S    
C52   H21   S    
C26   C28   A    
C31   C32   A    
C18   H10   S    
C23   O5    A    
C3    C5    A    
C51   H19   S    
C56   H27   S    
C39   C44   S    
C25   C27   A    
C29   C35   A    
C25   C54   S    
C23   C41   S    
C30   C36   A    
C1    O3    A    
C32   C33   A    
C28   C30   A    
C37   C46   S    
Cu1   O8    S    
C37   C39   S    
C6    C57   S    
C55   H25   S    
C38   C40   S    
C33   C35   A    
C58   H34   S    
C34   C36   A    
C7    H12   S    
C3    C11   A    
C8    H11   S    
C51   H17   S    
C57   H31   S    
C16   C18   A    
C13   C16   A    
C12   C18   A    
C58   H32   S    
C34   H6    S    
C14   C15   A    
C54   N4    T    
C1    C49   S    
C22   N2    A    
