data_mof_unit_27488.cif
_audit_creation_date              2012-12-11T15:59:28-0500
_audit_creation_method            fapswitch 2.2
_symmetry_space_group_name_H-M    P1
_symmetry_Int_Tables_number       1
_space_group_crystal_system       triclinic
_cell_length_a                    10.781522
_cell_length_b                    10.679145
_cell_length_c                    17.134078
_cell_angle_alpha                 99.773629
_cell_angle_beta                  99.747167
_cell_angle_gamma                 61.525386
_cell_volume                      1700.04085053

loop_
_atom_site_label
_atom_site_type_symbol
_atom_type_description
_atom_site_fract_x
_atom_site_fract_y
_atom_site_fract_z
_atom_type_partial_charge
C1    C     C_R   0.355553 0.777028 0.401570 0.539851
C2    C     C_R   0.778312 0.256669 0.180798 0.008761
C3    C     C_R   0.765813 0.254119 0.260977 0.010510
C4    C     C_R   0.887566 0.402929 0.302631 -0.156519
C5    C     C_R   0.905408 0.398130 0.225174 -0.141608
C6    C     C_R   0.731137 0.177223 0.119631 -0.096524
C7    C     C_R   0.692864 0.079861 0.137771 -0.094475
C8    C     C_R   0.680440 0.075070 0.215911 -0.132090
C9    C     C_R   0.717220 0.159005 0.276695 -0.099665
C10   C     C_R   0.813871 0.337526 0.321555 -0.002997
C11   C     C_R   0.318937 0.860976 0.168514 -0.008967
C12   C     C_R   0.370550 0.346499 0.357484 0.549607
C13   C     C_R   0.452708 0.815880 0.212511 0.013480
C14   C     C_R   0.460373 0.824106 0.296292 0.019103
C15   C     C_R   0.205588 0.901890 0.287706 -0.021276
C16   C     C_R   0.197327 0.908646 0.207544 -0.126210
C17   C     C_R   0.578365 0.763662 0.175626 -0.096117
C18   C     C_R   0.707092 0.734136 0.221260 -0.136108
C19   C     C_R   0.712067 0.758854 0.303760 -0.132439
C20   C     C_R   0.589938 0.805891 0.341048 -0.064188
C21   C     C_R   0.338519 0.848394 0.331790 -0.001414
C22   C     C_R   0.333064 0.336071 0.822745 -0.006110
C23   C     C_R   0.768960 0.378358 0.400886 0.548605
C24   C     C_R   0.459503 0.242689 0.787479 0.033319
C25   C     C_R   0.450740 0.213732 0.704513 0.033568
C26   C     C_R   0.221749 0.427694 0.695616 -0.153598
C27   C     C_R   0.215595 0.431107 0.776433 -0.153423
C28   C     C_R   0.590680 0.167336 0.832730 -0.067845
C29   C     C_R   0.701510 0.048318 0.797506 -0.101217
C30   C     C_R   0.682186 0.002300 0.717530 -0.116513
C31   C     C_R   0.557463 0.083324 0.671273 -0.073389
C32   C     C_R   0.339025 0.319504 0.658463 -0.008647
C33   C     C_1   0.844000 0.329989 0.705767 -0.039534
C34   C     C_R   0.358401 0.769483 0.627398 0.548445
C35   C     C_1   0.890484 0.294824 0.772107 -0.037312
C36   C     C_1   0.339002 0.811121 0.709368 -0.032184
C37   C     C_1   0.312017 0.839356 0.777141 -0.033235
C38   C     C_R   0.894074 0.309585 0.087507 0.541050
C39   C     C_R   0.318260 0.299127 0.120256 0.557000
C40   C     C_R   0.291759 0.894901 0.086766 0.537572
C41   C     C_R   0.941601 0.274286 0.854219 0.563528
C42   C     C_R   0.308625 0.295068 0.893925 0.531552
C43   C     C_R   0.277845 0.885974 0.856901 0.547406
C44   C     C_R   0.369643 0.344976 0.583898 0.539175
C45   C     C_R   0.776841 0.379004 0.629342 0.553750
C46   C     C_1   0.343185 0.335802 0.274222 -0.041847
C47   C     C_1   0.330771 0.326001 0.203521 -0.032088
C48   C     C_R   0.847470 0.330240 0.164122 0.013008
Cr1   Cr    Cr6+3 0.608100 0.610860 0.522250 1.006468
Cr2   Cr    Cr6+3 0.288890 0.599990 0.488420 1.005974
Cr3   Cr    Cr6+3 0.603040 0.289190 0.489390 0.996659
Cr4   Cr    Cr6+3 0.053960 0.052250 0.967380 0.995687
Cr5   Cr    Cr6+3 0.059890 0.373160 0.992710 1.008801
Cr6   Cr    Cr6+3 0.373370 0.061690 0.991710 0.997266
H1    H     H_    0.929517 0.460845 0.348012 0.131433
H2    H     H_    0.802224 0.697087 0.192420 0.116786
H3    H     H_    0.811103 0.740452 0.339214 0.097677
H4    H     H_    0.598161 0.831666 0.404832 0.131339
H5    H     H_    0.135050 0.509334 0.662160 0.139947
H6    H     H_    0.605888 0.197740 0.895863 0.121350
H7    H     H_    0.117959 0.505301 0.802159 0.143571
H8    H     H_    0.799944 0.988382 0.833003 0.128296
H9    H     H_    0.764802 0.905278 0.690923 0.112692
H10   H     H_    0.545308 0.042901 0.609640 0.129114
H11   H     H_    0.726885 0.185929 0.057216 0.121579
H12   H     H_    0.968485 0.445893 0.213413 0.138829
H13   H     H_    0.668383 0.010980 0.090723 0.133416
H14   H     H_    0.644353 0.004210 0.230066 0.142408
H15   H     H_    0.721484 0.131541 0.334624 0.172203
H16   H     H_    0.578720 0.744096 0.111633 0.130665
H17   H     H_    0.091880 0.955158 0.175881 0.160347
O1    O     O_R   0.749810 0.499790 0.438040 -0.517105
O2    O     O_R   0.298970 0.468800 0.557390 -0.497974
O3    O     O_R   0.489400 0.255930 0.561910 -0.527775
O4    O     O_R   0.723890 0.306050 0.584610 -0.492833
O5    O     O_3   0.500010 0.500010 0.500020 -0.241428
O6    O     O_R   0.171100 0.914680 0.053100 -0.524595
O7    O     O_R   0.941680 0.184840 0.050710 -0.512833
O8    O     O_R   0.922080 0.403420 0.072610 -0.525839
O9    O     O_R   0.196880 0.369150 0.083850 -0.505115
O10   O     O_R   0.411730 0.181020 0.091530 -0.520533
O11   O     O_R   0.365010 0.944360 0.063320 -0.506938
O12   O     O_R   0.477660 0.726260 0.439290 -0.517511
O13   O     O_R   0.159380 0.906670 0.876210 -0.519478
O14   O     O_R   0.930820 0.177420 0.886730 -0.504040
O15   O     O_R   0.910360 0.395420 0.895720 -0.507644
O16   O     O_R   0.186010 0.361730 0.919870 -0.515379
O17   O     O_R   0.400000 0.173010 0.914630 -0.522865
O18   O     O_R   0.354140 0.936940 0.899340 -0.494154
O19   O     O_3   0.162410 0.162370 0.983930 -0.263128
O20   O     O_R   0.260150 0.743000 0.412270 -0.518665
O21   O     O_R   0.297740 0.466550 0.394720 -0.504891
O22   O     O_R   0.488080 0.253500 0.386430 -0.533960
O23   O     O_R   0.722670 0.303800 0.421940 -0.531186
O24   O     O_R   0.751130 0.502220 0.613520 -0.511200
O25   O     O_R   0.478890 0.728510 0.601960 -0.499467
O26   O     O_R   0.261470 0.745430 0.587750 -0.515724
C49   C     C_3   0.068947 0.955287 0.323924 -0.249337
C50   C     C_3   0.001319 0.855438 0.296520 -0.407016
H18   H     H_    0.961779 0.861043 0.232419 0.141554
H19   H     H_    0.077899 0.742345 0.305017 0.189126
H20   H     H_    0.911483 0.888276 0.331640 0.114100
H21   H     H_    0.081028 0.974032 0.389831 0.160275
H22   H     H_    0.998499 0.061534 0.305018 0.139306

loop_
_geom_bond_atom_site_label_1
_geom_bond_atom_site_label_2
_ccdc_geom_bond_type
C25   C31   A    
C1    C21   S    
C33   C45   S    
Cr4   O19   S    
C19   C20   A    
Cr3   O3    S    
C7    C8    A    
C19   H3    S    
C26   C32   A    
C41   O15   A    
C26   C27   A    
C43   O18   A    
C14   C21   A    
C28   C29   A    
Cr5   O8    S    
C34   O25   A    
Cr6   O19   S    
C30   C31   A    
C38   O8    A    
C15   C16   A    
C34   O26   A    
C14   C20   A    
C18   C19   A    
Cr4   O13   S    
C27   H7    S    
C46   C47   T    
C6    H11   S    
C8    C9    A    
Cr1   O1    S    
Cr5   O15   S    
C26   H5    S    
C38   C48   S    
C18   H2    S    
C25   C32   A    
C17   H16   S    
C1    O20   A    
C30   H9    S    
C43   O13   A    
C2    C6    A    
C16   H17   S    
Cr4   O7    S    
C23   O1    A    
C28   H6    S    
C5    C48   A    
C40   O11   A    
Cr5   O9    S    
C24   C25   A    
C39   O10   A    
Cr6   O18   S    
C12   C46   S    
Cr2   O2    S    
C5    H12   S    
C38   O7    A    
C2    C48   A    
Cr1   O24   S    
C37   C43   S    
C29   C30   A    
C3    C9    A    
Cr2   O5    S    
C11   C16   A    
C50   H18   S    
C17   C18   A    
C32   C44   S    
Cr1   O5    S    
Cr5   O16   S    
Cr3   O5    S    
C44   O3    A    
Cr3   O22   S    
Cr2   O21   S    
C50   H19   S    
C8    H14   S    
C22   C27   A    
C4    H1    S    
C9    H15   S    
C22   C24   A    
C12   O22   A    
C42   O17   A    
C15   C49   S    
C4    C10   A    
Cr4   O6    S    
C45   O24   A    
Cr6   O11   S    
C39   C47   S    
C44   O2    A    
C29   H8    S    
Cr4   O14   S    
Cr2   O26   S    
C31   H10   S    
C12   O21   A    
C24   C28   A    
Cr3   O4    S    
C4    C5    A    
C6    C7    A    
C10   C23   S    
C1    O12   A    
C41   O14   A    
C23   O23   A    
C13   C17   A    
C45   O4    A    
C39   O9    A    
Cr1   O12   S    
C2    C3    A    
C3    C10   A    
Cr6   O17   S    
C11   C13   A    
C22   C42   S    
C49   H22   S    
C33   C35   T    
C34   C36   S    
Cr1   O25   S    
C11   C40   S    
C35   C41   S    
Cr3   O23   S    
C7    H13   S    
Cr2   O20   S    
C15   C21   A    
C50   H20   S    
C36   C37   T    
C49   C50   S    
Cr5   O19   S    
C40   O6    A    
C42   O16   A    
C13   C14   A    
C20   H4    S    
Cr6   O10   S    
C49   H21   S    
