data_mof_unit_52929.cif
_audit_creation_date              2013-03-05T16:07:04-0500
_audit_creation_method            fapswitch 2.2
_symmetry_space_group_name_H-M    P1
_symmetry_Int_Tables_number       1
_space_group_crystal_system       triclinic
_cell_length_a                    16.570199
_cell_length_b                    7.324269
_cell_length_c                    17.205978
_cell_angle_alpha                 89.957404
_cell_angle_beta                  100.093988
_cell_angle_gamma                 90.075875
_cell_volume                      2055.87247683

loop_
_atom_site_label
_atom_site_type_symbol
_atom_site_description
_atom_site_fract_x
_atom_site_fract_y
_atom_site_fract_z
_atom_type_partial_charge
O1    O     O_R   0.413450 0.494370 0.415710 -0.599910
O2    O     O_R   0.586550 0.994370 0.584290 -0.600106
O3    O     O_R   0.578420 0.819350 0.429360 -0.600751
O4    O     O_R   0.421580 0.319350 0.570640 -0.599227
C1    C     C_R   0.605729 0.654758 0.415149 0.957387
C2    C     C_R   0.394334 0.154509 0.584957 0.958161
O5    O     O_R   0.413570 0.823780 0.406240 -0.542033
O6    O     O_R   0.586430 0.323780 0.593760 -0.542474
O7    O     O_R   0.420530 0.998740 0.561000 -0.553815
O8    O     O_R   0.579470 0.498740 0.439000 -0.554017
C3    C     C_R   0.385524 0.656151 0.384664 1.004771
C4    C     C_R   0.614565 0.156231 0.615240 1.004516
O9    O     O_3   0.502480 0.662320 0.550800 -0.291023
O10   O     O_3   0.497520 0.162320 0.449200 -0.291342
V1    V     V_3+5 0.499540 0.935370 0.490580 1.206840
V2    V     V_3+5 0.500460 0.435370 0.509420 1.207373
C5    C     C_R   0.713011 0.983594 0.713812 0.113814
C6    C     C_R   0.287115 0.483495 0.285911 0.117809
C7    C     C_R   0.687369 0.149421 0.680063 -0.431707
C8    C     C_R   0.312859 0.649254 0.319693 -0.430685
C9    C     C_R   0.720925 0.305700 0.720995 0.462802
C10   C     C_R   0.279318 0.805607 0.278847 0.461086
C11   C     C_R   0.794782 0.295586 0.776751 0.464011
C12   C     C_R   0.205410 0.795403 0.223150 0.468114
C13   C     C_R   0.821069 0.124467 0.811000 -0.436029
C14   C     C_R   0.178981 0.624346 0.188933 -0.426193
C15   C     C_R   0.777411 0.969345 0.778941 0.050364
C16   C     C_R   0.222511 0.469182 0.220984 0.059933
C17   C     C_3   0.724274 0.854319 0.821114 -0.251825
C18   C     C_3   0.275132 0.353494 0.178717 -0.260986
C19   C     C_3   0.656336 0.872853 0.751432 -0.491158
C20   C     C_3   0.343505 0.372998 0.248014 -0.492078
H1    H     H_    0.709138 0.925806 0.873511 0.232306
H2    H     H_    0.289762 0.423570 0.125803 0.234087
H3    H     H_    0.746783 0.713074 0.831144 0.270542
H4    H     H_    0.252496 0.212229 0.169333 0.273470
H5    H     H_    0.603121 0.951417 0.765255 0.165168
H6    H     H_    0.396468 0.452015 0.233688 0.166447
H7    H     H_    0.638303 0.754464 0.713868 0.270191
H8    H     H_    0.361883 0.254973 0.285716 0.270395
C21   C     C_R   0.328562 0.138466 0.633320 -0.313197
C22   C     C_R   0.671554 0.638860 0.366939 -0.313659
C23   C     C_R   0.166167 0.130679 0.860472 -0.513971
C24   C     C_R   0.832732 0.628434 0.138941 -0.517755
C25   C     C_R   0.291955 0.275970 0.832975 0.489933
C26   C     C_R   0.710685 0.784762 0.168998 0.462352
C27   C     C_R   0.235915 0.241804 0.884205 0.193414
C28   C     C_R   0.766474 0.750403 0.117629 0.175563
C29   C     C_R   0.154060 0.049440 0.784773 0.569891
C30   C     C_R   0.838983 0.529949 0.210548 0.514969
C31   C     C_R   0.212067 0.078563 0.734039 -0.102186
C32   C     C_R   0.784800 0.569968 0.263986 -0.086011
C33   C     C_R   0.279294 0.198167 0.757037 -0.076438
C34   C     C_R   0.721127 0.699502 0.243406 -0.073375
C35   C     C_R   0.335202 0.231570 0.705242 -0.204043
C36   C     C_R   0.666322 0.735580 0.295967 -0.216064
C37   C     C_R   0.262176 0.017010 0.610982 0.628203
C38   C     C_R   0.736598 0.513931 0.388466 0.632105
C39   C     C_R   0.204652 0.988924 0.660863 -0.240986
C40   C     C_R   0.792597 0.481796 0.337593 -0.256505
H9    H     H_    0.386785 0.322792 0.722397 0.175113
H10   H     H_    0.616560 0.831880 0.280069 0.178199
H11   H     H_    0.155127 0.893176 0.642456 0.177634
H12   H     H_    0.841365 0.384447 0.355868 0.171787
O11   O     O_R   0.920630 0.775410 0.061150 -0.590357
O12   O     O_R   0.079370 0.275410 0.938850 -0.585513
O13   O     O_R   0.086500 0.441450 0.093690 -0.583210
O14   O     O_R   0.913500 0.941450 0.906310 -0.581425
C41   C     C_R   0.113022 0.610753 0.117136 1.011124
C42   C     C_R   0.886956 0.110742 0.882872 1.001405
O15   O     O_R   0.921670 0.445960 0.070740 -0.582314
O16   O     O_R   0.078330 0.945960 0.929260 -0.556673
O17   O     O_R   0.913380 0.271130 0.915780 -0.540593
O18   O     O_R   0.086620 0.771130 0.084220 -0.540478
C43   C     C_R   0.896769 0.614534 0.087318 1.091448
C44   C     C_R   0.103181 0.115026 0.912859 1.088955
O19   O     O_3   0.997500 0.603030 0.949220 -0.279908
O20   O     O_3   0.002500 0.103030 0.050780 -0.298806
V3    V     V_3+5 0.000470 0.329940 0.009420 1.252446
V4    V     V_3+5 0.999530 0.829940 0.990580 1.268139
O21   O     O_3   0.672337 0.456949 0.721719 -0.617321
C45   C     C_3   0.620383 0.426176 0.777951 -0.189098
H13   H     H_    0.656354 0.422651 0.838959 0.168437
H14   H     H_    0.583620 0.298770 0.765862 0.098544
H15   H     H_    0.575372 0.538726 0.775192 0.161442
O22   O     O_3   0.327921 0.957153 0.278194 -0.616638
C46   C     C_3   0.379967 0.926891 0.222041 -0.190784
H16   H     H_    0.416685 0.799601 0.234136 0.098083
H17   H     H_    0.425032 0.039617 0.224894 0.160344
H18   H     H_    0.344072 0.923499 0.161001 0.172248
N1    N     N_R   0.253767 0.307840 0.963454 0.245486
O23   O     O_R   0.276911 0.476035 0.978068 -0.391606
O24   O     O_R   0.256397 0.192308 0.021212 -0.468972
N2    N     N_R   0.750289 0.823094 0.039404 0.246650
O25   O     O_R   0.730224 0.993644 0.026796 -0.412861
O26   O     O_R   0.746302 0.711283 0.980264 -0.468123
O27   O     O_3   0.086913 0.937170 0.761466 -0.598331
C47   C     C_3   0.021276 0.044850 0.723047 -0.294648
H19   H     H_    0.035975 0.108247 0.668398 0.141718
H20   H     H_    0.003923 0.152185 0.762770 0.110156
H21   H     H_    0.967025 0.955488 0.705578 0.164709
O28   O     O_3   0.901310 0.403640 0.230346 -0.640266
C48   C     C_3   0.869981 0.228143 0.207992 -0.134467
H22   H     H_    0.842135 0.221643 0.144302 0.180885
H23   H     H_    0.824101 0.183710 0.244138 0.126088
H24   H     H_    0.921293 0.128904 0.218075 0.140696
O29   O     O_3   0.832208 0.455050 0.807337 -0.578978
C49   C     C_3   0.867926 0.542396 0.748582 -0.195815
H25   H     H_    0.908721 0.448554 0.722359 0.093285
H26   H     H_    0.906297 0.657211 0.776205 0.192966
H27   H     H_    0.820159 0.601081 0.701824 0.136049
O30   O     O_3   0.167949 0.954739 0.192631 -0.579781
C50   C     C_3   0.132002 0.041198 0.251334 -0.202769
H28   H     H_    0.091051 0.946780 0.277243 0.096904
H29   H     H_    0.093720 0.156069 0.223760 0.190594
H30   H     H_    0.179647 0.099717 0.298277 0.141179
O31   O     O_3   0.256028 0.914893 0.542683 -0.610701
C51   C     C_3   0.207688 0.011953 0.480724 -0.268086
H31   H     H_    0.237362 0.143101 0.468891 0.134797
H32   H     H_    0.144882 0.036980 0.493073 0.128328
H33   H     H_    0.201477 0.928013 0.426384 0.165153
O32   O     O_3   0.742664 0.411734 0.456813 -0.612383
C52   C     C_3   0.790259 0.509796 0.518962 -0.273036
H34   H     H_    0.759839 0.639799 0.530760 0.134325
H35   H     H_    0.853006 0.537119 0.506848 0.130785
H36   H     H_    0.796744 0.425524 0.573278 0.162760
O33   O     O_3   0.359448 0.386566 0.857661 -0.583688
C53   C     C_3   0.424897 0.276696 0.894968 -0.164259
H37   H     H_    0.441892 0.171168 0.854213 0.103768
H38   H     H_    0.410302 0.210767 0.949113 0.165800
H39   H     H_    0.479354 0.365063 0.913140 0.162180
O34   O     O_3   0.646287 0.904727 0.146382 -0.591285
C54   C     C_3   0.578154 0.805451 0.106985 -0.149541
H40   H     H_    0.558164 0.698962 0.145756 0.101847
H41   H     H_    0.591253 0.742140 0.051775 0.165890
H42   H     H_    0.526187 0.901236 0.090260 0.157899

loop_
_geom_bond_atom_site_label_1
_geom_bond_atom_site_label_2
_geom_bond_distance
_ccdc_geom_bond_type
O14   V4    2.019490 S    
O15   C43   1.348770 A    
C1    C22   1.486264 S    
C15   C17   1.494206 S    
O1    C3    1.348106 A    
O16   C44   1.349600 A    
O2    C4    1.348092 A    
C53   H37   1.113105 S    
C22   C38   1.413597 A    
C2    O7    1.313274 A    
O15   V3    2.006834 S    
O21   C45   1.420973 S    
C52   H34   1.113260 S    
C14   C16   1.406326 A    
O5    C3    1.341589 A    
O12   V3    1.975265 S    
C28   N2    1.428185 S    
C10   C12   1.418536 A    
C7    C9    1.406263 A    
C12   C14   1.420331 A    
C26   O34   1.385120 S    
C52   H35   1.113497 S    
C38   C40   1.402922 A    
C17   H1    1.109121 S    
C49   H25   1.114246 S    
C25   C27   1.409922 A    
C51   H31   1.113303 S    
C21   C35   1.400657 A    
C32   C40   1.406898 A    
C22   C36   1.400825 A    
C46   H17   1.107818 S    
C49   H26   1.109318 S    
O34   C54   1.411761 S    
C29   C31   1.422907 A    
C2    C21   1.487104 S    
C12   O30   1.381937 S    
C54   H42   1.109475 S    
C30   C32   1.424028 A    
O29   C49   1.410435 S    
C20   H6    1.113630 S    
C50   H30   1.111510 S    
O5    V1    2.019213 S    
C25   C33   1.407339 A    
O6    V2    2.019868 S    
O11   V4    1.974202 S    
O18   V4    2.012349 S    
O28   C48   1.413731 S    
C27   N1    1.428263 S    
O30   C50   1.410257 S    
C32   C34   1.417702 A    
O27   C47   1.411166 S    
C26   C28   1.409428 A    
C33   C35   1.414487 A    
C34   C36   1.414664 A    
C3    C8    1.493364 S    
C38   O32   1.382305 S    
C18   H2    1.107903 S    
C5    C15   1.409375 A    
C6    C16   1.409130 A    
O4    C2    1.326371 A    
N1    O23   1.301265 A    
O22   C46   1.421012 S    
C23   C29   1.414209 A    
C52   H36   1.109071 S    
C45   H13   1.112879 S    
C19   H5    1.113682 S    
O13   C41   1.353032 A    
C51   H33   1.108934 S    
O4    V2    2.004586 S    
C24   C43   1.502015 S    
N1    O24   1.299690 A    
O6    C4    1.341763 A    
C11   O29   1.382118 S    
C26   C34   1.407261 A    
C42   O17   1.343511 A    
O17   V3    2.012043 S    
O13   V3    2.018836 S    
C41   O18   1.343673 A    
C48   H23   1.111502 S    
O1    V2    2.012695 S    
N2    O26   1.299227 A    
O2    V1    2.012391 S    
O14   C42   1.353540 A    
C9    O21   1.371659 S    
C30   O28   1.384643 S    
C45   H14   1.113331 S    
C9    C11   1.418515 A    
C54   H40   1.113127 S    
C5    C19   1.472777 S    
C36   H10   1.083710 S    
C46   H18   1.112859 S    
C31   C39   1.406477 A    
O33   C53   1.411834 S    
C45   H15   1.107803 S    
C53   H39   1.109404 S    
C20   H8    1.091526 S    
O3    V1    2.006717 S    
C37   O31   1.381996 S    
C50   H28   1.114338 S    
O19   V4    1.806339 S    
C24   C30   1.415333 A    
C23   C44   1.498057 S    
O20   V3    1.805447 S    
C39   H11   1.083177 S    
C8    C10   1.406341 A    
O3    C1    1.326078 A    
C53   H38   1.112469 S    
C13   C15   1.406179 A    
C47   H21   1.109439 S    
C17   H3    1.103318 S    
C47   H20   1.112720 S    
O11   C43   1.344550 A    
C49   H27   1.111606 S    
C18   H4    1.102396 S    
C40   H12   1.082779 S    
C16   C18   1.494078 S    
O7    V1    1.988975 S    
C21   C37   1.413796 A    
C1    O8    1.313056 A    
O16   V4    2.004702 S    
O8    V2    1.987748 S    
O31   C51   1.408722 S    
C18   C20   1.500652 S    
C25   O33   1.385260 S    
C35   H9    1.083729 S    
C4    C7    1.493411 S    
C5    C7    1.380839 A    
C19   H7    1.091492 S    
C48   H24   1.109550 S    
C6    C8    1.380775 A    
C10   O22   1.371694 S    
N2    O25   1.301308 A    
C51   H32   1.113507 S    
C37   C39   1.404797 A    
C29   O27   1.384427 S    
C11   C13   1.420631 A    
C6    C20   1.472954 S    
C46   H16   1.113330 S    
C17   C19   1.500086 S    
C47   H19   1.112834 S    
O9    V2    1.806751 S    
C48   H22   1.113020 S    
C54   H41   1.112530 S    
C14   C41   1.502375 S    
O10   V1    1.805859 S    
C13   C42   1.502704 S    
C31   C33   1.417149 A    
O32   C52   1.409015 S    
C23   C27   1.413326 A    
O12   C44   1.341427 A    
C24   C28   1.413818 A    
C50   H29   1.109364 S    
