data_mof_unit_5905.cif
_audit_creation_date              2012-12-10T19:10:03-0500
_audit_creation_method            fapswitch 2.2
_symmetry_space_group_name_H-M    P1
_symmetry_Int_Tables_number       1
_space_group_crystal_system       triclinic
_cell_length_a                    10.86772
_cell_length_b                    10.805553
_cell_length_c                    9.54656
_cell_angle_alpha                 90.904336
_cell_angle_beta                  89.868757
_cell_angle_gamma                 89.667054
_cell_volume                      1120.90725668

loop_
_atom_site_label
_atom_site_type_symbol
_atom_type_description
_atom_site_fract_x
_atom_site_fract_y
_atom_site_fract_z
_atom_type_partial_charge
C1    C     C_R   0.503840 0.262439 0.499204 0.840052
C2    C     C_R   0.244529 0.283861 0.031624 -0.108455
C3    C     C_R   0.933719 0.455371 0.387604 -0.209708
C4    C     C_R   0.870602 0.508677 0.500915 -0.124116
C5    C     C_R   0.935100 0.565669 0.612248 -0.039283
C6    C     C_R   0.063625 0.566538 0.609178 0.204434
C7    C     C_R   0.127531 0.505245 0.498763 -0.141192
C8    C     C_R   0.061206 0.451746 0.385207 -0.039211
C9    C     C_R   0.827490 0.751530 0.714878 -0.143885
C10   C     C_R   0.779059 0.816573 0.830552 0.310674
C11   C     C_R   0.772401 0.759781 0.961082 -0.146174
C12   C     C_R   0.262046 0.501823 0.499848 0.826497
C13   C     C_R   0.812230 0.637494 0.975759 -0.198192
C14   C     C_R   0.861870 0.572701 0.860838 -0.083088
C15   C     C_R   0.870729 0.629825 0.730041 0.133414
C16   C     C_R   0.444337 0.066650 0.601585 0.137683
C17   C     C_R   0.511279 0.128936 0.500130 -0.154908
C18   C     C_R   0.590280 0.060525 0.409964 0.265798
C19   C     C_R   0.586839 0.931150 0.411146 -0.228685
C20   C     C_R   0.507627 0.870465 0.503477 -0.143857
C21   C     C_R   0.442364 0.939159 0.603627 0.151317
C22   C     C_3   0.307526 0.937817 0.635135 -0.423506
C23   C     C_R   0.500113 0.737500 0.500900 0.819138
C24   C     C_3   0.310667 0.077589 0.635108 -0.491113
C25   C     C_R   0.430739 0.582850 0.075631 0.275993
C26   C     C_R   0.564129 0.412518 0.072529 -0.069891
C27   C     C_R   0.564083 0.412345 0.923756 -0.071229
C28   C     C_R   0.430560 0.582787 0.928196 0.305914
C29   C     C_3   0.440727 0.720339 0.926494 -0.465552
C30   C     C_3   0.441051 0.720072 0.084667 -0.495626
C31   C     C_R   0.737327 0.503332 0.500228 0.828009
C32   C     C_R   0.170190 0.388302 0.013545 -0.136657
C33   C     C_R   0.108667 0.442076 0.128285 -0.144652
C34   C     C_R   0.121040 0.391022 0.262035 0.142189
C35   C     C_R   0.192732 0.283818 0.278195 -0.076196
C36   C     C_R   0.255179 0.231078 0.163693 -0.093534
Cu1   Cu    Cu3+1 0.499990 0.499980 0.640670 0.975396
Cu2   Cu    Cu3+1 0.500010 0.500020 0.359330 0.962082
H1    H     H_    0.294311 0.244230 0.943542 0.131983
H2    H     H_    0.736143 0.810320 0.050959 0.163544
H3    H     H_    0.806246 0.593521 0.076650 0.152112
H4    H     H_    0.895408 0.479027 0.874052 0.138503
H5    H     H_    0.644792 0.878240 0.339373 0.169199
H6    H     H_    0.252203 0.897085 0.548198 0.212432
H7    H     H_    0.285877 0.902399 0.740212 0.231619
H8    H     H_    0.617408 0.343826 0.126666 0.197205
H9    H     H_    0.161476 0.428238 0.910893 0.178697
H10   H     H_    0.617165 0.343111 0.866717 0.178092
H11   H     H_    0.528151 0.752796 0.880160 0.230277
H12   H     H_    0.357236 0.764721 0.885007 0.230239
H13   H     H_    0.529874 0.751517 0.129685 0.215798
H14   H     H_    0.357754 0.763992 0.132088 0.209971
H15   H     H_    0.053435 0.524577 0.113549 0.147173
H16   H     H_    0.312572 0.150000 0.177636 0.139097
H17   H     H_    0.883284 0.412547 0.301834 0.183999
H18   H     H_    0.834541 0.796551 0.614615 0.149491
N1    N     N_R   0.500790 0.500930 0.147930 -0.197407
N2    N     N_R   0.500790 0.500890 0.852020 -0.199882
O1    O     O_R   0.500000 0.319640 0.618810 -0.581088
O2    O     O_R   0.500010 0.319680 0.381230 -0.562660
O3    O     O_R   0.319640 0.499990 0.618790 -0.546664
O4    O     O_R   0.319650 0.500030 0.381210 -0.577913
O5    O     O_R   0.499990 0.680320 0.618770 -0.569052
O6    O     O_R   0.500000 0.680360 0.381190 -0.596734
O7    O     O_R   0.680350 0.499970 0.618790 -0.579741
O8    O     O_R   0.680360 0.500010 0.381210 -0.585646
Br1   Br    Br    0.705859 0.137085 0.287072 -0.542601
H19   H     H_    0.255715 0.117608 0.549458 0.187431
H20   H     H_    0.294148 0.119992 0.740082 0.208386
H21   H     H_    0.202296 0.243544 0.380102 0.089640
Br2   Br    Br    0.147327 0.665026 0.750164 -0.622724
Br3   Br    Br    0.724492 0.983778 0.811308 -0.532659

loop_
_geom_bond_atom_site_label_1
_geom_bond_atom_site_label_2
_ccdc_geom_bond_type
C27   H10   S    
C31   O8    A    
Cu1   O3    S    
C30   H13   S    
C16   C21   A    
C28   N2    A    
Cu2   N1    S    
C12   O4    A    
C9    C10   A    
C1    C17   S    
Cu1   N2    S    
C20   C23   S    
C14   H4    S    
C32   C33   A    
Cu1   O1    S    
C23   O5    A    
C33   C34   A    
C9    C15   A    
C26   N1    A    
C7    C8    A    
C16   C24   S    
C9    H18   S    
C8    C34   S    
C21   C22   S    
C25   C28   A    
C12   O3    A    
C11   C13   A    
C26   C27   A    
C29   C30   S    
C25   N1    A    
Cu2   O2    S    
C5    C6    A    
C13   H3    S    
C28   C29   S    
Cu1   O5    S    
Cu1   Cu2   S    
C19   H5    S    
C24   H20   S    
C17   C18   A    
C6    C7    A    
Cu2   O6    S    
C29   H12   S    
C1    O1    A    
C3    C8    A    
C33   H15   S    
C11   H2    S    
C32   H9    S    
C22   C24   S    
C7    C12   S    
C5    C15   S    
C4    C31   S    
C36   H16   S    
C10   C11   A    
C26   H8    S    
C3    C4    A    
C16   C17   A    
Cu2   O8    S    
C4    C5    A    
C22   H7    S    
C18   C19   A    
C20   C21   A    
C2    C32   A    
C34   C35   A    
C1    O2    A    
C2    C36   A    
C25   C30   S    
C31   O7    A    
C24   H19   S    
C14   C15   A    
C23   O6    A    
C29   H11   S    
C35   C36   A    
C30   H14   S    
C18   Br1   S    
C13   C14   A    
C3    H17   S    
C2    H1    S    
C22   H6    S    
C19   C20   A    
C35   H21   S    
C10   Br3   S    
C6    Br2   S    
Cu2   O4    S    
C27   N2    A    
Cu1   O7    S    
