data_mof_unit_24862.cif
_audit_creation_date              2012-12-10T18:11:51-0500
_audit_creation_method            fapswitch 2.2
_symmetry_space_group_name_H-M    P1
_symmetry_Int_Tables_number       1
_space_group_crystal_system       triclinic
_cell_length_a                    15.829974
_cell_length_b                    10.717346
_cell_length_c                    9.494619
_cell_angle_alpha                 90.33761
_cell_angle_beta                  89.143048
_cell_angle_gamma                 89.67763
_cell_volume                      1610.5780835

loop_
_atom_site_label
_atom_site_type_symbol
_atom_type_description
_atom_site_fract_x
_atom_site_fract_y
_atom_site_fract_z
_atom_type_partial_charge
C1    C     C_R   0.502374 0.259947 0.499365 0.769584
C2    C     C_3   0.082815 0.494040 0.502849 0.183488
C3    C     C_3   0.969947 0.574426 0.599549 -0.141519
C4    C     C_3   0.916951 0.494262 0.499853 0.187382
C5    C     C_3   0.027920 0.609474 0.473077 -0.183597
C6    C     C_3   0.973264 0.529403 0.373202 -0.231544
C7    C     C_1   0.174599 0.496077 0.504084 -0.015446
C8    C     C_1   0.825302 0.495632 0.498287 -0.077552
C9    C     C_3   0.585843 0.069727 0.567827 0.350445
C10   C     C_3   0.581144 0.925513 0.572829 -0.397280
C11   C     C_3   0.425132 0.072022 0.577954 -0.378378
C12   C     C_R   0.339997 0.499605 0.500967 0.816836
C13   C     C_3   0.502640 0.070926 0.343270 -0.462768
C14   C     C_3   0.504156 0.121498 0.497885 0.101537
C15   C     C_3   0.502319 0.877572 0.494746 0.124322
C16   C     C_3   0.419248 0.929727 0.560044 -0.418961
C17   C     C_3   0.507981 0.927688 0.341597 -0.408633
C18   C     C_3   0.518851 0.625434 0.087643 -0.299060
C19   C     C_3   0.516492 0.631068 0.920148 0.360213
C20   C     C_3   0.565350 0.411252 0.077028 0.440780
C21   C     C_3   0.418533 0.462960 0.085480 -0.353551
C22   C     C_3   0.566675 0.417051 0.910248 -0.381626
C23   C     C_R   0.500788 0.739798 0.499127 0.768580
C24   C     C_3   0.418170 0.460369 0.917998 0.461443
C25   C     C_R   0.659982 0.499323 0.499183 0.812234
C26   C     C_3   0.971304 0.378430 0.529645 -0.223296
C27   C     C_3   0.029008 0.414809 0.404400 0.072972
C28   C     C_1   0.250235 0.497872 0.503244 -0.190573
C29   C     C_1   0.749700 0.497330 0.497798 -0.204868
C30   C     C_3   0.026089 0.458832 0.629226 -0.181790
Cu1   Cu    Cu3+1 0.500040 0.499860 0.642410 0.966159
Cu2   Cu    Cu3+1 0.499960 0.500140 0.357590 0.927710
H1    H     H_    0.581085 0.892125 0.683054 0.178299
H2    H     H_    0.428961 0.095656 0.691883 0.218176
H3    H     H_    0.403298 0.884120 0.660341 0.199833
H4    H     H_    0.443333 0.101186 0.291481 0.190227
H5    H     H_    0.556572 0.108873 0.280605 0.174414
H6    H     H_    0.568178 0.896928 0.289693 0.163802
H7    H     H_    0.455296 0.890415 0.278430 0.171144
H8    H     H_    0.366717 0.116449 0.537201 0.147478
H9    H     H_    0.365772 0.907658 0.489349 0.165495
H10   H     H_    0.579155 0.662032 0.128180 0.120332
H11   H     H_    0.946984 0.283521 0.551965 0.126954
H12   H     H_    0.470405 0.688405 0.133907 0.184530
H13   H     H_    0.578350 0.665665 0.879286 0.070515
H14   H     H_    0.628892 0.440867 0.864646 0.159251
H15   H     H_    0.401056 0.370211 0.128396 0.174681
H16   H     H_    0.368269 0.528677 0.122934 0.155688
H17   H     H_    0.368748 0.527987 0.884729 0.112966
H18   H     H_    0.542441 0.315427 0.100939 0.110064
H19   H     H_    0.950530 0.557659 0.268006 0.133030
H20   H     H_    0.555059 0.321903 0.868933 0.218725
H21   H     H_    0.052229 0.704296 0.450216 0.134308
H22   H     H_    0.944092 0.640346 0.680097 0.130820
H23   H     H_    0.048794 0.430204 0.734329 0.128369
H24   H     H_    0.640118 0.095858 0.497385 0.041256
H25   H     H_    0.639115 0.885326 0.522086 0.095721
N1    N     N_3   0.501840 0.500250 0.143650 -0.180694
N2    N     N_3   0.501160 0.503300 0.856280 -0.183750
O1    O     O_R   0.500050 0.317570 0.620260 -0.521062
O2    O     O_R   0.499980 0.317810 0.379740 -0.596727
O3    O     O_R   0.379110 0.499870 0.620240 -0.575561
O4    O     O_R   0.379040 0.500110 0.379720 -0.578433
O5    O     O_R   0.500020 0.682190 0.620260 -0.545825
O6    O     O_R   0.499950 0.682430 0.379740 -0.611479
O7    O     O_R   0.620960 0.499890 0.620280 -0.606576
O8    O     O_R   0.620890 0.500130 0.379760 -0.524461
C31   C     C_2   0.059882 0.324479 0.294048 0.309872
H26   H     H_    0.014742 0.276259 0.228672 0.059092
O9    O     O_2   0.135305 0.304581 0.277102 -0.562809
O10   O     O_3   0.452059 0.716626 0.878465 -0.582977
C32   C     C_3   0.464771 0.840507 0.930007 0.050312
H27   H     H_    0.479598 0.904007 0.842655 0.175673
H28   H     H_    0.519446 0.850624 0.001548 0.063389
C33   C     C_3   0.384570 0.888357 0.006533 -0.360199
H29   H     H_    0.365928 0.822944 0.091433 0.200416
H30   H     H_    0.398055 0.980242 0.055895 0.176103
C34   C     C_3   0.309646 0.903607 0.908727 -0.808964
H31   H     H_    0.321045 0.981294 0.834336 0.235450
H32   H     H_    0.252133 0.926763 0.972195 0.236116
H33   H     H_    0.297998 0.815890 0.849429 0.270847
O11   O     O_3   0.646295 0.412317 0.141231 -0.590662
C35   C     C_3   0.706000 0.500034 0.089713 0.089856
H34   H     H_    0.727402 0.557603 0.179847 0.165676
H35   H     H_    0.681776 0.566913 0.011780 0.090178
C36   C     C_3   0.782971 0.430449 0.028342 -0.363105
H36   H     H_    0.814247 0.377281 0.113406 0.218777
H37   H     H_    0.762529 0.363082 0.946698 0.209621
C37   C     C_3   0.846482 0.519982 0.961826 -0.941604
H38   H     H_    0.817470 0.569736 0.872139 0.258143
H39   H     H_    0.902273 0.466662 0.921691 0.259223
H40   H     H_    0.867849 0.589247 0.040906 0.247322
O12   O     O_3   0.400522 0.337311 0.869485 -0.605404
C38   C     C_3   0.313513 0.316778 0.843948 0.038038
H41   H     H_    0.310079 0.251056 0.753390 0.167889
H42   H     H_    0.277727 0.401305 0.811647 0.128155
C39   C     C_3   0.270026 0.256815 0.971519 -0.376122
H43   H     H_    0.309079 0.177778 0.009483 0.231182
H44   H     H_    0.263074 0.326702 0.057713 0.236780
C40   C     C_3   0.182395 0.209022 0.934464 -0.864565
H45   H     H_    0.141315 0.287633 0.901476 0.247229
H46   H     H_    0.153112 0.163884 0.027966 0.277138
H47   H     H_    0.186861 0.139040 0.847881 0.240770
O13   O     O_3   0.594142 0.116496 0.707427 -0.618909
C41   C     C_3   0.677567 0.156892 0.734348 0.053391
H48   H     H_    0.675837 0.208215 0.835916 0.157748
H49   H     H_    0.700333 0.224141 0.653372 0.127847
C42   C     C_3   0.739508 0.047231 0.750038 -0.382324
H50   H     H_    0.712726 0.978456 0.825406 0.219179
H51   H     H_    0.749977 0.000249 0.646698 0.202062
C43   C     C_3   0.824708 0.091745 0.803618 -0.921435
H52   H     H_    0.852133 0.162010 0.730836 0.254419
H53   H     H_    0.868962 0.011284 0.809863 0.253789
H54   H     H_    0.817279 0.133748 0.910353 0.252642

loop_
_geom_bond_atom_site_label_1
_geom_bond_atom_site_label_2
_ccdc_geom_bond_type
Cu1   O7    S    
O12   C38   S    
C20   O11   S    
C19   O10   S    
C43   H52   S    
C25   O8    A    
Cu2   N1    S    
C4    C8    S    
C39   H43   S    
C41   H49   S    
C26   C27   S    
C12   C28   S    
C8    C29   T    
C5    H21   S    
Cu2   O2    S    
C10   C15   S    
C18   H10   S    
C16   H3    S    
C5    C6    S    
C11   C14   S    
C34   H32   S    
C15   C16   S    
C42   H50   S    
C15   C17   S    
C18   C19   S    
C17   H7    S    
Cu1   N2    S    
C20   H18   S    
C27   C31   S    
C2    C7    S    
C18   N1    S    
C24   N2    S    
C35   H34   S    
C31   H26   S    
C2    C27   S    
C6    H19   S    
C37   H39   S    
C9    C10   S    
C13   H5    S    
C21   H16   S    
C15   C23   S    
C13   C14   S    
Cu1   O3    S    
C38   H41   S    
C32   C33   S    
O13   C41   S    
C39   H44   S    
C26   H11   S    
C11   H2    S    
C25   C29   S    
C41   C42   S    
C10   H25   S    
C13   H4    S    
C4    C6    S    
C1    O1    A    
C22   N2    S    
C9    C14   S    
C36   H36   S    
C38   C39   S    
C19   N2    S    
C40   H47   S    
C7    C28   T    
Cu1   O1    S    
C3    C30   S    
C33   H29   S    
C18   H12   S    
C12   O3    A    
C11   C16   S    
C6    C27   S    
C40   H46   S    
C43   H53   S    
C9    H24   S    
C37   H40   S    
C38   H42   S    
C33   H30   S    
Cu2   O8    S    
C32   H28   S    
C23   O5    A    
C22   H14   S    
C20   C22   S    
C26   C30   S    
C2    C5    S    
C20   N1    S    
C3    C4    S    
C39   C40   S    
C22   H20   S    
C10   H1    S    
C41   H48   S    
C24   H17   S    
C12   O4    A    
C35   H35   S    
C34   H31   S    
Cu1   O5    S    
Cu1   Cu2   S    
C25   O7    A    
Cu2   O4    S    
C32   H27   S    
C3    C5    S    
C36   C37   S    
C1    O2    A    
C4    C26   S    
C19   H13   S    
C30   H23   S    
C42   C43   S    
C13   C17   S    
C2    C30   S    
C23   O6    A    
C21   N1    S    
C24   O12   S    
C34   H33   S    
C9    O13   S    
C40   H45   S    
C3    H22   S    
C42   H51   S    
C43   H54   S    
C36   H37   S    
C17   H6    S    
C11   H8    S    
C33   C34   S    
O10   C32   S    
C35   C36   S    
C31   O9    D    
O11   C35   S    
C21   C24   S    
C1    C14   S    
C37   H38   S    
C16   H9    S    
Cu2   O6    S    
C21   H15   S    
