data_mof_unit_12051.cif
_audit_creation_date              2012-12-11T15:07:04-0500
_audit_creation_method            fapswitch 2.2
_symmetry_space_group_name_H-M    P1
_symmetry_Int_Tables_number       1
_space_group_crystal_system       triclinic
_cell_length_a                    19.582866
_cell_length_b                    11.428289
_cell_length_c                    18.700997
_cell_angle_alpha                 89.999958
_cell_angle_beta                  89.533551
_cell_angle_gamma                 90.000034
_cell_volume                      4185.11922898

loop_
_atom_site_label
_atom_site_type_symbol
_atom_type_description
_atom_site_fract_x
_atom_site_fract_y
_atom_site_fract_z
_atom_type_partial_charge
C1    C     C_R   0.761382 0.524828 0.639501 0.534156
C2    C     C_3   0.254476 0.060633 0.563644 0.041140
C3    C     C_R   0.740806 0.035125 0.151917 0.540834
C4    C     C_R   0.773625 0.130829 0.858170 0.529946
C5    C     C_R   0.226376 0.130827 0.141831 0.529942
C6    C     C_R   0.273460 0.631579 0.858702 0.531069
C7    C     C_R   0.726540 0.631578 0.141298 0.531070
C8    C     C_R   0.947470 0.356746 0.860945 0.527803
C9    C     C_R   0.052544 0.356749 0.139052 0.527784
C10   C     C_R   0.467346 0.853982 0.854297 0.534793
C11   C     C_R   0.532649 0.853981 0.145705 0.534790
C12   C     C_3   0.685014 0.134994 0.464485 -0.211271
C13   C     C_3   0.245523 0.560634 0.436355 0.041280
C14   C     C_3   0.314985 0.134994 0.535515 -0.211271
C15   C     C_3   0.185015 0.634995 0.464483 -0.211304
C16   C     C_3   0.814985 0.634995 0.535517 -0.211304
C17   C     C_3   0.695231 0.161366 0.544134 -0.042148
C18   C     C_3   0.304768 0.161366 0.455866 -0.042149
C19   C     C_3   0.195232 0.661367 0.544132 -0.042160
C20   C     C_3   0.804768 0.661367 0.455868 -0.042160
C21   C     C_3   0.752220 0.946167 0.481111 -0.231634
C22   C     C_3   0.247779 0.946167 0.518889 -0.231632
C23   C     C_3   0.252220 0.446167 0.481110 -0.231650
C24   C     C_3   0.754476 0.560634 0.563645 0.041281
C25   C     C_3   0.747779 0.446167 0.518891 -0.231649
C26   C     C_3   0.758112 0.093865 0.574403 0.060800
C27   C     C_3   0.241887 0.093866 0.425598 0.060800
C28   C     C_3   0.258113 0.593866 0.574401 0.060701
C29   C     C_3   0.741886 0.593866 0.425599 0.060701
C30   C     C_3   0.745456 0.964937 0.561921 -0.264862
C31   C     C_3   0.254544 0.964938 0.438080 -0.264861
C32   C     C_3   0.245456 0.464938 0.561919 -0.264789
C33   C     C_R   0.238618 0.524827 0.360500 0.534155
C34   C     C_3   0.754544 0.464938 0.438082 -0.264787
C35   C     C_3   0.822947 0.131023 0.529988 -0.249057
C36   C     C_3   0.177052 0.131023 0.470012 -0.249058
C37   C     C_3   0.322948 0.631023 0.529986 -0.249009
C38   C     C_3   0.677051 0.631024 0.470014 -0.249010
C39   C     C_3   0.005021 0.200390 0.458805 -0.225304
C40   C     C_3   0.994979 0.200390 0.541195 -0.225303
C41   C     C_3   0.505021 0.700389 0.458805 -0.225128
C42   C     C_3   0.494979 0.700389 0.541195 -0.225128
C43   C     C_3   0.063690 0.400793 0.473156 -0.217821
C44   C     C_R   0.261382 0.024827 0.639500 0.534349
C45   C     C_3   0.936309 0.400793 0.526843 -0.217820
C46   C     C_3   0.563690 0.900793 0.473158 -0.216957
C47   C     C_3   0.436309 0.900793 0.526842 -0.216957
C48   C     C_3   0.939996 0.379387 0.446237 -0.265413
C49   C     C_3   0.060004 0.379387 0.553762 -0.265413
C50   C     C_3   0.439996 0.879385 0.446236 -0.265955
C51   C     C_3   0.560003 0.879386 0.553763 -0.265954
C52   C     C_3   0.009878 0.328254 0.430655 0.050498
C53   C     C_3   0.990121 0.328254 0.569344 0.050499
C54   C     C_3   0.509879 0.828253 0.430656 0.051988
C55   C     C_R   0.738617 0.024827 0.360500 0.534349
C56   C     C_3   0.490120 0.828253 0.569344 0.051986
C57   C     C_3   0.812261 0.997378 0.041721 -0.031423
C58   C     C_3   0.187742 0.997378 0.958279 -0.031424
C59   C     C_3   0.312810 0.501466 0.042619 -0.029468
C60   C     C_3   0.687190 0.501465 0.957382 -0.029465
C61   C     C_R   0.773725 0.121577 0.649651 0.548483
C62   C     C_R   0.226275 0.121577 0.350349 0.548484
C63   C     C_R   0.273726 0.621577 0.649650 0.548625
C64   C     C_R   0.726274 0.621578 0.350350 0.548626
C65   C     C_3   0.819113 0.018000 0.962414 -0.199045
C66   C     C_3   0.809859 0.132694 0.448974 -0.274173
C67   C     C_3   0.180890 0.017997 0.037586 -0.199050
C68   C     C_3   0.320363 0.527704 0.964283 -0.198956
C69   C     C_3   0.679637 0.527706 0.035717 -0.198958
C70   C     C_3   0.684376 0.037435 0.033856 -0.246818
C71   C     C_3   0.315628 0.037451 0.966143 -0.246823
C72   C     C_3   0.185281 0.535899 0.036616 -0.245740
C73   C     C_3   0.814719 0.535889 0.963384 -0.245738
C74   C     C_3   0.766975 0.196898 0.061024 -0.263567
C75   C     C_3   0.233022 0.196899 0.938976 -0.263570
C76   C     C_3   0.264016 0.700130 0.061894 -0.264594
C77   C     C_3   0.190140 0.132694 0.551027 -0.274174
C78   C     C_3   0.735989 0.700129 0.938107 -0.264593
C79   C     C_3   0.751494 0.068335 0.075073 0.056456
C80   C     C_3   0.248507 0.068338 0.924926 0.056457
C81   C     C_3   0.251850 0.571013 0.076568 0.057988
C82   C     C_3   0.748151 0.571010 0.923432 0.057991
C83   C     C_3   0.761314 0.100570 0.935368 0.040576
C84   C     C_3   0.238688 0.100569 0.064632 0.040576
C85   C     C_3   0.259989 0.602573 0.936471 0.034806
C86   C     C_3   0.740012 0.602570 0.063529 0.034806
C87   C     C_3   0.694473 0.036062 0.951344 -0.276003
C88   C     C_3   0.309860 0.632694 0.448972 -0.274338
C89   C     C_3   0.305530 0.036062 0.048653 -0.276009
C90   C     C_3   0.195223 0.531689 0.953440 -0.277415
C91   C     C_3   0.804777 0.531682 0.046560 -0.277415
C92   C     C_3   0.759123 0.215831 0.979458 -0.234461
C93   C     C_3   0.240875 0.215830 0.020543 -0.234462
C94   C     C_3   0.253179 0.717939 0.980637 -0.232644
C95   C     C_3   0.746825 0.717936 0.019363 -0.232647
C96   C     C_3   0.006524 0.482353 0.039894 -0.223157
C97   C     C_3   0.993483 0.482351 0.960104 -0.223159
C98   C     C_3   0.506713 0.981910 0.039932 -0.220703
C99   C     C_3   0.690139 0.632695 0.551028 -0.274339
C100  C     C_3   0.493289 0.981907 0.960067 -0.220720
C101  C     C_3   0.073510 0.297570 0.009640 -0.270113
C102  C     C_3   0.926500 0.297564 0.990358 -0.270105
C103  C     C_3   0.564007 0.780420 0.025043 -0.220050
C104  C     C_3   0.435984 0.780431 0.974964 -0.220056
C105  C     C_3   0.959400 0.284131 0.063818 -0.219265
C106  C     C_3   0.040611 0.284129 0.936181 -0.219276
C107  C     C_3   0.441823 0.802032 0.056294 -0.262120
C108  C     C_3   0.558167 0.802020 0.943712 -0.262125
C109  C     C_R   0.969803 0.341398 0.645500 0.540271
C110  C     C_3   0.745523 0.060633 0.436356 0.041139
C111  C     C_R   0.030197 0.341398 0.354499 0.540275
C112  C     C_R   0.469801 0.841398 0.645498 0.534405
C113  C     C_R   0.530198 0.841398 0.354501 0.534403
C114  C     C_3   0.024526 0.356137 0.065085 0.044799
C115  C     C_3   0.975485 0.356134 0.934914 0.044799
C116  C     C_3   0.511706 0.854741 0.069133 0.049377
C117  C     C_3   0.488288 0.854740 0.930871 0.049352
C118  C     C_R   0.758518 0.537329 0.846860 0.537750
C119  C     C_R   0.241482 0.537330 0.153140 0.537747
C120  C     C_R   0.259194 0.035127 0.848082 0.540832
Cr1   Cr    Cr6+3 0.885690 0.492860 0.745310 1.027711
Cr2   Cr    Cr6+3 0.111880 0.178590 0.246990 1.031527
Cr3   Cr    Cr6+3 0.388120 0.678590 0.753010 1.033244
Cr4   Cr    Cr6+3 0.611880 0.678590 0.246990 1.033242
Cr5   Cr    Cr6+3 0.114310 0.492860 0.254690 1.027710
Cr6   Cr    Cr6+3 0.385690 0.992860 0.745310 1.029949
Cr7   Cr    Cr6+3 0.614310 0.992860 0.254690 1.029950
Cr8   Cr    Cr6+3 0.729880 0.332270 0.748190 1.068596
Cr9   Cr    Cr6+3 0.270120 0.332270 0.251810 1.068594
Cr10  Cr    Cr6+3 0.229880 0.832270 0.748190 1.072096
Cr11  Cr    Cr6+3 0.770120 0.832270 0.251810 1.072097
Cr12  Cr    Cr6+3 0.888120 0.178590 0.753010 1.031526
H1    H     H_    0.637217 0.089438 0.456873 0.157703
H2    H     H_    0.194344 0.916843 0.527846 0.155427
H3    H     H_    0.534621 0.030763 0.931937 0.133989
H4    H     H_    0.615075 0.792430 0.044125 0.106334
H5    H     H_    0.384919 0.792452 0.955887 0.106322
H6    H     H_    0.116817 0.351007 0.997312 0.106529
H7    H     H_    0.883192 0.350993 0.002686 0.106526
H8    H     H_    0.598529 0.861592 0.924275 0.107814
H9    H     H_    0.401461 0.861615 0.075730 0.107804
H10   H     H_    0.076223 0.311048 0.892345 0.128755
H11   H     H_    0.923786 0.311056 0.107652 0.128766
H12   H     H_    0.973682 0.192418 0.072423 0.193734
H13   H     H_    0.305655 0.416842 0.472153 0.155514
H14   H     H_    0.026327 0.192414 0.927581 0.193729
H15   H     H_    0.436472 0.720863 0.086975 0.166796
H16   H     H_    0.563509 0.720852 0.913036 0.166815
H17   H     H_    0.909367 0.212949 0.970538 0.143785
H18   H     H_    0.090646 0.212956 0.029462 0.143780
H19   H     H_    0.449022 0.687649 0.965104 0.166119
H20   H     H_    0.550957 0.687634 0.034903 0.166129
H21   H     H_    0.716748 0.878994 0.463691 0.095840
H22   H     H_    0.283251 0.878995 0.536309 0.095841
H23   H     H_    0.216748 0.378995 0.463690 0.095989
H24   H     H_    0.694344 0.416843 0.527848 0.155514
H25   H     H_    0.783250 0.378995 0.536311 0.095989
H26   H     H_    0.694011 0.940379 0.581649 0.132879
H27   H     H_    0.305990 0.940380 0.418352 0.132878
H28   H     H_    0.194011 0.440380 0.581647 0.133204
H29   H     H_    0.805990 0.440381 0.418354 0.133204
H30   H     H_    0.854200 0.094809 0.419765 0.143745
H31   H     H_    0.145800 0.094810 0.580236 0.143745
H32   H     H_    0.354200 0.594809 0.419763 0.143477
H33   H     H_    0.645799 0.594811 0.580237 0.143477
H34   H     H_    0.802118 0.223306 0.429516 0.106472
H35   H     H_    0.783335 0.910212 0.590641 0.123300
H36   H     H_    0.197882 0.223307 0.570484 0.106472
H37   H     H_    0.302119 0.723307 0.429514 0.106217
H38   H     H_    0.697881 0.723308 0.570486 0.106217
H39   H     H_    0.842625 0.216029 0.547633 0.111113
H40   H     H_    0.157373 0.216029 0.452367 0.111113
H41   H     H_    0.342626 0.716029 0.547631 0.111133
H42   H     H_    0.657372 0.716029 0.452369 0.111133
H43   H     H_    0.216665 0.910212 0.409359 0.123300
H44   H     H_    0.283335 0.410213 0.590639 0.123442
H45   H     H_    0.716665 0.410212 0.409361 0.123442
H46   H     H_    0.049176 0.149609 0.442748 0.138944
H47   H     H_    0.950824 0.149610 0.557252 0.138945
H48   H     H_    0.549176 0.649608 0.442748 0.139162
H49   H     H_    0.362782 0.089439 0.543127 0.157703
H50   H     H_    0.450824 0.649608 0.557252 0.139163
H51   H     H_    0.962054 0.153693 0.433345 0.119330
H52   H     H_    0.037946 0.153693 0.566654 0.119330
H53   H     H_    0.462054 0.653693 0.433345 0.119004
H54   H     H_    0.537946 0.653693 0.566655 0.119004
H55   H     H_    0.614744 0.887942 0.451706 0.109235
H56   H     H_    0.385255 0.887941 0.548294 0.109234
H57   H     H_    0.114743 0.387941 0.451704 0.109013
H58   H     H_    0.885256 0.387940 0.548296 0.109012
H59   H     H_    0.600909 0.819823 0.571251 0.105731
H60   H     H_    0.137218 0.589439 0.456871 0.157653
H61   H     H_    0.399090 0.819822 0.428749 0.105730
H62   H     H_    0.100910 0.319824 0.571249 0.106237
H63   H     H_    0.899089 0.319823 0.428750 0.106237
H64   H     H_    0.933065 0.460496 0.416497 0.176030
H65   H     H_    0.066934 0.460496 0.583502 0.176030
H66   H     H_    0.433067 0.960494 0.416496 0.175754
H67   H     H_    0.566933 0.960494 0.583504 0.175755
H68   H     H_    0.949933 0.493927 0.535055 0.166595
H69   H     H_    0.050066 0.493927 0.464945 0.166596
H70   H     H_    0.449933 0.993927 0.535053 0.166758
H71   H     H_    0.862781 0.589439 0.543129 0.157653
H72   H     H_    0.550066 0.993927 0.464946 0.166758
H73   H     H_    0.797834 0.909161 0.049856 0.144402
H74   H     H_    0.202172 0.909163 0.950143 0.144403
H75   H     H_    0.296881 0.412704 0.047474 0.142804
H76   H     H_    0.703119 0.412702 0.952530 0.142800
H77   H     H_    0.680620 0.217802 0.433701 0.114905
H78   H     H_    0.319379 0.217801 0.566299 0.114905
H79   H     H_    0.180621 0.717802 0.433699 0.114808
H80   H     H_    0.819378 0.717802 0.566301 0.114808
H81   H     H_    0.870736 0.050561 0.950489 0.177662
H82   H     H_    0.861983 0.062587 0.539485 0.144587
H83   H     H_    0.129267 0.050559 0.049511 0.177667
H84   H     H_    0.368584 0.573568 0.955689 0.171305
H85   H     H_    0.631417 0.573577 0.044307 0.171300
H86   H     H_    0.816944 0.932910 0.933818 0.115479
H87   H     H_    0.183058 0.932907 0.066182 0.115478
H88   H     H_    0.324410 0.443937 0.934026 0.127953
H89   H     H_    0.675585 0.443941 0.065976 0.127962
H90   H     H_    0.662639 0.954912 0.052712 0.112792
H91   H     H_    0.337382 0.954948 0.947278 0.112810
H92   H     H_    0.166877 0.455197 0.060820 0.104246
H93   H     H_    0.138016 0.062588 0.460516 0.144587
H94   H     H_    0.833115 0.455178 0.939181 0.104247
H95   H     H_    0.697959 0.945115 0.931207 0.109567
H96   H     H_    0.302043 0.945112 0.068780 0.109572
H97   H     H_    0.200720 0.440522 0.933945 0.110509
H98   H     H_    0.799280 0.440514 0.066053 0.110509
H99   H     H_    0.730798 0.253949 0.091106 0.110788
H100  H     H_    0.269197 0.253953 0.908894 0.110784
H101  H     H_    0.227663 0.754451 0.093400 0.111727
H102  H     H_    0.772344 0.754448 0.906601 0.111729
H103  H     H_    0.819221 0.218547 0.078782 0.143077
H104  H     H_    0.361984 0.562587 0.539483 0.144577
H105  H     H_    0.180776 0.218544 0.921218 0.143080
H106  H     H_    0.316110 0.724699 0.077722 0.137699
H107  H     H_    0.683896 0.724706 0.922279 0.137697
H108  H     H_    0.793879 0.281518 0.957548 0.096619
H109  H     H_    0.206119 0.281511 0.042456 0.096621
H110  H     H_    0.283269 0.789401 0.958948 0.096598
H111  H     H_    0.716736 0.789399 0.041050 0.096594
H112  H     H_    0.706252 0.246232 0.973041 0.141503
H113  H     H_    0.293744 0.246237 0.026959 0.141501
H114  H     H_    0.198819 0.742648 0.975648 0.141880
H115  H     H_    0.638016 0.562587 0.460517 0.144576
H116  H     H_    0.801186 0.742643 0.024354 0.141882
H117  H     H_    0.647557 0.108138 0.046939 0.139404
H118  H     H_    0.352439 0.108172 0.953067 0.139404
H119  H     H_    0.146658 0.603837 0.049045 0.139590
H120  H     H_    0.853345 0.603821 0.950953 0.139594
H121  H     H_    0.711023 0.249056 0.547958 0.144887
H122  H     H_    0.288976 0.249056 0.452042 0.144887
H123  H     H_    0.211024 0.749057 0.547956 0.144707
H124  H     H_    0.788975 0.749057 0.452044 0.144707
H125  H     H_    0.650824 0.079599 0.924640 0.133630
H126  H     H_    0.805655 0.916842 0.472155 0.155427
H127  H     H_    0.349180 0.079592 0.075360 0.133628
H128  H     H_    0.150562 0.571147 0.926400 0.132653
H129  H     H_    0.849439 0.571137 0.073600 0.132651
H130  H     H_    0.046274 0.546646 0.051988 0.133326
H131  H     H_    0.953731 0.546641 0.948011 0.133329
H132  H     H_    0.552815 0.031596 0.050500 0.138893
H133  H     H_    0.447191 0.031596 0.949497 0.138901
H134  H     H_    0.960162 0.513483 0.068657 0.143487
H135  H     H_    0.039845 0.513484 0.931341 0.143484
H136  H     H_    0.465382 0.030779 0.068061 0.133986
I1    I     I_    0.912089 0.984936 0.090390 -0.424733
I2    I     I_    0.087914 0.984931 0.909613 -0.424738
I3    I     I_    0.413246 0.487385 0.090746 -0.423486
I4    I     I_    0.586755 0.487385 0.909253 -0.423480
I5    I     I_    0.600642 0.184288 0.602628 -0.416752
I6    I     I_    0.399358 0.184289 0.397373 -0.416753
I7    I     I_    0.100641 0.684294 0.602622 -0.414962
I8    I     I_    0.899358 0.684295 0.397378 -0.414961
O1    O     O_R   0.957210 0.449410 0.665480 -0.503139
O2    O     O_R   0.167480 0.095300 0.164000 -0.529605
O3    O     O_R   0.332520 0.595300 0.836000 -0.525046
O4    O     O_R   0.667480 0.595300 0.164000 -0.525045
O5    O     O_R   0.946380 0.253940 0.826940 -0.494670
O6    O     O_R   0.053620 0.253940 0.173060 -0.494663
O7    O     O_R   0.446380 0.753940 0.826940 -0.496564
O8    O     O_R   0.553620 0.753940 0.173060 -0.496567
O9    O     O_3   0.834560 0.334570 0.748840 -0.306964
O10   O     O_3   0.165440 0.334570 0.251160 -0.306971
O11   O     O_3   0.334560 0.834570 0.748840 -0.298968
O12   O     O_R   0.042790 0.449410 0.334520 -0.503139
O13   O     O_3   0.665440 0.834570 0.251160 -0.298966
O14   O     O_R   0.820730 0.541240 0.668250 -0.514437
O15   O     O_R   0.179270 0.541240 0.331750 -0.514437
O16   O     O_R   0.320730 0.041240 0.668250 -0.514285
O17   O     O_R   0.679270 0.041240 0.331750 -0.514285
O18   O     O_R   0.714240 0.455060 0.663710 -0.502451
O19   O     O_R   0.285760 0.455060 0.336290 -0.502450
O20   O     O_R   0.214240 0.955060 0.663710 -0.502495
O21   O     O_R   0.785760 0.955060 0.336290 -0.502494
O22   O     O_R   0.736780 0.204870 0.675910 -0.479028
O23   O     O_R   0.457210 0.949410 0.665480 -0.505842
O24   O     O_R   0.263220 0.204870 0.324090 -0.479028
O25   O     O_R   0.236780 0.704870 0.675910 -0.479564
O26   O     O_R   0.763220 0.704870 0.324090 -0.479563
O27   O     O_R   0.833070 0.087590 0.673490 -0.526663
O28   O     O_R   0.166930 0.087590 0.326510 -0.526663
O29   O     O_R   0.333070 0.587590 0.673490 -0.526482
O30   O     O_R   0.666930 0.587590 0.326510 -0.526482
O31   O     O_R   0.946890 0.246800 0.676300 -0.506255
O32   O     O_R   0.053110 0.246800 0.323700 -0.506253
O33   O     O_R   0.446890 0.746800 0.676300 -0.509479
O34   O     O_R   0.542790 0.949410 0.334520 -0.505843
O35   O     O_R   0.553110 0.746800 0.323700 -0.509480
O36   O     O_R   0.956650 0.457120 0.827980 -0.514840
O37   O     O_R   0.043350 0.457120 0.172020 -0.514832
O38   O     O_R   0.456650 0.957120 0.827980 -0.521003
O39   O     O_R   0.543350 0.957120 0.172020 -0.521001
O40   O     O_R   0.820220 0.548390 0.818890 -0.521906
O41   O     O_R   0.179780 0.548390 0.181110 -0.521912
O42   O     O_R   0.320220 0.048390 0.818890 -0.513171
O43   O     O_R   0.679780 0.048390 0.181110 -0.513168
O44   O     O_R   0.713680 0.462770 0.826210 -0.482003
O45   O     O_R   0.736260 0.212010 0.826560 -0.493267
O46   O     O_R   0.286320 0.462770 0.173790 -0.482004
O47   O     O_R   0.213680 0.962770 0.826210 -0.482427
O48   O     O_R   0.786320 0.962770 0.173790 -0.482427
O49   O     O_R   0.263740 0.212010 0.173440 -0.493267
O50   O     O_R   0.236260 0.712010 0.826560 -0.491808
O51   O     O_R   0.763740 0.712010 0.173440 -0.491808
O52   O     O_R   0.832520 0.095300 0.836000 -0.529604

loop_
_geom_bond_atom_site_label_1
_geom_bond_atom_site_label_2
_ccdc_geom_bond_type
C23   H23   S    
Cr11  O26   S    
C89   H127  S    
C34   H29   S    
C3    C79   S    
C21   C110  S    
C50   H66   S    
Cr7   O13   S    
C77   H36   S    
Cr8   O18   S    
C6    C85   S    
C1    O18   A    
Cr2   O28   S    
C9    C114  S    
C68   H88   S    
Cr1   O1    S    
Cr3   O3    S    
C72   H92   S    
Cr10  O20   S    
C74   C92   S    
C41   H48   S    
C76   C94   S    
C43   H69   S    
C96   H130  S    
C90   H97   S    
C3    O43   A    
C97   C115  S    
C64   O30   A    
C100  H3    S    
C25   C34   S    
C73   H120  S    
Cr12  O5    S    
C29   C64   S    
C90   H128  S    
C96   C114  S    
C11   O8    A    
C106  H10   S    
C96   H134  S    
C112  O23   A    
C91   H98   S    
C27   C31   S    
C28   C32   S    
C66   H34   S    
Cr10  O11   S    
C35   C66   S    
C118  O44   A    
C119  O41   A    
C45   H68   S    
C20   I8    S    
C13   C33   S    
C78   C82   S    
C57   I1    S    
C72   H119  S    
C16   C20   S    
C119  O46   A    
C66   C110  S    
C70   H117  S    
C33   O19   A    
C93   H113  S    
C103  H20   S    
C19   H123  S    
C74   C79   S    
Cr10  O25   S    
C82   C118  S    
Cr12  O31   S    
Cr6   O38   S    
C39   H46   S    
C75   C93   S    
Cr6   O42   S    
C104  C117  S    
C53   C109  S    
C58   I2    S    
C5    O49   A    
C88   H37   S    
C70   C79   S    
C74   H99   S    
C17   I5    S    
C85   C90   S    
C81   C119  S    
C61   O27   A    
C106  C115  S    
C36   C77   S    
C103  C116  S    
Cr1   O36   S    
C49   C53   S    
C69   H89   S    
C84   C93   S    
C2    C14   S    
C35   H82   S    
C86   C95   S    
C97   H131  S    
C102  H17   S    
C28   C63   S    
C98   H132  S    
C26   C35   S    
C48   C52   S    
C44   O20   A    
C21   H21   S    
C34   H45   S    
C100  C117  S    
C104  C107  S    
C108  H16   S    
Cr7   O39   S    
C36   H93   S    
Cr4   O30   S    
C87   H125  S    
C12   C110  S    
Cr4   O4    S    
C49   H65   S    
C18   H122  S    
C113  O35   A    
C12   H77   S    
C59   C68   S    
C50   H61   S    
C43   C52   S    
C38   H42   S    
C7    C86   S    
Cr9   O19   S    
C4    O52   A    
C13   C23   S    
Cr4   O35   S    
C6    O50   A    
C97   H135  S    
C98   H136  S    
Cr12  O27   S    
C29   C38   S    
C111  O12   A    
C107  H9    S    
Cr11  O48   S    
C91   H129  S    
Cr7   O17   S    
C45   C53   S    
C25   H24   S    
Cr2   O32   S    
C68   C85   S    
C70   C87   S    
Cr2   O2    S    
C47   C50   S    
C9    O37   A    
Cr4   O8    S    
C36   H40   S    
Cr11  O13   S    
C59   I3    S    
C39   C40   S    
C5    C84   S    
Cr6   O23   S    
C88   H32   S    
C46   C51   S    
C47   H70   S    
C103  H4    S    
C2    C22   S    
C27   C62   S    
C72   C90   S    
C58   C67   S    
Cr12  O9    S    
C78   H102  S    
C8    O36   A    
C19   C28   S    
Cr5   O15   S    
Cr6   O16   S    
C26   C30   S    
C48   H63   S    
C7    O51   A    
C4    O45   A    
C89   H96   S    
C51   H59   S    
C59   H75   S    
C101  C106  S    
C118  O40   A    
C92   H108  S    
C104  H5    S    
C108  C117  S    
C5    O2    A    
Cr11  O51   S    
C109  O31   A    
C62   O28   A    
C67   H87   S    
C10   C117  S    
C93   H109  S    
C60   C69   S    
C9    O6    A    
C112  O33   A    
C75   H100  S    
C107  C116  S    
C55   O17   A    
C45   H58   S    
Cr12  O52   S    
C1    C24   S    
C99   H33   S    
C74   H103  S    
C47   C56   S    
C18   I6    S    
C83   C87   S    
C78   H107  S    
C35   H39   S    
C41   C42   S    
C37   C88   S    
C105  H12   S    
C99   H38   S    
C42   H50   S    
Cr1   O40   S    
C15   C19   S    
C50   C54   S    
C69   H85   S    
Cr1   O14   S    
C26   C61   S    
Cr8   O9    S    
C86   C91   S    
C73   H94   S    
C49   H62   S    
C58   H74   S    
C101  H18   S    
Cr8   O45   S    
C66   H30   S    
C102  C105  S    
C76   H106  S    
C14   C18   S    
Cr5   O41   S    
C102  C115  S    
C42   C56   S    
Cr10  O50   S    
C55   O21   A    
Cr7   O43   S    
Cr8   O44   S    
C12   C17   S    
C46   H55   S    
C72   C81   S    
C58   C80   S    
C46   H72   S    
C101  C114  S    
C6    O3    A    
C20   H124  S    
C64   O26   A    
Cr4   O13   S    
C60   H76   S    
C29   C34   S    
C10   O7    A    
C40   H47   S    
C107  H15   S    
C109  O1    A    
C78   C95   S    
C46   C54   S    
Cr3   O33   S    
Cr1   O9    S    
C11   C116  S    
Cr2   O6    S    
Cr3   O11   S    
C10   O38   A    
C87   H95   S    
C75   H105  S    
C7    O4    A    
C73   C82   S    
C14   H49   S    
Cr10  O47   S    
C45   C48   S    
Cr7   O34   S    
Cr5   O10   S    
Cr9   O49   S    
C59   C81   S    
C57   C65   S    
C38   C99   S    
C30   H35   S    
C101  H6    S    
C27   C36   S    
C21   C30   S    
C113  O34   A    
C23   C32   S    
C2    C77   S    
C4    C83   S    
C70   H90   S    
C1    O14   A    
Cr2   O10   S    
C68   H84   S    
Cr11  O21   S    
C39   H51   S    
C40   H52   S    
C77   H31   S    
C15   H60   S    
C80   C120  S    
C24   C99   S    
C62   O24   A    
C57   C79   S    
C67   H83   S    
C63   O29   A    
C31   H43   S    
C65   H81   S    
C83   C92   S    
C23   H13   S    
C17   H121  S    
C22   H2    S    
C17   C26   S    
C28   C37   S    
C104  H19   S    
Cr9   O10   S    
C65   H86   S    
C21   H126  S    
C65   C83   S    
C120  O47   A    
C100  H133  S    
C54   C113  S    
C57   H73   S    
C51   C56   S    
C32   H44   S    
C15   H79   S    
C8    C115  S    
C60   C82   S    
C19   I7    S    
C103  C108  S    
C120  O42   A    
C16   H71   S    
C75   C80   S    
C71   H118  S    
C42   H54   S    
C39   C52   S    
Cr5   O12   S    
C67   C84   S    
C16   C24   S    
Cr6   O11   S    
C48   H64   S    
C71   C80   S    
C33   O15   A    
C20   C29   S    
C111  O32   A    
C41   C54   S    
C71   H91   S    
C22   C31   S    
C14   H78   S    
C105  C114  S    
C16   H80   S    
C24   C25   S    
C73   C91   S    
Cr5   O37   S    
C2    C44   S    
C108  H8    S    
C43   C49   S    
C52   C111  S    
C95   H116  S    
C94   H114  S    
C85   C94   S    
C98   C116  S    
C3    O48   A    
C71   C89   S    
C96   C97   S    
C41   H53   S    
C60   I4    S    
C76   H101  S    
C51   H67   S    
C63   O25   A    
C12   H1    S    
C13   C15   S    
C55   C110  S    
C25   H25   S    
C84   C89   S    
C37   H104  S    
C22   H22   S    
C30   H26   S    
C61   O22   A    
C44   O16   A    
C18   C27   S    
C76   C81   S    
C105  H11   S    
Cr8   O22   S    
Cr9   O24   S    
C98   C100  S    
C106  H14   S    
Cr3   O29   S    
Cr9   O46   S    
C94   H110  S    
Cr3   O7    S    
C8    O5    A    
C92   H112  S    
C11   O39   A    
C38   H115  S    
C13   C88   S    
C102  H7    S    
C37   H41   S    
C43   H57   S    
C40   C53   S    
C47   H56   S    
C56   C112  S    
C31   H27   S    
C69   C86   S    
C95   H111  S    
C32   H28   S    
