data_mof_unit_13336.cif
_audit_creation_date              2013-03-05T16:06:17-0500
_audit_creation_method            fapswitch 2.2
_symmetry_space_group_name_H-M    P1
_symmetry_Int_Tables_number       1
_space_group_crystal_system       triclinic
_cell_length_a                    10.825103
_cell_length_b                    9.628222
_cell_length_c                    27.803181
_cell_angle_alpha                 89.658988
_cell_angle_beta                  93.156501
_cell_angle_gamma                 89.963913
_cell_volume                      2893.37910098

loop_
_atom_site_label
_atom_site_type_symbol
_atom_site_description
_atom_site_fract_x
_atom_site_fract_y
_atom_site_fract_z
_atom_type_partial_charge
O1    O     O_R   0.319640 0.618740 0.500000 -0.597986
O2    O     O_R   0.680360 0.381260 0.500000 -0.610901
O3    O     O_R   0.680360 0.618740 0.500000 -0.597341
O4    O     O_R   0.319640 0.381260 0.500000 -0.610035
C1    C     C_R   0.262388 0.499957 0.499962 0.787364
C2    C     C_R   0.737602 0.499903 0.499985 0.787639
O5    O     O_R   0.500020 0.618770 0.430260 -0.607709
O6    O     O_R   0.499980 0.381230 0.569740 -0.597007
O7    O     O_R   0.499980 0.618770 0.569740 -0.607273
O8    O     O_R   0.500020 0.381230 0.430260 -0.590461
C3    C     C_R   0.499121 0.500525 0.407566 0.800967
C4    C     C_R   0.499404 0.499797 0.592459 0.800226
Cu1   Cu    Cu3+1 0.500000 0.640660 0.500000 0.932408
Cu2   Cu    Cu3+1 0.500000 0.359340 0.500000 0.933042
C5    C     C_R   0.387620 0.469999 0.175991 0.520656
C6    C     C_R   0.596101 0.541135 0.823822 0.518066
O9    O     O_2   0.286048 0.432352 0.198928 -0.535399
O10   O     O_2   0.700243 0.568560 0.800955 -0.534432
N1    N     N_R   0.492653 0.508183 0.202092 -0.470915
N2    N     N_R   0.489217 0.509943 0.797682 -0.471830
C7    C     C_R   0.597613 0.545508 0.180124 0.521997
C8    C     C_R   0.381638 0.483529 0.819552 0.524111
C9    C     C_R   0.518157 0.384907 0.278866 -0.131342
C10   C     C_R   0.473121 0.626415 0.719544 -0.126216
C11   C     C_R   0.519572 0.381537 0.328908 -0.184639
C12   C     C_R   0.477113 0.625196 0.669677 -0.207222
C13   C     C_R   0.471290 0.627509 0.329316 -0.207038
C14   C     C_R   0.512540 0.376541 0.672152 -0.203264
C15   C     C_R   0.468189 0.632323 0.278646 0.140498
C16   C     C_R   0.511505 0.376657 0.722837 0.135193
C17   C     C_R   0.492858 0.508834 0.253666 0.332089
C18   C     C_R   0.490503 0.503777 0.746195 0.335366
C19   C     C_R   0.491485 0.510090 0.101885 -0.043147
C20   C     C_R   0.488968 0.514446 0.897828 -0.043469
C21   C     C_R   0.384979 0.470509 0.125444 -0.019768
C22   C     C_R   0.598070 0.543591 0.874326 -0.019209
C23   C     C_R   0.278487 0.432132 0.098219 -0.150458
C24   C     C_R   0.706900 0.572831 0.901571 -0.150273
C25   C     C_R   0.598859 0.547671 0.129673 -0.020501
C26   C     C_R   0.379551 0.484969 0.869995 -0.021067
C27   C     C_R   0.496712 0.502851 0.354551 -0.071703
C28   C     C_R   0.496591 0.500317 0.645465 -0.072305
H1    H     H_    0.453322 0.719974 0.349581 0.148410
H2    H     H_    0.525882 0.281065 0.653091 0.185736
H3    H     H_    0.195805 0.399739 0.115475 0.187598
H4    H     H_    0.792308 0.594337 0.884360 0.187247
C29   C     C_R   0.378965 0.481763 0.972089 0.042151
C30   C     C_R   0.599909 0.549374 0.027598 0.042051
C31   C     C_R   0.600259 0.546619 0.976457 0.043252
C32   C     C_R   0.380716 0.476102 0.023259 0.042743
C33   C     C_R   0.489368 0.514420 0.949012 0.066464
C34   C     C_R   0.490688 0.511899 0.050692 0.066493
C35   C     C_R   0.270046 0.456337 0.942882 -0.206766
C36   C     C_R   0.705370 0.588763 0.056760 -0.206803
C37   C     C_R   0.270721 0.457546 0.892953 -0.146005
C38   C     C_R   0.704667 0.587447 0.106674 -0.146535
O11   O     O_2   0.277370 0.455267 0.792535 -0.531935
O12   O     O_2   0.700222 0.580705 0.207080 -0.533567
C39   C     C_R   0.276201 0.434446 0.048237 -0.207565
C40   C     C_R   0.708350 0.574054 0.951524 -0.207458
H5    H     H_    0.463868 0.722124 0.650093 0.170159
H6    H     H_    0.539944 0.284363 0.347495 0.190252
H7    H     H_    0.456707 0.723193 0.737743 0.141972
H8    H     H_    0.537281 0.290919 0.259421 0.142863
H9    H     H_    0.184937 0.436518 0.872354 0.189625
H10   H     H_    0.788002 0.618327 0.127231 0.189328
H11   H     H_    0.181467 0.436618 0.957292 0.137964
H12   H     H_    0.790389 0.623230 0.042342 0.139185
H13   H     H_    0.190867 0.400626 0.030379 0.138852
H14   H     H_    0.797016 0.594946 0.969382 0.137493
C41   C     C_R   0.064196 0.373413 0.501337 -0.156516
C42   C     C_R   0.935811 0.625556 0.498119 -0.136477
C43   C     C_R   0.936341 0.373385 0.501419 -0.158104
C44   C     C_R   0.063567 0.625634 0.498649 -0.142813
H15   H     H_    0.112452 0.274749 0.502454 0.165816
H16   H     H_    0.887707 0.724099 0.496271 0.197112
H17   H     H_    0.888555 0.274721 0.502717 0.166123
H18   H     H_    0.111173 0.724289 0.497971 0.196927
C45   C     C_R   0.871595 0.499577 0.499824 -0.044886
C46   C     C_R   0.128376 0.499658 0.500011 -0.044887
C47   C     C_R   0.425006 0.074801 0.467593 0.066615
C48   C     C_R   0.583134 0.925254 0.529269 0.067949
C49   C     C_R   0.575682 0.073422 0.532231 0.078604
C50   C     C_R   0.417351 0.926589 0.470457 0.075098
N3    N     N_R   0.500000 0.852070 0.500000 -0.265472
N4    N     N_R   0.500000 0.147930 0.500000 -0.266725
C51   C     C_2   0.355992 0.147988 0.427430 0.472968
H19   H     H_    0.302565 0.240074 0.433194 0.105761
O13   O     O_2   0.358733 0.104401 0.386332 -0.586825
C52   C     C_2   0.686190 0.852307 0.556315 0.463473
H20   H     H_    0.672234 0.757495 0.575886 0.108853
O14   O     O_2   0.791002 0.899407 0.556896 -0.567286
C53   C     C_2   0.646876 0.144840 0.572029 0.429109
H21   H     H_    0.690965 0.243357 0.567144 0.116906
O15   O     O_2   0.656701 0.092375 0.612141 -0.601764
C54   C     C_2   0.315197 0.855132 0.442612 0.418210
H22   H     H_    0.328220 0.757489 0.425144 0.109263
O16   O     O_2   0.211745 0.906199 0.439178 -0.573172
C55   C     C_3   0.438900 0.764906 0.250022 -0.421427
C56   C     C_3   0.408361 0.893254 0.279860 -0.346421
C57   C     C_3   0.378026 0.018618 0.247454 -0.755078
H23   H     H_    0.458363 0.045378 0.226000 0.239639
H24   H     H_    0.296589 0.996287 0.222653 0.257722
H25   H     H_    0.356025 0.109282 0.269970 0.273520
H26   H     H_    0.327023 0.871198 0.301418 0.248602
H27   H     H_    0.488977 0.920106 0.304557 0.236974
H28   H     H_    0.519571 0.790303 0.228537 0.221769
H29   H     H_    0.358597 0.743793 0.224445 0.216065
C58   C     C_3   0.531815 0.245619 0.753256 -0.421734
C59   C     C_3   0.571133 0.115830 0.726064 -0.338350
C60   C     C_3   0.597101 0.993953 0.760524 -0.790391
H30   H     H_    0.671991 0.020791 0.787800 0.261889
H31   H     H_    0.512281 0.965951 0.779124 0.246184
H32   H     H_    0.627211 0.902632 0.739946 0.262080
H33   H     H_    0.496420 0.084871 0.699236 0.236208
H34   H     H_    0.656879 0.138635 0.707278 0.270915
H35   H     H_    0.605274 0.267558 0.781726 0.216798
H36   H     H_    0.445084 0.222202 0.771325 0.221268

loop_
_geom_bond_atom_site_label_1
_geom_bond_atom_site_label_2
_geom_bond_distance
_ccdc_geom_bond_type
C41   H15   1.083285 S    
C51   H19   1.075885 S    
C53   H21   1.073383 S    
C13   C15   1.407808 A    
C60   H30   1.110852 S    
C42   H16   1.081596 S    
O3    C2    1.300873 A    
N1    C17   1.433852 S    
C8    O11   1.349716 S    
C52   H20   1.074964 S    
C58   H35   1.111934 S    
C19   C34   1.422876 A    
C30   C36   1.416628 A    
C55   H29   1.111999 S    
C56   H26   1.111959 S    
C57   H23   1.110885 S    
C31   C40   1.416690 A    
C20   C26   1.408693 A    
C32   C39   1.416670 A    
C21   C23   1.395058 A    
C12   H5    1.083117 S    
C10   C12   1.389624 A    
C42   C45   1.400263 A    
C36   H12   1.075767 S    
C49   C53   1.485595 S    
C50   C54   1.486121 S    
C14   C28   1.405599 A    
O7    Cu1   1.949179 S    
C59   C60   1.526604 S    
C4    C28   1.475755 S    
C5    N1    1.366520 A    
C55   C56   1.538349 S    
C31   C33   1.421885 A    
C54   O16   1.221464 D    
C32   C34   1.421745 A    
C47   N4    1.376358 A    
O3    Cu1   1.963657 S    
C6    N2    1.366583 A    
C29   C35   1.416630 A    
C53   O15   1.220814 D    
C44   C46   1.400091 A    
Cu1   Cu2   2.708611 S    
O2    C2    1.299919 A    
O2    Cu2   1.963922 S    
C5    C21   1.404057 A    
C41   C46   1.401738 A    
C37   H9    1.083680 S    
C58   H36   1.111559 S    
C29   C32   1.422485 A    
C35   C37   1.388588 A    
C36   C38   1.388196 A    
C15   C55   1.524153 S    
C16   C58   1.523771 S    
C50   N3    1.378837 A    
Cu2   N4    2.035503 S    
C42   C44   1.382242 A    
O8    Cu2   1.949179 S    
C11   C27   1.401012 A    
C41   C43   1.384164 A    
C29   C33   1.421748 A    
C14   H2    1.077406 S    
C20   C33   1.422845 A    
C9    C17   1.399331 A    
O5    C3    1.304710 A    
C10   C18   1.397381 A    
C13   C27   1.406013 A    
C52   O14   1.221457 D    
C25   C38   1.394895 A    
C7    C25   1.403544 A    
C40   H14   1.075734 S    
O6    C4    1.308156 A    
C26   C37   1.395079 A    
C8    C26   1.404072 A    
C54   H22   1.073496 S    
C43   C45   1.401536 A    
C60   H31   1.110909 S    
C19   C25   1.408475 A    
C1    C46   1.450779 S    
C23   C39   1.388578 A    
C39   H13   1.075941 S    
C24   C40   1.388194 A    
C6    O10   1.349873 S    
C9    H8    1.082581 S    
N2    C8    1.366418 A    
C57   H25   1.110544 S    
C51   O13   1.221491 D    
O1    C1    1.301119 A    
O1    Cu1   1.963922 S    
C23   H3    1.083705 S    
C59   H34   1.111252 S    
C47   C50   1.431467 A    
C12   C28   1.402948 A    
N2    C18   1.433927 S    
C5    O9    1.349812 S    
C30   C31   1.422476 A    
O6    Cu2   1.951673 S    
N1    C7    1.366570 A    
O4    C1    1.299698 A    
C10   H7    1.082200 S    
C48   N3    1.376795 A    
C55   H28   1.111401 S    
C56   H27   1.111901 S    
C48   C52   1.484462 S    
C22   C24   1.394870 A    
C7    O12   1.349865 S    
C15   C17   1.413231 A    
C58   C59   1.536353 S    
C6    C22   1.403483 A    
C16   C18   1.413091 A    
C47   C51   1.483148 S    
C2    C45   1.450743 S    
C38   H10   1.083710 S    
C14   C16   1.409880 A    
C56   C57   1.526605 S    
C19   C21   1.408661 A    
C3    C27   1.472814 S    
C60   H32   1.110331 S    
C20   C22   1.408471 A    
C11   H6    1.082817 S    
C9    C11   1.390744 A    
O4    Cu2   1.963657 S    
C35   H11   1.075940 S    
O7    C4    1.304997 A    
C24   H4    1.083707 S    
O8    C3    1.306969 A    
C13   H1    1.079662 S    
O5    Cu1   1.951673 S    
C49   N4    1.378264 A    
C57   H24   1.110811 S    
C48   C49   1.431940 A    
C44   H18   1.081513 S    
Cu1   N3    2.035502 S    
C43   H17   1.083321 S    
C30   C34   1.421884 A    
C59   H33   1.111676 S    
