data_mof_unit_67538.cif
_audit_creation_date              2012-12-10T16:47:29-0500
_audit_creation_method            fapswitch 2.2
_symmetry_space_group_name_H-M    P1
_symmetry_Int_Tables_number       1
_space_group_crystal_system       triclinic
_cell_length_a                    10.625911
_cell_length_b                    8.750156
_cell_length_c                    7.480243
_cell_angle_alpha                 102.739684
_cell_angle_beta                  95.549679
_cell_angle_gamma                 92.897222
_cell_volume                      673.346471488

loop_
_atom_site_label
_atom_site_type_symbol
_atom_type_description
_atom_site_fract_x
_atom_site_fract_y
_atom_site_fract_z
_atom_type_partial_charge
C1    C     C_R   0.491361 0.200511 0.455591 0.838140
C2    C     C_R   0.504026 0.799543 0.546171 0.824193
C3    C     C_R   0.259916 0.501133 0.500053 0.843544
C4    C     C_R   0.740316 0.502862 0.500106 0.852642
C5    C     C_3   0.044721 0.399056 0.596830 -0.416242
C6    C     C_3   0.955763 0.609071 0.401427 -0.332976
C7    C     C_3   0.946978 0.361761 0.422567 0.311013
C8    C     C_3   0.053420 0.646566 0.575338 0.307507
C9    C     C_3   0.876532 0.505911 0.499900 -0.143191
C10   C     C_3   0.123943 0.502310 0.498797 -0.177086
C11   C     C_3   0.974123 0.545847 0.671896 0.404579
C12   C     C_3   0.026526 0.462511 0.326662 0.438234
C13   C     C_2   0.462086 0.036019 0.442174 -0.083390
C14   C     C_2   0.521961 0.966390 0.570168 -0.085534
Cu1   Cu    Cu3+1 0.514140 0.517380 0.684380 1.049062
Cu2   Cu    Cu3+1 0.485860 0.482620 0.315620 1.036360
H1    H     H_    0.086075 0.315884 0.674483 0.183419
H2    H     H_    0.918339 0.693771 0.322575 0.183106
N1    N     N_2   0.464560 0.456420 0.038510 0.136838
N2    N     N_2   0.535440 0.543580 0.961490 0.140455
O1    O     O_R   0.509190 0.286130 0.619780 -0.565069
O2    O     O_R   0.490810 0.713870 0.380220 -0.564076
O3    O     O_R   0.485310 0.256770 0.308360 -0.610178
O4    O     O_R   0.514690 0.743230 0.691640 -0.610961
O5    O     O_R   0.328790 0.514640 0.655680 -0.523766
O6    O     O_R   0.671210 0.485360 0.344320 -0.527767
O7    O     O_R   0.304910 0.485280 0.344260 -0.610697
O8    O     O_R   0.695090 0.514720 0.655740 -0.576209
O9    O     O_3   0.886283 0.215030 0.335290 -0.752486
H3    H     H_    0.925922 0.138524 0.398809 0.317778
O10   O     O_3   0.113342 0.794768 0.657242 -0.744262
H4    H     H_    0.043742 0.865094 0.682346 0.320860
O11   O     O_3   0.943607 0.593447 0.852471 -0.689761
H5    H     H_    0.026029 0.623198 0.929685 0.364452
O12   O     O_3   0.055148 0.417472 0.144769 -0.701002
H6    H     H_    0.089579 0.313137 0.133605 0.320176
O13   O     O_3   0.378629 0.354961 0.923497 -0.613726
H7    H     H_    0.333644 0.300443 0.004122 0.328392
O14   O     O_3   0.621117 0.645408 0.076488 -0.600904
H8    H     H_    0.666174 0.699760 0.995737 0.340949
C15   C     C_3   0.353057 0.955192 0.296011 -0.362689
C16   C     C_3   0.235351 0.050675 0.294678 -0.399449
C17   C     C_3   0.126639 0.957444 0.159961 -0.829227
H9    H     H_    0.158149 0.918942 0.020970 0.289003
H10   H     H_    0.093554 0.852802 0.208548 0.270051
H11   H     H_    0.046241 0.031761 0.148794 0.254007
H12   H     H_    0.204251 0.080382 0.435186 0.231091
H13   H     H_    0.257017 0.161373 0.251338 0.221623
H14   H     H_    0.388113 0.934201 0.157982 0.224577
H15   H     H_    0.317171 0.841157 0.319442 0.242784
C18   C     C_3   0.619089 0.048339 0.734653 -0.374992
C19   C     C_3   0.746456 0.095433 0.674563 -0.403671
C20   C     C_3   0.842492 0.163626 0.842259 -0.698276
H16   H     H_    0.811941 0.275924 0.921479 0.310626
H17   H     H_    0.852975 0.079546 0.933418 0.254059
H18   H     H_    0.936245 0.185860 0.796585 0.232336
H19   H     H_    0.783909 0.990072 0.590001 0.209779
H20   H     H_    0.734940 0.184104 0.590215 0.254854
H21   H     H_    0.580441 0.147584 0.827034 0.253261
H22   H     H_    0.640685 0.969038 0.828964 0.207835

loop_
_geom_bond_atom_site_label_1
_geom_bond_atom_site_label_2
_ccdc_geom_bond_type
C2    O2    A    
C4    O6    A    
C17   H9    S    
C18   H22   S    
C1    O1    A    
O9    H3    S    
C7    O9    S    
C9    C11   S    
C15   C16   S    
C20   H17   S    
N1    N2    D    
C11   O11   S    
Cu2   O7    S    
C13   C15   S    
O11   H5    S    
C5    C10   S    
C3    C10   S    
C16   H13   S    
C13   C14   D    
C12   O12   S    
C6    C12   S    
C17   H10   S    
Cu1   O8    S    
O13   H7    S    
Cu1   O1    S    
C19   H20   S    
C6    C9    S    
Cu2   N1    S    
C2    C14   S    
Cu1   Cu2   S    
C10   C12   S    
C3    O7    A    
Cu1   O4    S    
C4    O8    A    
C5    C11   S    
Cu2   O3    S    
C16   H12   S    
C8    C11   S    
C14   C18   S    
C2    O4    A    
C7    C12   S    
C6    H2    S    
C17   H11   S    
Cu1   O5    S    
C1    C13   S    
C16   C17   S    
C18   C19   S    
C7    C9    S    
C15   H15   S    
C3    O5    A    
C5    H1    S    
C19   C20   S    
C8    C10   S    
C19   H19   S    
C20   H18   S    
C15   H14   S    
O14   H8    S    
C5    C7    S    
N2    O14   S    
C6    C8    S    
C1    O3    A    
N1    O13   S    
C4    C9    S    
C20   H16   S    
C8    O10   S    
O10   H4    S    
C18   H21   S    
O12   H6    S    
Cu2   O2    S    
Cu1   N2    S    
Cu2   O6    S    
