data_mof_unit_33535.cif
_audit_creation_date              2012-12-11T17:09:28-0500
_audit_creation_method            fapswitch 2.2
_symmetry_space_group_name_H-M    P1
_symmetry_Int_Tables_number       1
_space_group_crystal_system       triclinic
_cell_length_a                    14.809195
_cell_length_b                    6.911045
_cell_length_c                    13.530354
_cell_angle_alpha                 89.990113
_cell_angle_beta                  99.916122
_cell_angle_gamma                 90.009544
_cell_volume                      1364.10376111

loop_
_atom_site_label
_atom_site_type_symbol
_atom_type_description
_atom_site_fract_x
_atom_site_fract_y
_atom_site_fract_z
_atom_type_partial_charge
O1    O     O_R   0.586930 0.505770 0.416350 -0.537212
O2    O     O_R   0.413070 0.005770 0.583650 -0.539741
O3    O     O_R   0.397900 0.173100 0.389630 -0.537141
O4    O     O_R   0.602100 0.673100 0.610370 -0.538006
C1    C     C_R   0.364106 0.345418 0.362947 0.729293
C2    C     C_R   0.635889 0.845421 0.637060 0.725712
O5    O     O_R   0.585280 0.175870 0.404330 -0.545594
O6    O     O_R   0.414720 0.675870 0.595670 -0.542533
O7    O     O_R   0.601790 0.008380 0.598460 -0.535295
O8    O     O_R   0.398210 0.508380 0.401540 -0.533151
C3    C     C_R   0.614718 0.345205 0.382900 0.703317
C4    C     C_R   0.385386 0.845172 0.617188 0.706208
O9    O     O_3   0.505200 0.340120 0.563670 -0.369315
O10   O     O_3   0.494800 0.840120 0.436330 -0.368111
V1    V     V_3+5 0.499040 0.064180 0.488190 1.438124
V2    V     V_3+5 0.500960 0.564180 0.511810 1.443716
C5    C     C_R   0.265650 0.021486 0.692445 0.055970
C6    C     C_R   0.737676 0.517910 0.311027 0.084602
C7    C     C_R   0.320938 0.858223 0.689277 -0.088337
C8    C     C_R   0.679381 0.358418 0.310981 -0.091398
C9    C     C_R   0.316515 0.712323 0.760801 -0.182244
C10   C     C_R   0.681081 0.216863 0.236553 -0.228781
H1    H     H_    0.362164 0.588876 0.764369 0.127820
H2    H     H_    0.633399 0.096641 0.230902 0.136039
C11   C     C_R   0.252683 0.722411 0.827208 -0.012082
C12   C     C_R   0.744891 0.226941 0.170037 -0.045885
C13   C     C_R   0.189121 0.879030 0.821197 -0.123610
C14   C     C_R   0.810864 0.379078 0.178651 -0.144236
C15   C     C_R   0.200659 0.030855 0.755355 -0.008624
C16   C     C_R   0.802599 0.526486 0.247897 0.001441
C17   C     C_3   0.133110 0.133871 0.677101 -0.089276
C18   C     C_3   0.872851 0.616458 0.328018 -0.105074
C19   C     C_3   0.205566 0.124361 0.608853 -0.358632
C20   C     C_3   0.800831 0.608668 0.396612 -0.481725
H3    H     H_    0.235469 0.266459 0.593224 0.187356
H4    H     H_    0.775178 0.752588 0.416121 0.165324
H5    H     H_    0.186889 0.031085 0.541345 0.174271
H6    H     H_    0.817424 0.508802 0.461794 0.178237
C21   C     C_1   0.783800 0.877037 0.782449 -0.148540
C22   C     C_1   0.216200 0.377040 0.217548 -0.133741
C23   C     C_1   0.716457 0.860099 0.716508 -0.170383
C24   C     C_1   0.283537 0.360097 0.283497 -0.160481
O11   O     O_R   0.101720 0.231700 0.098560 -0.532395
O12   O     O_R   0.898280 0.731700 0.901440 -0.538984
O13   O     O_R   0.914700 0.558980 0.095690 -0.534496
O14   O     O_R   0.085300 0.058980 0.904310 -0.553118
C25   C     C_R   0.883849 0.389646 0.115604 0.703945
C26   C     C_R   0.116042 0.889679 0.884200 0.682084
O15   O     O_R   0.102080 0.561590 0.110390 -0.533241
O16   O     O_R   0.897920 0.061590 0.889610 -0.543435
O17   O     O_R   0.086950 0.728940 0.916330 -0.539387
O18   O     O_R   0.913050 0.228940 0.083670 -0.532420
C27   C     C_R   0.135786 0.391828 0.137930 0.783534
C28   C     C_R   0.864220 0.891824 0.862062 0.769686
O19   O     O_3   0.994770 0.394510 0.936380 -0.385814
O20   O     O_3   0.005230 0.894510 0.063620 -0.349798
V3    V     V_3+5 0.000970 0.670520 0.011800 1.524993
V4    V     V_3+5 0.999030 0.170520 0.988200 1.489786
C29   C     C_1   0.254574 0.568507 0.899709 0.285022
N1    N     N_1   0.256482 0.444494 0.957506 -0.385330
C30   C     C_1   0.741296 0.076534 0.095422 0.299919
N2    N     N_1   0.738078 0.955262 0.035965 -0.378252
C31   C     C_2   0.110710 0.334985 0.708057 0.373094
H7    H     H_    0.097075 0.360953 0.783088 0.078521
O21   O     O_2   0.104332 0.469024 0.648425 -0.512597
C32   C     C_2   0.898040 0.819518 0.301911 0.440685
H8    H     H_    0.844637 0.926832 0.282233 0.043332
O22   O     O_2   0.977743 0.866064 0.302697 -0.516744
C33   C     C_1   0.050309 0.018851 0.640039 0.357995
N3    N     N_1   0.985347 0.928495 0.610969 -0.337661
C34   C     C_1   0.952334 0.488873 0.362167 0.416766
N4    N     N_1   0.014469 0.388927 0.388830 -0.313973

loop_
_geom_bond_atom_site_label_1
_geom_bond_atom_site_label_2
_ccdc_geom_bond_type
C13   C26   S    
C32   O22   D    
C1    C24   S    
C31   O21   D    
C14   C25   S    
C13   C15   A    
C5    C15   A    
O1    C3    A    
O2    C4    A    
C2    O7    A    
C21   C23   T    
O5    C3    A    
O13   V3    S    
O16   C28   A    
C7    C9    A    
C12   C30   S    
C21   C28   S    
O15   V3    S    
O20   V3    S    
O11   V4    S    
C5    C7    A    
O11   C27   A    
C26   O17   A    
C2    C23   S    
C17   C19   S    
C6    C16   A    
O10   V2    S    
C6    C8    A    
C22   C24   T    
C32   H8    S    
C29   N1    T    
O6    V2    S    
O14   V4    S    
C30   N2    T    
C5    C19   S    
C18   C34   S    
O13   C25   A    
C9    H1    S    
O14   C26   A    
C3    C8    S    
O16   V4    S    
C17   C31   S    
O4    C2    A    
O5    V1    S    
C19   H5    S    
C18   C20   S    
O4    V2    S    
C17   C33   S    
O12   V3    S    
O6    C4    A    
O1    V2    S    
O2    V1    S    
C6    C20   S    
O18   V4    S    
O17   V3    S    
C8    C10   A    
O19   V3    S    
C10   H2    S    
O19   V4    S    
O3    V1    S    
C18   C32   S    
C9    C11   A    
C20   H6    S    
O3    C1    A    
C25   O18   A    
C11   C13   A    
C12   C14   A    
O9    V1    S    
O7    V1    S    
C34   N4    T    
C15   C17   S    
O8    V2    S    
C16   C18   S    
O15   C27   A    
C4    C7    S    
C14   C16   A    
C19   H3    S    
O20   V4    S    
C20   H4    S    
C33   N3    T    
C31   H7    S    
O12   C28   A    
C1    O8    A    
C22   C27   S    
C10   C12   A    
O9    V2    S    
O10   V1    S    
C11   C29   S    
