data_mof_unit_37417.cif
_audit_creation_date              2012-12-11T15:36:43-0500
_audit_creation_method            fapswitch 2.2
_symmetry_space_group_name_H-M    P1
_symmetry_Int_Tables_number       1
_space_group_crystal_system       triclinic
_cell_length_a                    15.056503
_cell_length_b                    15.033968
_cell_length_c                    34.806172
_cell_angle_alpha                 91.428322
_cell_angle_beta                  91.90987
_cell_angle_gamma                 60.263301
_cell_volume                      6837.05619301

loop_
_atom_site_label
_atom_site_type_symbol
_atom_type_description
_atom_site_fract_x
_atom_site_fract_y
_atom_site_fract_z
_atom_type_partial_charge
C1    C     C_R   0.609814 0.304011 0.443656 0.540997
C2    C     C_R   0.737709 0.676446 0.180908 0.025835
C3    C     C_R   0.611295 0.155348 0.831118 0.001566
C4    C     C_R   0.689410 0.165193 0.850025 -0.068861
C5    C     C_R   0.717722 0.134156 0.888007 0.244608
C6    C     C_R   0.584655 0.269751 0.775218 0.264687
C7    C     C_R   0.587584 0.280476 0.735232 0.099235
C8    C     C_R   0.596449 0.201264 0.710069 0.035007
C9    C     C_R   0.595232 0.115188 0.724607 0.069485
C10   C     C_R   0.591700 0.105684 0.764342 -0.154921
C11   C     C_R   0.590965 0.179678 0.789767 -0.017280
C12   C     C_R   0.536164 0.211315 0.641910 -0.101612
C13   C     C_R   0.820847 0.608814 0.158652 -0.125573
C14   C     C_R   0.540813 0.231702 0.603427 -0.128906
C15   C     C_R   0.695799 0.239309 0.617305 -0.130252
C16   C     C_R   0.691398 0.218156 0.655805 -0.096767
C17   C     C_R   0.609299 0.208158 0.668552 0.063425
C18   C     C_R   0.618087 0.250496 0.591074 0.014903
C19   C     C_R   0.047443 0.738201 0.048082 0.567788
C20   C     C_R   0.747034 0.746176 0.063858 0.542025
C21   C     C_R   0.750802 0.041076 0.050540 0.537521
C22   C     C_R   0.015202 0.723039 0.939317 0.549367
C23   C     C_R   0.717341 0.730294 0.954626 0.543830
C24   C     C_R   0.821628 0.627723 0.119650 -0.131335
C25   C     C_R   0.721270 0.025515 0.942229 0.558376
C26   C     C_R   0.760955 0.570542 0.238189 -0.102099
C27   C     C_R   0.750154 0.562606 0.277642 0.114374
C28   C     C_R   0.721474 0.649423 0.301738 0.056528
C29   C     C_R   0.706435 0.741112 0.286179 -0.145849
C30   C     C_R   0.715146 0.748595 0.246955 -0.124440
C31   C     C_R   0.740014 0.664174 0.222672 0.006751
C32   C     C_R   0.599281 0.722192 0.355036 -0.132987
C33   C     C_R   0.593194 0.610170 0.449440 0.544054
C34   C     C_R   0.568056 0.713867 0.391307 -0.128539
C35   C     C_R   0.733088 0.562818 0.403268 -0.131546
C36   C     C_R   0.764451 0.571622 0.367040 -0.095457
C37   C     C_R   0.696215 0.648942 0.342172 0.039648
C38   C     C_R   0.633287 0.631739 0.415114 0.020847
C39   C     C_R   0.113991 0.723321 0.082466 0.013788
C40   C     C_R   0.176133 0.624756 0.098126 0.082560
C41   C     C_R   0.214071 0.614937 0.135954 -0.165965
C42   C     C_R   0.192339 0.701656 0.158335 0.003352
C43   C     C_R   0.140367 0.799198 0.141514 0.256125
C44   C     C_R   0.305290 0.590669 0.441914 0.534901
C45   C     C_R   0.102613 0.809368 0.103494 -0.147030
C46   C     C_R   0.271100 0.715982 0.222486 0.147412
C47   C     C_R   0.274590 0.707768 0.262659 -0.080681
C48   C     C_R   0.214172 0.675175 0.281230 -0.000772
C49   C     C_R   0.149280 0.651327 0.259082 -0.126916
C50   C     C_R   0.145274 0.658940 0.219268 -0.149688
C51   C     C_R   0.205600 0.690911 0.200507 0.063479
C52   C     C_R   0.225635 0.574870 0.339397 -0.119416
C53   C     C_R   0.244085 0.556022 0.378731 -0.131767
C54   C     C_R   0.249783 0.713462 0.387385 -0.126643
C55   C     C_R   0.605245 0.300774 0.553827 0.543225
C56   C     C_R   0.231231 0.732314 0.348033 -0.123072
C57   C     C_R   0.222143 0.661612 0.323474 0.031963
C58   C     C_R   0.259957 0.623287 0.402944 0.019521
C59   C     C_R   0.720123 0.103678 0.086003 0.017437
C60   C     C_R   0.789096 0.126112 0.106224 -0.143196
C61   C     C_R   0.770096 0.161641 0.144172 -0.128851
C62   C     C_R   0.682381 0.174714 0.162063 0.074016
C63   C     C_R   0.608946 0.161932 0.140926 -0.103401
C64   C     C_R   0.627395 0.127084 0.103033 -0.132834
C65   C     C_R   0.624073 0.284325 0.220818 0.254839
C66   C     C_R   0.588106 0.606951 0.558870 0.539571
C67   C     C_R   0.614608 0.293403 0.260947 -0.121230
C68   C     C_R   0.659864 0.205870 0.283993 -0.049469
C69   C     C_R   0.712166 0.108615 0.267103 -0.087733
C70   C     C_R   0.717849 0.097862 0.227240 0.055367
C71   C     C_R   0.674831 0.186120 0.203975 0.037276
C72   C     C_R   0.735710 0.186177 0.349924 -0.115834
C73   C     C_R   0.724005 0.208048 0.389261 -0.124253
C74   C     C_R   0.540280 0.281663 0.380807 -0.128552
C75   C     C_R   0.551920 0.261827 0.341483 -0.120166
C76   C     C_R   0.649325 0.216369 0.325788 0.027981
C77   C     C_R   0.297431 0.589538 0.551519 0.555517
C78   C     C_R   0.625855 0.258499 0.404840 0.021758
C79   C     C_R   0.692372 0.691093 0.918834 -0.026935
C80   C     C_R   0.766089 0.598388 0.902263 -0.155549
C81   C     C_R   0.754724 0.574319 0.864083 -0.184325
C82   C     C_R   0.669711 0.642394 0.841649 0.063936
C83   C     C_R   0.592049 0.732409 0.858815 0.296924
C84   C     C_R   0.602761 0.754785 0.897490 -0.121010
C85   C     C_R   0.586135 0.630518 0.779094 0.324191
C86   C     C_R   0.587410 0.627067 0.738459 -0.120485
C87   C     C_R   0.667613 0.625344 0.718638 -0.008893
C88   C     C_R   0.738784 0.714029 0.102525 0.020073
C89   C     C_R   0.751922 0.618967 0.739055 -0.139585
C90   C     C_R   0.753328 0.619842 0.779128 -0.184598
C91   C     C_R   0.670390 0.627466 0.799384 0.064659
C92   C     C_R   0.733033 0.552651 0.653730 -0.113551
C93   C     C_R   0.713705 0.548658 0.614347 -0.128928
C94   C     C_R   0.553516 0.708370 0.619695 -0.128386
C95   C     C_R   0.572429 0.711693 0.658981 -0.124261
C96   C     C_R   0.660147 0.631817 0.676458 0.035528
C97   C     C_R   0.621524 0.624255 0.597318 0.019184
C98   C     C_R   0.053606 0.702933 0.900044 -0.018022
C99   C     C_R   0.652785 0.777308 0.124465 -0.127951
C100  C     C_R   0.062112 0.778929 0.880613 -0.126017
C101  C     C_R   0.077157 0.771837 0.840558 0.256229
C102  C     C_R   0.084055 0.685446 0.820637 0.068895
C103  C     C_R   0.078090 0.608712 0.840511 -0.132679
C104  C     C_R   0.064181 0.616686 0.879861 -0.153739
C105  C     C_R   0.176167 0.584125 0.762298 0.254189
C106  C     C_R   0.194120 0.583057 0.722850 -0.127868
C107  C     C_R   0.130346 0.667331 0.699949 0.002130
C108  C     C_R   0.047703 0.753518 0.715789 -0.114031
C109  C     C_R   0.030851 0.757070 0.754931 -0.125854
C110  C     C_R   0.652521 0.758866 0.163361 -0.126575
C111  C     C_R   0.097089 0.674854 0.778649 0.057747
C112  C     C_R   0.208620 0.714081 0.648096 0.104436
C113  C     C_R   0.247988 0.694982 0.611059 -0.163861
C114  C     C_R   0.173059 0.586442 0.596819 0.247799
C115  C     C_R   0.135058 0.604368 0.633860 -0.133359
C116  C     C_R   0.154656 0.665610 0.659658 0.012738
C117  C     C_R   0.235196 0.627166 0.586048 -0.006062
C118  C     C_R   0.673497 0.083150 0.906551 0.024194
C119  C     C_R   0.591805 0.077497 0.888214 -0.188465
C120  C     C_R   0.560353 0.114199 0.850844 -0.167068
Cr1   Cr    Cr6+3 0.426010 0.422500 0.497000 1.025085
Cr2   Cr    Cr6+3 0.651300 0.426310 0.501970 1.009118
Cr3   Cr    Cr6+3 0.422670 0.651170 0.501050 1.006090
Cr4   Cr    Cr6+3 0.905130 0.911420 0.992650 1.025897
Cr5   Cr    Cr6+3 0.911860 0.682710 0.002320 1.020662
Cr6   Cr    Cr6+3 0.682710 0.906840 0.004710 1.005679
H1    H     H_    0.587509 0.843997 0.112074 0.131732
H2    H     H_    0.490754 0.768047 0.399670 0.127878
H3    H     H_    0.886919 0.544388 0.171805 0.105003
H4    H     H_    0.785319 0.499379 0.421259 0.122014
H5    H     H_    0.057739 0.885479 0.091652 0.134581
H6    H     H_    0.226783 0.800832 0.336646 0.098934
H7    H     H_    0.326721 0.724533 0.279302 0.115561
H8    H     H_    0.255426 0.539559 0.148699 0.128259
H9    H     H_    0.100868 0.627420 0.272594 0.115642
H10   H     H_    0.888892 0.577591 0.103412 0.127393
H11   H     H_    0.093449 0.641127 0.202906 0.111813
H12   H     H_    0.219574 0.518597 0.321169 0.103740
H13   H     H_    0.252163 0.485528 0.389699 0.121056
H14   H     H_    0.261548 0.766930 0.405245 0.123253
H15   H     H_    0.860920 0.109148 0.093825 0.127069
H16   H     H_    0.572171 0.111726 0.088025 0.124275
H17   H     H_    0.484713 0.284829 0.323088 0.112189
H18   H     H_    0.571518 0.368319 0.274253 0.116386
H19   H     H_    0.840309 0.515711 0.357792 0.138188
H20   H     H_    0.826863 0.172227 0.160375 0.099285
H21   H     H_    0.745375 0.040923 0.284895 0.140501
H22   H     H_    0.811442 0.150659 0.338015 0.110013
H23   H     H_    0.791001 0.189892 0.407147 0.123315
H24   H     H_    0.540761 0.172264 0.154557 0.111573
H25   H     H_    0.463551 0.321581 0.391871 0.129413
H26   H     H_    0.835795 0.547418 0.917986 0.133976
H27   H     H_    0.544228 0.826150 0.909719 0.132402
H28   H     H_    0.515811 0.773858 0.676184 0.101637
H29   H     H_    0.526141 0.626206 0.721623 0.085377
H30   H     H_    0.815251 0.505081 0.851337 0.115444
H31   H     H_    0.814961 0.616520 0.724026 0.117504
H32   H     H_    0.817653 0.618814 0.794461 0.110892
H33   H     H_    0.801116 0.490422 0.666851 0.110584
H34   H     H_    0.767747 0.483073 0.597805 0.121749
H35   H     H_    0.482061 0.767995 0.607503 0.126352
H36   H     H_    0.051985 0.845411 0.896807 0.118793
H37   H     H_    0.780215 0.505515 0.219268 0.087280
H38   H     H_    0.055861 0.557994 0.894037 0.136784
H39   H     H_    0.093452 0.567199 0.642993 0.122527
H40   H     H_    0.259069 0.517733 0.710032 0.097692
H41   H     H_    0.997870 0.818569 0.698011 0.129577
H42   H     H_    0.967039 0.825059 0.766929 0.151397
H43   H     H_    0.294899 0.727194 0.602870 0.132160
H44   H     H_    0.080499 0.543975 0.825242 0.140411
H45   H     H_    0.586709 0.810482 0.180037 0.112511
H46   H     H_    0.555743 0.040108 0.901952 0.128338
H47   H     H_    0.749338 0.214414 0.676061 0.132521
H48   H     H_    0.499094 0.106826 0.836760 0.108118
H49   H     H_    0.597168 0.036547 0.775606 0.112244
H50   H     H_    0.472557 0.203367 0.651259 0.135406
H51   H     H_    0.684679 0.808043 0.304332 0.111418
H52   H     H_    0.479934 0.239409 0.583889 0.136372
H53   H     H_    0.732114 0.193233 0.834847 0.161865
H54   H     H_    0.756052 0.253595 0.608725 0.128066
H55   H     H_    0.700363 0.821061 0.235373 0.128881
H56   H     H_    0.545595 0.782516 0.336178 0.106119
O1    O     O_R   0.324990 0.503440 0.453910 -0.526868
O2    O     O_R   0.639980 0.519500 0.542640 -0.502422
O3    O     O_R   0.500750 0.673190 0.545480 -0.520036
O4    O     O_R   0.336260 0.640450 0.538210 -0.516056
O5    O     O_3   0.499990 0.499990 0.500010 -0.237844
O6    O     O_R   0.834210 0.019400 0.034570 -0.523238
O7    O     O_R   0.002210 0.824620 0.031030 -0.515452
O8    O     O_R   0.024400 0.669340 0.039790 -0.472245
O9    O     O_R   0.830490 0.694950 0.045870 -0.504132
O10   O     O_R   0.675430 0.831160 0.051290 -0.518225
O11   O     O_R   0.698870 0.998880 0.039560 -0.502478
O12   O     O_R   0.522030 0.339050 0.458320 -0.505655
O13   O     O_R   0.811290 0.006780 0.950620 -0.453193
O14   O     O_R   0.980960 0.812920 0.953200 -0.502710
O15   O     O_R   0.001480 0.656720 0.955830 -0.516075
O16   O     O_R   0.809240 0.683250 0.968050 -0.500255
O17   O     O_R   0.652500 0.818540 0.967340 -0.518890
O18   O     O_R   0.677620 0.987170 0.961730 -0.515244
O19   O     O_3   0.833240 0.833660 0.999890 -0.243796
O20   O     O_R   0.676180 0.324490 0.458320 -0.514428
O21   O     O_R   0.643570 0.521510 0.464260 -0.501071
O22   O     O_R   0.504630 0.675350 0.460920 -0.519735
O23   O     O_R   0.339850 0.642450 0.459830 -0.502199
O24   O     O_R   0.321120 0.501280 0.538470 -0.459753
O25   O     O_R   0.518440 0.337050 0.536710 -0.500381
O26   O     O_R   0.672300 0.322330 0.542880 -0.518518
N1    N     N_3   0.197170 0.534515 0.076362 -0.599290
H57   H     H_    0.276566 0.488400 0.074735 0.226935
H58   H     H_    0.169669 0.494197 0.091442 0.226258
N2    N     N_3   0.336515 0.747228 0.205223 -0.640537
H59   H     H_    0.338531 0.736579 0.175452 0.246283
H60   H     H_    0.305562 0.825697 0.210541 0.249686
O27   O     O_3   0.125788 0.884626 0.162399 -0.563038
C121  C     C_3   0.026541 0.933759 0.177384 -0.013608
H61   H     H_    0.011939 0.879350 0.193537 0.142957
H62   H     H_    0.968116 0.968764 0.153829 0.124668
C122  C     C_3   0.015886 0.018088 0.205127 -0.376029
H63   H     H_    0.027148 0.075508 0.189787 0.151219
H64   H     H_    0.938486 0.056900 0.217562 0.105664
H65   H     H_    0.073901 0.984831 0.228849 0.159628
O28   O     O_3   0.575473 0.369414 0.197364 -0.553774
C123  C     C_3   0.614978 0.435972 0.205147 -0.011010
H66   H     H_    0.700314 0.393491 0.206524 0.110344
H67   H     H_    0.585055 0.478513 0.232584 0.138117
C124  C     C_3   0.580670 0.513785 0.173007 -0.352250
H68   H     H_    0.495895 0.555823 0.170187 0.179063
H69   H     H_    0.607239 0.569599 0.179430 0.115177
H70   H     H_    0.613237 0.474160 0.145373 0.155671
N3    N     N_3   0.764402 0.996642 0.210940 -0.650166
H71   H     H_    0.709215 0.989934 0.194076 0.234503
H72   H     H_    0.822555 0.987289 0.192970 0.223690
N4    N     N_3   0.762058 0.469144 0.292857 -0.645982
H73   H     H_    0.788756 0.411407 0.271811 0.212423
H74   H     H_    0.689454 0.482838 0.300098 0.230414
O29   O     O_3   0.507832 0.632692 0.800225 -0.540793
C125  C     C_3   0.412875 0.676805 0.779921 -0.011099
H75   H     H_    0.410927 0.619962 0.759334 0.113382
H76   H     H_    0.397376 0.747434 0.764513 0.128116
C126  C     C_3   0.327272 0.707384 0.807904 -0.342705
H77   H     H_    0.326468 0.764310 0.829038 0.182394
H78   H     H_    0.253798 0.741622 0.791409 0.162963
H79   H     H_    0.336529 0.639637 0.823352 0.158473
O30   O     O_3   0.506573 0.799884 0.837548 -0.539367
C127  C     C_3   0.519840 0.881329 0.825386 -0.019091
H80   H     H_    0.594375 0.852804 0.810962 0.125329
H81   H     H_    0.515640 0.931021 0.850279 0.121064
C128  C     C_3   0.434654 0.945620 0.796636 -0.377085
H82   H     H_    0.359001 0.975670 0.810046 0.151814
H83   H     H_    0.442899 0.011116 0.787223 0.088682
H84   H     H_    0.438578 0.898171 0.771076 0.150263
O31   O     O_3   0.239318 0.502348 0.786125 -0.589968
C129  C     C_3   0.264386 0.406426 0.768948 -0.030123
H85   H     H_    0.340495 0.373544 0.755580 0.134279
H86   H     H_    0.207027 0.411255 0.746711 0.122935
C130  C     C_3   0.269531 0.333297 0.799596 -0.381875
H87   H     H_    0.191759 0.358982 0.810296 0.136326
H88   H     H_    0.300435 0.255052 0.787125 0.099207
H89   H     H_    0.319436 0.330341 0.824223 0.154155
O32   O     O_3   0.080386 0.847454 0.818932 -0.585302
C131  C     C_3   0.090757 0.922322 0.840782 -0.023307
H90   H     H_    0.156699 0.886197 0.861556 0.123482
H91   H     H_    0.018630 0.973253 0.855973 0.163141
C132  C     C_3   0.110583 0.988362 0.813823 -0.370702
H92   H     H_    0.045937 0.026301 0.792738 0.166257
H93   H     H_    0.118260 0.048071 0.830618 0.095179
H94   H     H_    0.182316 0.940485 0.798081 0.150753
N5    N     N_3   0.228637 0.776904 0.674829 -0.621655
H95   H     H_    0.280545 0.728693 0.695767 0.218887
H96   H     H_    0.264627 0.811234 0.661153 0.216372
O33   O     O_3   0.157096 0.521001 0.572739 -0.539260
C133  C     C_3   0.070867 0.580510 0.548830 -0.001729
H97   H     H_    0.082341 0.635366 0.531579 0.124388
H98   H     H_    0.000921 0.623678 0.566243 0.121894
C134  C     C_3   0.054219 0.510085 0.521086 -0.361670
H99   H     H_    0.041292 0.455000 0.537330 0.152924
H100  H     H_    0.986273 0.556072 0.502188 0.090931
H101  H     H_    0.122340 0.466971 0.502941 0.165933
O34   O     O_3   0.797221 0.142923 0.905295 -0.547192
C135  C     C_3   0.762305 0.246831 0.914653 -0.013245
H102  H     H_    0.692017 0.279524 0.932146 0.123556
H103  H     H_    0.746317 0.292954 0.888182 0.134216
C136  C     C_3   0.844970 0.254891 0.938199 -0.364281
H104  H     H_    0.915927 0.223900 0.921418 0.150114
H105  H     H_    0.818581 0.336410 0.945566 0.094501
H106  H     H_    0.861863 0.210807 0.965184 0.165349
N6    N     N_3   0.582356 0.370864 0.719589 -0.629156
H107  H     H_    0.512096 0.410996 0.704823 0.213952
H108  H     H_    0.582970 0.420116 0.741144 0.276343
O35   O     O_3   0.588534 0.341385 0.800012 -0.583596
C137  C     C_3   0.492598 0.401627 0.817081 0.005545
H109  H     H_    0.454418 0.357163 0.823991 0.139010
H110  H     H_    0.441680 0.464587 0.797352 0.177048
C138  C     C_3   0.507500 0.446710 0.854744 -0.354546
H111  H     H_    0.548016 0.490015 0.849908 0.210470
H112  H     H_    0.432122 0.498739 0.867482 0.110230
H113  H     H_    0.553332 0.384289 0.875385 0.125674
N7    N     N_3   0.603148 0.035130 0.699008 -0.639312
H114  H     H_    0.677157 0.997877 0.688274 0.233527
H115  H     H_    0.594875 0.980304 0.713976 0.224029

loop_
_geom_bond_atom_site_label_1
_geom_bond_atom_site_label_2
_ccdc_geom_bond_type
C16   H47   S    
Cr6   O17   S    
C15   C18   A    
Cr3   O3    S    
C101  C102  A    
C22   C98   S    
O30   C127  S    
C101  O32   S    
C41   C42   A    
C14   C18   A    
C22   O15   A    
Cr2   O5    S    
C95   C96   A    
C121  C122  S    
C105  O31   S    
C72   C76   A    
C43   O27   S    
C123  H66   S    
C131  C132  S    
C114  C115  A    
C85   C91   A    
C50   H11   S    
C7    C8    A    
C138  H112  S    
C85   C86   A    
C56   C57   A    
C135  C136  S    
C15   H54   S    
C55   O26   A    
C23   O16   A    
Cr5   O19   S    
C59   C64   A    
C29   C30   A    
C81   H30   S    
Cr3   O22   S    
C92   H33   S    
C106  H40   S    
C66   C97   S    
C32   H56   S    
C136  H104  S    
C133  H97   S    
C121  H62   S    
C21   C59   S    
C77   C117  S    
C109  C111  A    
C61   H20   S    
C54   C58   A    
O31   C129  S    
C80   C81   A    
C98   C104  A    
C112  C116  A    
Cr1   O5    S    
C106  C107  A    
C1    O20   A    
C15   C16   A    
C23   O17   A    
C26   H37   S    
C92   C96   A    
C133  C134  S    
C108  C109  A    
Cr3   O23   S    
C130  H87   S    
C49   C50   A    
C2    C13   A    
C70   N3    S    
C100  C101  A    
C129  H86   S    
C7    N6    S    
C103  C104  A    
C27   N4    S    
N1    H58   S    
C118  C119  A    
C54   H14   S    
O35   C137  S    
C44   C58   S    
C8    C9    A    
C65   C67   A    
C122  H63   S    
C12   C17   A    
C103  H44   S    
C52   H12   S    
C73   C78   A    
Cr5   O8    S    
C115  H39   S    
C132  H92   S    
C127  H80   S    
C131  H90   S    
C85   O29   S    
C61   C62   A    
C25   O13   A    
C74   C78   A    
C119  H46   S    
C39   C45   A    
C110  H45   S    
C24   H10   S    
N6    H108  S    
Cr2   O2    S    
C105  C111  A    
Cr5   O15   S    
C59   C60   A    
N2    H59   S    
C29   H51   S    
N5    H95   S    
C47   H7    S    
Cr3   O5    S    
C1    C78   S    
C112  C113  A    
C22   O14   A    
C102  C111  S    
C102  C103  A    
C5    O34   S    
N4    H74   S    
Cr1   O24   S    
C20   O9    A    
C67   H18   S    
Cr4   O7    S    
C34   C38   A    
C65   O28   S    
C81   C82   A    
C138  H113  S    
C125  H76   S    
C136  H106  S    
Cr6   O19   S    
C130  H89   S    
C127  H81   S    
C128  H83   S    
C74   C75   A    
C67   C68   A    
C88   C99   A    
C47   C48   A    
Cr2   O26   S    
C48   C57   S    
C35   C38   A    
O34   C135  S    
O28   C123  S    
N3    H72   S    
C10   C11   A    
C138  H111  S    
Cr4   O6    S    
N7    H114  S    
C86   C87   A    
C16   C17   A    
C131  H91   S    
C129  C130  S    
C50   C51   A    
C135  H102  S    
C72   H22   S    
C99   C110  A    
C40   N1    S    
C33   O21   A    
C113  H43   S    
C82   C91   S    
C79   C80   A    
C13   C24   A    
C123  H67   S    
C60   C61   A    
C126  H78   S    
C35   C36   A    
C32   C34   A    
Cr2   O21   S    
C90   H32   S    
C93   H34   S    
C75   C76   A    
C63   H24   S    
C104  H38   S    
C129  H85   S    
C109  H42   S    
C60   H15   S    
C122  H64   S    
N4    H73   S    
C24   C88   A    
C84   H27   S    
C36   H19   S    
C34   H2    S    
C124  H68   S    
C94   H35   S    
C134  H101  S    
C30   C31   A    
C107  C108  A    
C87   C96   S    
Cr4   O14   S    
C62   C63   A    
N1    H57   S    
C128  H82   S    
C77   O24   A    
C94   C95   A    
Cr5   O9    S    
C86   H29   S    
C56   H6    S    
C32   C37   A    
C121  H61   S    
C119  C120  A    
Cr6   O10   S    
C132  H93   S    
C35   H4    S    
C14   H52   S    
C75   H17   S    
C18   C55   S    
C19   O7    A    
C20   C88   S    
C113  C117  A    
C120  H48   S    
C40   C41   A    
C124  H69   S    
C108  H41   S    
C12   C14   A    
Cr5   O16   S    
C45   H5    S    
C77   O4    A    
C136  H105  S    
N5    H96   S    
C26   C27   A    
C69   H21   S    
C30   H55   S    
C74   H25   S    
C83   C84   A    
C68   C76   S    
C42   C43   A    
Cr1   O25   S    
C4    H53   S    
C3    C4    A    
C28   C29   A    
C123  C124  S    
C93   C97   A    
Cr1   O12   S    
C6    C11   A    
C70   C71   A    
C55   O25   A    
C6    O35   S    
C21   O6    A    
C9    C10   A    
Cr6   O18   S    
C10   H49   S    
C80   H26   S    
C66   O2    A    
C46   C47   A    
C36   C37   A    
C128  H84   S    
C73   H23   S    
C53   H13   S    
C5    C118  A    
C26   C31   A    
C68   C69   A    
C137  C138  S    
C33   C38   S    
C134  H100  S    
C72   C73   A    
C114  O33   S    
C112  N5    S    
C20   O10   A    
C52   C57   A    
C99   H1    S    
C53   C58   A    
C54   C56   A    
C89   H31   S    
C6    C7    A    
C135  H103  S    
C137  H109  S    
C105  C106  A    
C42   C51   S    
C33   O22   A    
C98   C100  A    
C8    C17   S    
C94   C97   A    
Cr1   O1    S    
Cr4   O19   S    
C95   H28   S    
C23   C79   S    
N6    H107  S    
C126  H79   S    
Cr3   O4    S    
C137  H110  S    
C1    O12   A    
C43   C45   A    
C25   O18   A    
C65   C71   A    
N7    H115  S    
C122  H65   S    
Cr6   O11   S    
Cr2   O20   S    
C90   C91   A    
C79   C84   A    
C12   H50   S    
C64   H16   S    
C28   C37   S    
C126  H77   S    
C46   N2    S    
C46   C51   A    
Cr4   O13   S    
C125  H75   S    
C92   C93   A    
C133  H98   S    
C62   C71   S    
C41   H8    S    
C83   O30   S    
O27   C121  S    
C49   H9    S    
C69   C70   A    
C132  H94   S    
O29   C125  S    
C107  C116  S    
C9    N7    S    
C114  C117  A    
C3    C11   S    
C3    C120  A    
N2    H60   S    
C19   O8    A    
C63   C64   A    
C39   C40   A    
C44   O23   A    
C4    C5    A    
C124  H70   S    
C134  H99   S    
C19   C39   S    
C82   C83   A    
C48   C49   A    
C66   O3    A    
C130  H88   S    
N3    H71   S    
O32   C131  S    
C87   C89   A    
C13   H3    S    
C2    C31   S    
C44   O1    A    
C100  H36   S    
C125  C126  S    
C25   C118  S    
C21   O11   A    
C89   C90   A    
O33   C133  S    
C115  C116  A    
C52   C53   A    
C27   C28   A    
C127  C128  S    
C2    C110  A    
