data_mof_unit_33979.cif
_audit_creation_date              2012-12-11T17:24:09-0500
_audit_creation_method            fapswitch 2.2
_symmetry_space_group_name_H-M    P1
_symmetry_Int_Tables_number       1
_space_group_crystal_system       triclinic
_cell_length_a                    22.954371
_cell_length_b                    7.191279
_cell_length_c                    20.851402
_cell_angle_alpha                 90.002418
_cell_angle_beta                  93.510895
_cell_angle_gamma                 90.000392
_cell_volume                      3435.50776034

loop_
_atom_site_label
_atom_site_type_symbol
_atom_type_description
_atom_site_fract_x
_atom_site_fract_y
_atom_site_fract_z
_atom_type_partial_charge
O1    O     O_R   0.307200 0.614510 0.194080 -0.538850
O2    O     O_R   0.692800 0.385490 0.805920 -0.538642
O3    O     O_R   0.192800 0.114510 0.305920 -0.538848
O4    O     O_R   0.807200 0.885490 0.694080 -0.538634
O5    O     O_R   0.188140 0.283260 0.181690 -0.506880
O6    O     O_R   0.811860 0.716740 0.818310 -0.507034
O7    O     O_R   0.311860 0.783260 0.318310 -0.506902
O8    O     O_R   0.688140 0.216740 0.681690 -0.507110
C1    C     C_R   0.169560 0.453321 0.164378 0.734371
C2    C     C_R   0.830485 0.546741 0.835508 0.731931
C3    C     C_R   0.330448 0.953326 0.335614 0.734332
C4    C     C_R   0.669512 0.046734 0.664497 0.732039
O9    O     O_R   0.306460 0.284700 0.186400 -0.530885
O10   O     O_R   0.693540 0.715300 0.813600 -0.532340
O11   O     O_R   0.193540 0.784700 0.313600 -0.530883
O12   O     O_R   0.806460 0.215300 0.686400 -0.532304
O13   O     O_R   0.311970 0.115840 0.310660 -0.542207
O14   O     O_R   0.688030 0.884160 0.689340 -0.543024
O15   O     O_R   0.188030 0.615840 0.189340 -0.542208
O16   O     O_R   0.811970 0.384160 0.810660 -0.543045
C5    C     C_R   0.325281 0.453323 0.171595 0.714730
C6    C     C_R   0.674627 0.546716 0.828296 0.721262
C7    C     C_R   0.174720 0.953327 0.328406 0.714753
C8    C     C_R   0.825374 0.046713 0.671705 0.721408
O17   O     O_3   0.251670 0.448440 0.290760 -0.361764
O18   O     O_3   0.748330 0.551560 0.709240 -0.363362
O19   O     O_3   0.248330 0.948440 0.209240 -0.361735
O20   O     O_3   0.751670 0.051560 0.790760 -0.363328
V1    V     V_3+5 0.249690 0.173030 0.242440 1.520002
V2    V     V_3+5 0.750310 0.826970 0.757560 1.526961
V3    V     V_3+5 0.250310 0.673030 0.257560 1.519990
V4    V     V_3+5 0.749690 0.326970 0.742440 1.526902
H1    H     H_    0.046017 0.287308 0.460440 0.115919
H2    H     H_    0.955248 0.713104 0.541095 0.115308
H3    H     H_    0.454064 0.787307 0.039670 0.115910
H4    H     H_    0.544681 0.213109 0.958809 0.115287
C9    C     C_R   0.981964 0.174713 0.521030 -0.153354
C10   C     C_R   0.019347 0.825696 0.480567 -0.150343
C11   C     C_R   0.518085 0.674718 0.979036 -0.153324
C12   C     C_R   0.480616 0.325695 0.019382 -0.150339
H5    H     H_    0.967981 0.310801 0.536242 0.113693
H6    H     H_    0.033302 0.689603 0.465330 0.114562
H7    H     H_    0.532100 0.810807 0.963869 0.113699
H8    H     H_    0.466627 0.189600 0.034573 0.114557
C13   C     C_R   0.955728 0.013714 0.544247 0.134199
C14   C     C_R   0.045492 0.986696 0.457231 0.134760
C15   C     C_R   0.544278 0.513720 0.955761 0.134183
C16   C     C_R   0.454513 0.486694 0.042775 0.134765
C17   C     C_R   0.974821 0.839115 0.523749 -0.153007
C18   C     C_R   0.026482 0.161296 0.477833 -0.152464
C19   C     C_R   0.525142 0.339118 0.976201 -0.153028
C20   C     C_R   0.473567 0.661296 0.022232 -0.152456
C21   C     C_1   0.909467 0.027301 0.588930 -0.053315
C22   C     C_1   0.091375 0.973069 0.412077 -0.049848
C23   C     C_1   0.590537 0.527310 0.911076 -0.053327
C24   C     C_1   0.408629 0.473061 0.087927 -0.049845
C25   C     C_1   0.129498 0.962959 0.374152 -0.161831
C26   C     C_1   0.870974 0.037255 0.626408 -0.159092
C27   C     C_1   0.370504 0.462950 0.125850 -0.161833
C28   C     C_1   0.629029 0.537264 0.873596 -0.159119
C29   C     C_R   0.420921 0.101941 0.381316 -0.197995
C30   C     C_R   0.576628 0.906878 0.621331 -0.201491
C31   C     C_R   0.079133 0.602034 0.118621 -0.197840
C32   C     C_R   0.923283 0.406530 0.878762 -0.201171
C33   C     C_R   0.378346 0.965100 0.387256 -0.159958
C34   C     C_R   0.620751 0.037468 0.613883 -0.156194
C35   C     C_R   0.121674 0.465072 0.112720 -0.159974
C36   C     C_R   0.879245 0.537478 0.886125 -0.156380
C37   C     C_R   0.382293 0.845494 0.441460 0.346431
C38   C     C_R   0.617002 0.157702 0.559962 0.390546
C39   C     C_R   0.117692 0.345280 0.058560 0.346450
C40   C     C_R   0.883076 0.657999 0.939973 0.390565
C41   C     C_R   0.427637 0.872274 0.490921 -0.129912
C42   C     C_R   0.568492 0.144018 0.513652 -0.081591
C43   C     C_R   0.072323 0.371923 0.009110 -0.129858
C44   C     C_R   0.931575 0.644214 0.986289 -0.081564
C45   C     C_R   0.472812 0.002937 0.480779 -0.087555
C46   C     C_R   0.522204 0.018076 0.525164 -0.083856
C47   C     C_R   0.027204 0.502845 0.019201 -0.087429
C48   C     C_R   0.977805 0.517997 0.974826 -0.083747
C49   C     C_R   0.468947 0.117536 0.425787 0.007624
C50   C     C_R   0.526011 0.903019 0.580157 -0.024895
C51   C     C_R   0.031112 0.617629 0.074151 0.007724
C52   C     C_R   0.973915 0.402630 0.919909 -0.024810
C53   C     C_R   0.429614 0.773797 0.550326 0.379959
C54   C     C_R   0.564521 0.250217 0.455942 0.352416
C55   C     C_R   0.070243 0.272966 0.949789 0.379565
C56   C     C_R   0.935578 0.750533 0.043973 0.352546
C57   C     C_R   0.478798 0.786691 0.593751 0.342184
C58   C     C_R   0.513651 0.244907 0.414892 0.286378
C59   C     C_R   0.021043 0.285855 0.906384 0.342176
C60   C     C_R   0.986439 0.745132 0.085030 0.286472
H9    H     H_    0.417885 0.191400 0.339411 0.173475
H10   H     H_    0.581500 0.810614 0.661116 0.160862
H11   H     H_    0.082195 0.691613 0.160498 0.173515
H12   H     H_    0.918332 0.310001 0.839060 0.161032
Cl1   Cl    Cl    0.332299 0.657766 0.444304 -0.645519
Cl2   Cl    Cl    0.674157 0.320718 0.551755 -0.620190
Cl3   Cl    Cl    0.167684 0.157528 0.055775 -0.645599
Cl4   Cl    Cl    0.826051 0.821555 0.948087 -0.620017
O21   O     O_3   0.384242 0.660940 0.567339 -0.502407
C61   C     C_3   0.340736 0.772588 0.593404 0.190918
H13   H     H_    0.323283 0.878084 0.558163 0.132216
H14   H     H_    0.357881 0.846141 0.637346 0.078978
C62   C     C_3   0.290462 0.649271 0.611534 -0.652329
H15   H     H_    0.306348 0.543438 0.647227 0.206569
H16   H     H_    0.256382 0.735223 0.632795 0.156278
H17   H     H_    0.270898 0.577527 0.568245 0.255381
O22   O     O_3   0.609550 0.363629 0.438600 -0.514551
C63   C     C_3   0.643379 0.265333 0.395412 0.184289
H18   H     H_    0.616762 0.223401 0.351326 0.125619
H19   H     H_    0.663099 0.138819 0.418726 0.123355
C64   C     C_3   0.692434 0.390229 0.375091 -0.648752
H20   H     H_    0.720715 0.432124 0.417766 0.254199
H21   H     H_    0.719320 0.314579 0.341087 0.157463
H22   H     H_    0.673954 0.516785 0.351031 0.213450
O23   O     O_3   0.115483 0.159363 0.932892 -0.502359
C65   C     C_3   0.159042 0.270137 0.906507 0.191120
H23   H     H_    0.176684 0.375963 0.941521 0.132185
H24   H     H_    0.141884 0.343240 0.862494 0.078851
C66   C     C_3   0.209129 0.145981 0.888420 -0.652358
H25   H     H_    0.193014 0.039527 0.853047 0.206701
H26   H     H_    0.243200 0.231181 0.866770 0.156160
H27   H     H_    0.228791 0.074958 0.931795 0.255311
O24   O     O_3   0.890571 0.864048 0.061310 -0.514558
C67   C     C_3   0.856687 0.765780 0.104450 0.184233
H28   H     H_    0.883272 0.723673 0.148537 0.125589
H29   H     H_    0.836931 0.639374 0.081091 0.123282
C68   C     C_3   0.807664 0.890806 0.124777 -0.648791
H30   H     H_    0.779415 0.932882 0.082098 0.254133
H31   H     H_    0.780735 0.815181 0.158744 0.157477
H32   H     H_    0.826180 0.017257 0.148880 0.213454
O25   O     O_3   0.480807 0.675605 0.648299 -0.534023
C69   C     C_3   0.469199 0.783026 0.703136 0.115107
H33   H     H_    0.443373 0.911603 0.691942 0.086398
H34   H     H_    0.510762 0.825938 0.728851 0.110716
C70   C     C_3   0.436096 0.664217 0.749097 -0.686182
H35   H     H_    0.462442 0.540167 0.763917 0.222219
H36   H     H_    0.427245 0.746247 0.792570 0.170408
H37   H     H_    0.393972 0.617752 0.725457 0.223300
O26   O     O_3   0.510976 0.351198 0.359445 -0.558744
C71   C     C_3   0.490958 0.530769 0.374175 0.118601
H38   H     H_    0.521634 0.601454 0.409780 0.159013
H39   H     H_    0.446826 0.524150 0.393446 0.158919
C72   C     C_3   0.486844 0.646393 0.313014 -0.699361
H40   H     H_    0.454244 0.584446 0.277660 0.213520
H41   H     H_    0.473305 0.790267 0.323957 0.180455
H42   H     H_    0.530015 0.651447 0.291762 0.228488
O27   O     O_3   0.018886 0.174107 0.851991 -0.533945
C73   C     C_3   0.030522 0.280698 0.796976 0.115129
H43   H     H_    0.056494 0.409126 0.807943 0.086179
H44   H     H_    0.988972 0.323758 0.771262 0.110601
C74   C     C_3   0.063420 0.160898 0.751121 -0.686197
H45   H     H_    0.036899 0.037018 0.736504 0.222116
H46   H     H_    0.072310 0.242291 0.707523 0.170441
H47   H     H_    0.105516 0.114152 0.774761 0.223269
O28   O     O_3   0.989113 0.851376 0.140490 -0.558767
C75   C     C_3   0.009142 0.030953 0.125794 0.118618
H48   H     H_    0.978499 0.101656 0.090159 0.159025
H49   H     H_    0.053294 0.024325 0.106573 0.159093
C76   C     C_3   0.013200 0.146556 0.186962 -0.699349
H50   H     H_    0.045771 0.084609 0.222345 0.213523
H51   H     H_    0.026744 0.290441 0.176043 0.180423
H52   H     H_    0.970006 0.151585 0.208169 0.228507

loop_
_geom_bond_atom_site_label_1
_geom_bond_atom_site_label_2
_ccdc_geom_bond_type
O17   V3    S    
C39   C43   A    
O1    C5    A    
C67   H28   S    
C55   C59   A    
O19   V1    S    
O13   V1    S    
O3    C7    A    
C16   C24   S    
C40   C44   A    
O15   V3    S    
C76   H52   S    
C69   C70   S    
C40   Cl4   S    
C76   H50   S    
C10   C17   A    
C34   C38   A    
C45   C46   A    
O7    C3    A    
C51   C60   A    
C62   H16   S    
O28   C75   S    
C50   C57   A    
C32   C36   A    
C15   C23   S    
C5    C27   S    
C6    C28   S    
O4    C8    A    
C29   H9    S    
C31   H11   S    
O1    V3    S    
C61   C62   S    
O2    V4    S    
O3    V1    S    
C65   H23   S    
C32   C52   A    
C66   H27   S    
C75   C76   S    
C76   H51   S    
C63   H18   S    
C1    O15   A    
C56   C60   A    
C2    O16   A    
C73   C74   S    
C38   C42   A    
C37   C41   A    
O14   V2    S    
C52   C59   A    
C45   C49   A    
O8    C4    A    
C74   H46   S    
C44   C56   A    
C12   H8    S    
C48   C52   A    
C64   H22   S    
O11   C7    A    
C11   C20   A    
C30   C50   A    
C70   H35   S    
C13   C21   S    
O12   C8    A    
C23   C28   T    
C75   H49   S    
C71   C72   S    
O24   C67   S    
O10   V2    S    
C72   H41   S    
C72   H40   S    
O5    V1    S    
C11   H7    S    
C70   H37   S    
C31   C35   A    
O7    V3    S    
C30   C34   A    
O8    V4    S    
O21   C61   S    
C54   O22   S    
C57   O25   S    
C32   H12   S    
C54   C58   A    
C59   O27   S    
C53   C57   A    
O18   V4    S    
C69   H34   S    
C67   C68   S    
H1    C18   S    
C39   Cl3   S    
O4    V2    S    
C31   C51   A    
C60   O28   S    
C65   C66   S    
C1    C35   S    
O5    C1    A    
C56   O24   S    
C70   H36   S    
C46   C50   A    
C13   C17   A    
C36   C40   A    
C14   C22   S    
C4    O14   A    
O9    C5    A    
C62   H17   S    
C42   C54   A    
C74   H47   S    
C61   H14   S    
C63   C64   S    
C41   C53   A    
C66   H25   S    
H4    C19   S    
C7    C25   S    
C49   C58   A    
C65   H24   S    
C43   C55   A    
O6    V2    S    
C30   H10   S    
O25   C69   S    
C73   H44   S    
C9    C13   A    
C72   H42   S    
C53   O21   S    
C11   C15   A    
C64   H20   S    
O16   V4    S    
O9    V1    S    
C12   C16   A    
C3    O13   A    
H2    C17   S    
C67   H29   S    
C73   H43   S    
C3    C33   S    
C44   C48   A    
O6    C2    A    
C15   C19   A    
C21   C26   T    
O11   V3    S    
C69   H33   S    
C2    C36   S    
O12   V4    S    
C12   C19   A    
C62   H15   S    
C14   C18   A    
O23   C65   S    
C24   C27   T    
C68   H32   S    
O20   V2    S    
C68   H30   S    
C29   C49   A    
O27   C73   S    
C10   C14   A    
C47   C51   A    
C9    C18   A    
O10   C6    A    
C75   H48   S    
C4    C34   S    
C33   C37   A    
O2    C6    A    
C35   C39   A    
C55   O23   S    
C9    H5    S    
C61   H13   S    
C63   H19   S    
C66   H26   S    
C58   O26   S    
C47   C48   A    
C10   H6    S    
C29   C33   A    
C16   C20   A    
C8    C26   S    
C42   C46   A    
O22   C63   S    
H3    C20   S    
C41   C45   A    
C71   H38   S    
C68   H31   S    
C74   H45   S    
O26   C71   S    
C43   C47   A    
C71   H39   S    
C38   Cl2   S    
C64   H21   S    
C22   C25   T    
C37   Cl1   S    
