data_mof_unit_50508.cif
_audit_creation_date              2012-10-26T18:33:38-0400
_audit_creation_method            fapswitch 2.2
_symmetry_space_group_name_H-M    P1
_symmetry_Int_Tables_number       1
_space_group_crystal_system       triclinic
_cell_length_a                    15.010278
_cell_length_b                    13.851857
_cell_length_c                    10.749038
_cell_angle_alpha                 89.132031
_cell_angle_beta                  87.439402
_cell_angle_gamma                 90.845815
_cell_volume                      2232.18802307

loop_
_atom_site_label
_atom_site_type_symbol
_atom_type_description
_atom_site_fract_x
_atom_site_fract_y
_atom_site_fract_z
_atom_type_partial_charge
C1    C     C_R   0.328871 0.499368 0.498800 0.535916
C2    C     C_R   0.039034 0.374082 0.658605 -0.138309
C3    C     C_R   0.089371 0.436367 0.578078 0.014758
C4    C     C_R   0.501972 0.500807 0.260082 0.542420
C5    C     C_R   0.046418 0.499195 0.496318 0.060147
C6    C     C_R   0.096819 0.561280 0.413953 0.011537
C7    C     C_R   0.053391 0.624815 0.334898 -0.139155
C8    C     C_R   0.960373 0.627303 0.337869 -0.137520
C9    C     C_R   0.182029 0.437521 0.578701 -0.155736
C10   C     C_R   0.232154 0.497918 0.495993 -0.016913
C11   C     C_R   0.189777 0.558923 0.412889 -0.148268
C12   C     C_3   0.581827 0.442189 0.924569 -0.234319
C13   C     C_R   0.424386 0.794772 0.535042 0.158685
C14   C     C_R   0.422543 0.200233 0.526954 0.157080
C15   C     C_R   0.576328 0.794461 0.461006 0.013182
C16   C     C_R   0.576960 0.208080 0.464984 0.010207
C17   C     C_R   0.579573 0.897421 0.458152 -0.022811
C18   C     C_R   0.579743 0.104951 0.459974 -0.024338
C19   C     C_R   0.671012 0.500624 0.499429 0.546493
C20   C     C_R   0.500474 0.947769 0.480082 0.039679
C21   C     C_R   0.500529 0.051000 0.479322 0.042053
C22   C     C_R   0.420940 0.895266 0.507219 0.002460
C23   C     C_R   0.816830 0.566688 0.421856 -0.142991
C24   C     C_R   0.420668 0.099748 0.500358 -0.005000
C25   C     C_R   0.658923 0.951584 0.432737 -0.141990
C26   C     C_R   0.659093 0.053984 0.434363 -0.142578
C27   C     C_R   0.340498 0.045407 0.497414 -0.158534
C28   C     C_R   0.340564 0.945447 0.506790 -0.149332
C29   C     C_R   0.500638 0.499768 0.740316 0.533071
C30   C     C_3   0.514587 0.606510 0.068759 -0.231246
C31   C     C_3   0.412958 0.460808 0.080245 -0.229136
C32   C     C_3   0.511140 0.605789 0.926308 -0.225845
C33   C     C_3   0.414563 0.455154 0.937364 -0.245311
C34   C     C_R   0.767494 0.501725 0.499660 -0.008916
C35   C     C_3   0.580427 0.440353 0.068404 -0.234678
C36   C     C_3   0.502727 0.502235 0.122401 0.047921
C37   C     C_3   0.501976 0.500509 0.878827 0.049870
C38   C     C_3   0.358118 0.754429 0.635270 -0.228648
C39   C     C_3   0.262993 0.736594 0.593641 -0.423636
C40   C     C_3   0.340469 0.236557 0.601306 -0.218951
C41   C     C_3   0.360671 0.281122 0.725482 -0.388612
C42   C     C_R   0.810153 0.436516 0.576804 -0.142883
C43   C     C_R   0.902871 0.436341 0.577829 0.011181
C44   C     C_R   0.953025 0.500278 0.497548 0.058927
C45   C     C_R   0.909835 0.565317 0.418679 0.013015
C46   C     C_R   0.946220 0.373491 0.657732 -0.138397
Cu1   Cu    Cu3+1 0.499990 0.597420 0.500010 0.908094
Cu2   Cu    Cu3+1 0.499990 0.402580 0.500010 0.912863
H1    H     H_    0.579591 0.637825 0.095586 0.119508
H2    H     H_    0.721158 0.914869 0.413795 0.101638
H3    H     H_    0.721474 0.093135 0.416720 0.103378
H4    H     H_    0.276474 0.079305 0.489438 0.101210
H5    H     H_    0.276904 0.908960 0.508890 0.117586
H6    H     H_    0.460915 0.653697 0.107096 0.131755
H7    H     H_    0.357246 0.507480 0.113288 0.109355
H8    H     H_    0.453441 0.649194 0.897644 0.117093
H9    H     H_    0.355360 0.491781 0.900942 0.098787
H10   H     H_    0.572864 0.640977 0.884617 0.130758
H11   H     H_    0.410758 0.377905 0.913934 0.116138
H12   H     H_    0.400016 0.387461 0.121596 0.130090
H13   H     H_    0.645270 0.468425 0.100325 0.105768
H14   H     H_    0.572594 0.364315 0.102582 0.133017
H15   H     H_    0.645614 0.475343 0.886825 0.110619
H16   H     H_    0.578735 0.366841 0.890323 0.125562
H17   H     H_    0.782726 0.616353 0.361905 0.102093
H18   H     H_    0.770943 0.387150 0.637328 0.110792
H19   H     H_    0.908339 0.324386 0.719984 0.105177
H20   H     H_    0.260958 0.735164 0.490653 0.161708
H21   H     H_    0.236442 0.667138 0.633720 0.151435
H22   H     H_    0.217550 0.793051 0.630143 0.117587
H23   H     H_    0.071484 0.325494 0.721642 0.104279
H24   H     H_    0.382371 0.687554 0.677100 0.192977
H25   H     H_    0.355188 0.805529 0.714140 0.100295
H26   H     H_    0.428111 0.261127 0.754709 0.167956
H27   H     H_    0.352504 0.360056 0.719983 0.171132
H28   H     H_    0.311977 0.255265 0.800211 0.089458
H29   H     H_    0.296622 0.278640 0.542379 0.154632
H30   H     H_    0.294999 0.176744 0.632472 0.098520
H31   H     H_    0.214674 0.393150 0.645746 0.094587
H32   H     H_    0.229310 0.605000 0.348554 0.106668
H33   H     H_    0.091351 0.672996 0.271537 0.103575
H34   H     H_    0.927958 0.677300 0.276641 0.103725
H35   H     H_    0.636098 0.755409 0.435842 0.124102
H36   H     H_    0.637609 0.248901 0.442967 0.129767
N1    N     N_R   0.499930 0.743810 0.499950 -0.238269
N2    N     N_R   0.499930 0.256190 0.499950 -0.224907
O1    O     O_R   0.370250 0.582280 0.500040 -0.504133
O2    O     O_R   0.370250 0.417720 0.500040 -0.507550
O3    O     O_R   0.499970 0.582270 0.317700 -0.504659
O4    O     O_R   0.499970 0.417730 0.317700 -0.500734
O5    O     O_R   0.629730 0.582260 0.499980 -0.509467
O6    O     O_R   0.629730 0.417740 0.499980 -0.513588
O7    O     O_R   0.500000 0.582270 0.682320 -0.523150
O8    O     O_R   0.500000 0.417730 0.682320 -0.511772

loop_
_geom_bond_atom_site_label_1
_geom_bond_atom_site_label_2
_ccdc_geom_bond_type
C1    O1    A    
C30   C32   S    
C4    C36   S    
C23   C45   A    
C18   C21   A    
C39   H20   S    
C35   C36   S    
C18   C26   A    
C24   C27   A    
C32   H10   S    
C7    C8    A    
C2    C46   A    
C30   H6    S    
Cu2   O8    S    
C8    H34   S    
C5    C6    A    
Cu1   N1    S    
C29   O8    A    
C12   H16   S    
C16   H36   S    
C17   C20   A    
C9    H31   S    
C14   C24   A    
C12   C37   S    
C25   H2    S    
C19   O6    A    
C41   H26   S    
C8    C45   A    
C34   C42   A    
Cu2   O2    S    
C9    C10   A    
C15   N1    A    
C1    O2    A    
C33   H11   S    
C22   C28   A    
C16   N2    A    
Cu1   O3    S    
C4    O4    A    
Cu1   O7    S    
C38   H24   S    
C1    C10   S    
C14   N2    A    
C11   H32   S    
C6    C11   A    
C12   H15   S    
C15   H35   S    
C25   C26   A    
C33   C37   S    
Cu1   O1    S    
C31   H12   S    
C43   C44   A    
C3    C9    A    
C41   H27   S    
Cu1   Cu2   S    
C23   C34   A    
C31   C33   S    
C39   H21   S    
C35   H13   S    
C32   C37   S    
C12   C35   S    
C13   C38   S    
C40   C41   S    
C7    H33   S    
C30   H1    S    
C20   C22   A    
C40   H30   S    
C42   C43   A    
C29   C37   S    
C2    H23   S    
C27   H4    S    
C4    O3    A    
C15   C17   A    
C33   H9    S    
C40   H29   S    
Cu1   O5    S    
C5    C44   A    
C44   C45   A    
C3    C5    A    
C19   C34   S    
C28   H5    S    
C6    C7    A    
C30   C36   S    
C17   C25   A    
C23   H17   S    
C2    C3    A    
C46   H19   S    
C26   H3    S    
C41   H28   S    
C29   O7    A    
C38   C39   S    
C39   H22   S    
C13   C22   A    
C35   H14   S    
Cu2   N2    S    
C43   C46   A    
C19   O5    A    
C10   C11   A    
C14   C40   S    
C20   C21   A    
C16   C18   A    
Cu2   O6    S    
C21   C24   A    
C13   N1    A    
C27   C28   A    
C42   H18   S    
C31   C36   S    
Cu2   O4    S    
C31   H7    S    
C32   H8    S    
C38   H25   S    
