data_mof_unit_51236.cif
_audit_creation_date              2012-12-10T18:50:03-0500
_audit_creation_method            fapswitch 2.2
_symmetry_space_group_name_H-M    P1
_symmetry_Int_Tables_number       1
_space_group_crystal_system       triclinic
_cell_length_a                    10.704424
_cell_length_b                    9.829515
_cell_length_c                    10.642876
_cell_angle_alpha                 89.518821
_cell_angle_beta                  90.404825
_cell_angle_gamma                 89.855499
_cell_volume                      1119.76475067

loop_
_atom_site_label
_atom_site_type_symbol
_atom_type_description
_atom_site_fract_x
_atom_site_fract_y
_atom_site_fract_z
_atom_type_partial_charge
Br1   Br    Br    0.773085 0.428602 0.859717 -0.574110
Br2   Br    Br    0.570297 0.204325 0.898697 -0.560634
C1    C     C_R   0.260301 0.500168 0.499338 0.890826
C2    C     C_R   0.577903 0.927101 0.578255 -0.079939
C3    C     C_R   0.422001 0.928931 0.421639 -0.072253
C4    C     C_R   0.421824 0.072933 0.421816 -0.063233
C5    C     C_R   0.502692 0.500715 0.257795 0.847366
C6    C     C_R   0.740245 0.499936 0.500607 0.945215
C7    C     C_R   0.503518 0.499347 0.742597 0.906502
C8    C     C_3   0.525505 0.648116 0.070477 -0.392650
C9    C     C_3   0.380126 0.445415 0.071675 -0.394854
C10   C     C_3   0.535030 0.644393 0.927979 -0.423646
C11   C     C_3   0.376168 0.456624 0.927949 -0.425405
C12   C     C_3   0.608811 0.395925 0.932904 0.478587
C13   C     C_3   0.616350 0.412482 0.076810 -0.424114
C14   C     C_3   0.505972 0.501720 0.121890 0.095204
C15   C     C_3   0.507009 0.497877 0.879427 0.058049
C16   C     C_3   0.873523 0.162526 0.421617 -0.714723
C17   C     C_3   0.919736 0.749513 0.752360 -0.746696
C18   C     C_R   0.065754 0.398655 0.435489 -0.242905
C19   C     C_R   0.066745 0.603027 0.563077 -0.237713
C20   C     C_R   0.937298 0.397051 0.435836 0.169935
C21   C     C_R   0.937983 0.603232 0.566498 0.205869
C22   C     C_R   0.873409 0.499914 0.501329 -0.112813
C23   C     C_R   0.128689 0.500537 0.499354 -0.088692
C24   C     C_R   0.578420 0.071001 0.577655 -0.031231
H1    H     H_    0.612335 0.693401 0.110253 0.189742
H2    H     H_    0.344705 0.358485 0.887401 0.217819
H3    H     H_    0.705871 0.461357 0.104881 0.173085
H4    H     H_    0.615897 0.311342 0.124437 0.213167
H5    H     H_    0.116306 0.321597 0.383915 0.153143
H6    H     H_    0.119030 0.681904 0.610468 0.167966
H7    H     H_    0.641677 0.124815 0.639106 0.178132
H8    H     H_    0.639633 0.871836 0.641380 0.146508
H9    H     H_    0.900086 0.294483 0.272016 0.225365
H10   H     H_    0.809603 0.095077 0.368300 0.231958
H11   H     H_    0.840957 0.167186 0.520355 0.256576
H12   H     H_    0.369283 0.336932 0.100433 0.202741
H13   H     H_    0.969164 0.118343 0.419998 0.217018
H14   H     H_    0.849985 0.790025 0.572773 0.224816
H15   H     H_    0.844329 0.802484 0.803879 0.244962
H16   H     H_    0.999332 0.820799 0.741413 0.220640
H17   H     H_    0.949929 0.659509 0.808678 0.278869
H18   H     H_    0.359744 0.875007 0.359045 0.127553
H19   H     H_    0.359368 0.128339 0.359412 0.123521
H20   H     H_    0.445642 0.714431 0.097412 0.194292
H21   H     H_    0.300281 0.503205 0.111584 0.160906
H22   H     H_    0.467025 0.719591 0.888407 0.205593
H23   H     H_    0.305762 0.534634 0.898983 0.174764
H24   H     H_    0.629839 0.677491 0.898594 0.213082
N1    N     N_R   0.499970 0.857200 0.499970 -0.085058
N2    N     N_R   0.499970 0.142800 0.499970 -0.082030
N3    N     N_2   0.872821 0.296800 0.364758 -0.295910
N4    N     N_2   0.872805 0.708740 0.630443 -0.283828
O1    O     O_R   0.316750 0.614620 0.499990 -0.629802
O2    O     O_R   0.316750 0.385380 0.499990 -0.621853
O3    O     O_R   0.499970 0.614670 0.314790 -0.633056
O4    O     O_R   0.499970 0.385330 0.314790 -0.629263
O5    O     O_R   0.683220 0.614710 0.500010 -0.630187
O6    O     O_R   0.683220 0.385290 0.500010 -0.584374
O7    O     O_R   0.500010 0.614660 0.685200 -0.629249
O8    O     O_R   0.500010 0.385340 0.685200 -0.576829
Zn1   Zn    Zn3+2 0.499980 0.653120 0.500000 0.944697
Zn2   Zn    Zn3+2 0.499980 0.346880 0.500000 0.982582

loop_
_geom_bond_atom_site_label_1
_geom_bond_atom_site_label_2
_ccdc_geom_bond_type
C10   C15   S    
C8    H1    S    
C9    H12   S    
C10   H24   S    
C21   C22   A    
O2    Zn2   S    
C11   H2    S    
O3    Zn1   S    
C7    O7    A    
C4    H19   S    
C24   N2    A    
H9    N3    S    
C2    H8    S    
C9    C14   S    
C24   H7    S    
C9    H21   S    
C10   H22   S    
N2    Zn2   S    
C17   H16   S    
C11   C15   S    
C16   H13   S    
C8    C14   S    
C6    O6    A    
C5    O3    A    
C9    C11   S    
C12   C15   S    
C16   H10   S    
C8    C10   S    
C13   H4    S    
C11   H23   S    
C13   C14   S    
C17   N4    S    
C7    C15   S    
C5    C14   S    
C6    C22   S    
C3    H18   S    
C18   C20   A    
O6    Zn2   S    
C13   H3    S    
C20   N3    S    
H14   N4    S    
C19   C21   A    
C6    O5    A    
O4    Zn2   S    
C3    C4    A    
Br2   C12   S    
C19   H6    S    
C20   C22   A    
C2    C24   A    
C18   C23   A    
C2    N1    A    
C7    O8    A    
C8    H20   S    
C1    C23   S    
N1    Zn1   S    
C21   N4    S    
C1    O2    A    
O7    Zn1   S    
C19   C23   A    
C12   C13   S    
C3    N1    A    
O8    Zn2   S    
Br1   C12   S    
C5    O4    A    
C16   N3    S    
C4    N2    A    
C1    O1    A    
O5    Zn1   S    
C16   H11   S    
C17   H15   S    
C17   H17   S    
C18   H5    S    
O1    Zn1   S    
