data_mof_unit_68402.cif
_audit_creation_date              2012-12-11T18:15:38-0500
_audit_creation_method            fapswitch 2.2
_symmetry_space_group_name_H-M    P1
_symmetry_Int_Tables_number       1
_space_group_crystal_system       triclinic
_cell_length_a                    20.111413
_cell_length_b                    20.248202
_cell_length_c                    8.589344
_cell_angle_alpha                 89.75553
_cell_angle_beta                  91.61304
_cell_angle_gamma                 90.274105
_cell_volume                      3496.29633659

loop_
_atom_site_label
_atom_site_type_symbol
_atom_type_description
_atom_site_fract_x
_atom_site_fract_y
_atom_site_fract_z
_atom_type_partial_charge
Ba1   Ba    Ba6+2 0.999980 0.452130 0.155200 1.648494
Ba2   Ba    Ba6+2 0.999980 0.547870 0.655200 1.639898
Ba3   Ba    Ba6+2 0.499980 0.952130 0.155200 1.648499
Ba4   Ba    Ba6+2 0.499980 0.047870 0.655200 1.639837
C1    C     C_3   0.030914 0.122541 0.234827 -0.199705
C2    C     C_R   0.123800 0.654236 0.173531 -0.304407
C3    C     C_3   0.455270 0.870746 0.656929 -0.252721
C4    C     C_2   0.058840 0.185402 0.825339 0.436921
C5    C     C_2   0.065704 0.811402 0.366348 0.472174
C6    C     C_2   0.558841 0.685427 0.825372 0.436895
C7    C     C_2   0.565695 0.311382 0.366318 0.472150
C8    C     C_2   0.787302 0.416709 0.793937 0.417166
C9    C     C_2   0.810018 0.583836 0.369158 0.418800
C10   C     C_2   0.287307 0.916712 0.793927 0.417157
C11   C     C_2   0.310012 0.083836 0.369148 0.418825
C12   C     C_R   0.624191 0.846583 0.674454 -0.284749
C13   C     C_R   0.623801 0.154235 0.173531 -0.304418
C14   C     C_R   0.139458 0.297529 0.569954 0.011352
C15   C     C_R   0.137569 0.705161 0.071120 0.021057
C16   C     C_R   0.639459 0.797530 0.569953 0.011341
C17   C     C_R   0.637570 0.205161 0.071121 0.021058
C18   C     C_R   0.186502 0.249499 0.612249 -0.122161
C19   C     C_R   0.183020 0.754704 0.115766 -0.091309
C20   C     C_R   0.686503 0.749499 0.612248 -0.122154
C21   C     C_3   0.050366 0.875120 0.722586 -0.414936
C22   C     C_R   0.683022 0.254702 0.115764 -0.091279
C23   C     C_R   0.218888 0.250674 0.759862 0.013396
C24   C     C_R   0.216416 0.752052 0.262199 0.018399
C25   C     C_R   0.718888 0.750674 0.759862 0.013401
C26   C     C_R   0.716418 0.252050 0.262198 0.018437
C27   C     C_R   0.204772 0.302322 0.865184 0.010083
C28   C     C_R   0.203774 0.698618 0.365167 -0.035095
C29   C     C_R   0.704773 0.802322 0.865185 0.010132
C30   C     C_R   0.703775 0.198617 0.365167 -0.035083
C31   C     C_R   0.801431 0.701815 0.944922 -0.025281
C32   C     C_3   0.530948 0.622555 0.234787 -0.199729
C33   C     C_R   0.800194 0.299163 0.446197 -0.048884
C34   C     C_R   0.301432 0.201816 0.944919 -0.025458
C35   C     C_R   0.300193 0.799163 0.446195 -0.048895
C36   C     C_R   0.787838 0.754196 0.049209 0.057459
C37   C     C_R   0.787092 0.245871 0.549443 0.020220
C38   C     C_R   0.287840 0.254198 0.049204 0.057411
C39   C     C_R   0.287092 0.745872 0.549441 0.020175
C40   C     C_R   0.852584 0.654423 0.985779 0.060206
C41   C     C_R   0.852290 0.345740 0.485860 0.034857
C42   C     C_R   0.352585 0.154423 0.985777 0.060112
C43   C     C_3   0.550272 0.375091 0.722493 -0.414604
C44   C     C_R   0.352290 0.845740 0.485858 0.034885
C45   C     C_R   0.891664 0.665372 0.122614 -0.192487
C46   C     C_R   0.891496 0.334376 0.622402 -0.197315
C47   C     C_R   0.391664 0.165372 0.122613 -0.192574
C48   C     C_R   0.391496 0.834375 0.622400 -0.197304
C49   C     C_3   0.984485 0.185436 0.807902 0.347301
C50   C     C_3   0.993408 0.811630 0.316510 0.260827
C51   C     C_3   0.484487 0.685437 0.807920 0.347267
C52   C     C_3   0.493395 0.311642 0.316514 0.260759
C53   C     C_R   0.872240 0.712410 0.232101 0.069819
C54   C     C_R   0.155181 0.350360 0.821121 0.078092
C55   C     C_R   0.871103 0.287858 0.733394 0.071084
C56   C     C_R   0.372239 0.212409 0.232099 0.069873
C57   C     C_R   0.371103 0.787858 0.733393 0.071078
C58   C     C_R   0.821350 0.756844 0.194627 -0.041543
C59   C     C_R   0.820404 0.242917 0.695268 -0.143947
C60   C     C_R   0.321351 0.256845 0.194623 -0.041416
C61   C     C_R   0.320404 0.742917 0.695265 -0.143961
C62   C     C_R   0.765142 0.700777 0.801744 -0.047350
C63   C     C_R   0.762333 0.302206 0.305304 0.010650
C64   C     C_R   0.265142 0.200777 0.801742 -0.047391
C65   C     C_R   0.154821 0.650001 0.320188 0.051065
C66   C     C_R   0.262331 0.802207 0.305305 0.010641
C67   C     C_3   0.959757 0.116006 0.767541 -0.382087
C68   C     C_3   0.970954 0.879338 0.255354 -0.216710
C69   C     C_3   0.459781 0.615998 0.767573 -0.382118
C70   C     C_3   0.470960 0.379369 0.255441 -0.216540
C71   C     C_3   0.776029 0.487565 0.753872 0.250963
C72   C     C_3   0.788780 0.524861 0.275909 0.195382
C73   C     C_3   0.276028 0.987568 0.753870 0.250964
C74   C     C_3   0.288778 0.024859 0.275905 0.195383
C75   C     C_3   0.701819 0.493738 0.706310 -0.287094
C76   C     C_R   0.655181 0.850361 0.821120 0.078143
C77   C     C_3   0.717728 0.534085 0.206151 -0.175712
C78   C     C_3   0.201817 0.993738 0.706324 -0.287113
C79   C     C_3   0.217726 0.034078 0.206142 -0.175689
C80   C     C_3   0.193689 0.537865 0.003068 0.289888
C81   C     C_3   0.194672 0.463280 0.505826 0.307979
C82   C     C_3   0.693689 0.037866 0.003068 0.289887
C83   C     C_3   0.694673 0.963281 0.505828 0.307966
C84   C     C_3   0.258106 0.577855 0.010470 -0.358819
C85   C     C_3   0.259657 0.424839 0.515660 -0.376278
C86   C     C_3   0.758106 0.077855 0.010469 -0.358843
C87   C     C_R   0.654822 0.150001 0.320188 0.051060
C88   C     C_3   0.759657 0.924840 0.515663 -0.376271
C89   C     C_3   0.011992 0.192513 0.283789 0.300545
C90   C     C_3   0.016362 0.811328 0.773732 0.356319
C91   C     C_3   0.511992 0.692511 0.283795 0.300550
C92   C     C_3   0.516310 0.311293 0.773756 0.356412
C93   C     C_R   0.240788 0.303619 0.008542 -0.004279
C94   C     C_R   0.240205 0.696330 0.507927 0.004728
C95   C     C_R   0.740788 0.803618 0.008545 -0.004290
C96   C     C_R   0.740206 0.196330 0.507929 0.004753
C97   C     C_2   0.678857 0.563614 0.696197 0.525166
C98   C     C_R   0.124190 0.346582 0.674454 -0.284770
C99   C     C_2   0.691000 0.473022 0.128231 0.551326
C100  C     C_2   0.178856 0.063614 0.696185 0.525134
C101  C     C_2   0.191002 0.973009 0.128240 0.551302
C102  C     C_2   0.940455 0.196686 0.329544 0.509552
C103  C     C_2   0.944098 0.824653 0.801513 0.507648
C104  C     C_2   0.440455 0.696644 0.329568 0.509575
C105  C     C_2   0.444051 0.324596 0.801629 0.507274
C106  C     C_3   0.955137 0.628752 0.157426 -0.267487
C107  C     C_3   0.955269 0.370748 0.656931 -0.252723
C108  C     C_3   0.455138 0.128754 0.157425 -0.267496
H1    H     H_    0.018637 0.225878 0.183009 0.120197
H2    H     H_    0.683217 0.547020 0.299755 0.177417
H3    H     H_    0.493453 0.164925 0.193854 0.049228
H4    H     H_    0.446985 0.087616 0.240334 0.109016
H5    H     H_    0.446935 0.911491 0.740080 0.146819
H6    H     H_    0.493058 0.834091 0.693447 0.036894
H7    H     H_    0.481215 0.891584 0.561991 0.156417
H8    H     H_    0.087811 0.169947 0.728099 0.031323
H9    H     H_    0.086092 0.767462 0.421478 -0.009148
H10   H     H_    0.587823 0.669947 0.728172 0.031301
H11   H     H_    0.586070 0.267430 0.421421 -0.009118
H12   H     H_    0.766439 0.378494 0.719078 -0.072227
H13   H     H_    0.170555 0.968417 0.793109 0.071602
H14   H     H_    0.860032 0.585136 0.418031 0.047641
H15   H     H_    0.266442 0.878497 0.719073 -0.072236
H16   H     H_    0.360026 0.085139 0.418027 0.047644
H17   H     H_    0.183214 0.047017 0.299740 0.177450
H18   H     H_    0.175972 0.530548 0.122882 0.035348
H19   H     H_    0.176767 0.470854 0.625160 0.029107
H20   H     H_    0.675973 0.030548 0.122882 0.035351
H21   H     H_    0.676767 0.970855 0.625162 0.029108
H22   H     H_    0.156323 0.564986 0.929893 0.039351
H23   H     H_    0.157729 0.435047 0.433732 0.031057
H24   H     H_    0.656323 0.064986 0.929893 0.039361
H25   H     H_    0.018800 0.774660 0.678789 0.065751
H26   H     H_    0.657729 0.935046 0.433734 0.031053
H27   H     H_    0.296590 0.550870 0.080454 0.152411
H28   H     H_    0.298000 0.453604 0.582180 0.134605
H29   H     H_    0.796591 0.050870 0.080452 0.152384
H30   H     H_    0.798000 0.953605 0.582182 0.134598
H31   H     H_    0.250340 0.626468 0.065195 0.076434
H32   H     H_    0.252817 0.376900 0.575412 0.061348
H33   H     H_    0.750340 0.126468 0.065195 0.076446
H34   H     H_    0.752818 0.876901 0.575416 0.061369
H35   H     H_    0.276412 0.586016 0.891050 0.105299
H36   H     H_    0.518615 0.725892 0.183035 0.120187
H37   H     H_    0.277635 0.415422 0.396697 0.113760
H38   H     H_    0.776411 0.086016 0.891049 0.105298
H39   H     H_    0.777636 0.915422 0.396700 0.113753
H40   H     H_    0.998872 0.105681 0.135414 0.106068
H41   H     H_    0.049677 0.912329 0.817299 0.147472
H42   H     H_    0.498905 0.605687 0.135381 0.106079
H43   H     H_    0.524675 0.396106 0.617536 0.098195
H44   H     H_    0.083518 0.121934 0.198929 0.146121
H45   H     H_    0.024815 0.896155 0.617596 0.098275
H46   H     H_    0.583549 0.621980 0.198860 0.146091
H47   H     H_    0.518734 0.274609 0.678848 0.065722
H48   H     H_    0.602822 0.364864 0.694623 0.145534
H49   H     H_    0.980854 0.099497 0.656030 0.109085
H50   H     H_    0.917317 0.877376 0.221149 0.100573
H51   H     H_    0.480878 0.599493 0.656059 0.109106
H52   H     H_    0.417317 0.377434 0.221282 0.100678
H53   H     H_    0.089934 0.384622 0.637479 0.028292
H54   H     H_    0.090285 0.615528 0.135474 0.036628
H55   H     H_    0.589934 0.884622 0.637479 0.028279
H56   H     H_    0.590285 0.115529 0.135475 0.036642
H57   H     H_    0.196366 0.210363 0.531127 0.179638
H58   H     H_    0.692434 0.468851 0.592453 0.123429
H59   H     H_    0.191681 0.795621 0.036963 0.093139
H60   H     H_    0.696367 0.710364 0.531126 0.179637
H61   H     H_    0.691684 0.295619 0.036961 0.093148
H62   H     H_    0.809215 0.794687 0.277932 0.043082
H63   H     H_    0.808084 0.204701 0.778477 0.058038
H64   H     H_    0.309216 0.294688 0.277927 0.043076
H65   H     H_    0.308085 0.704701 0.778474 0.058051
H66   H     H_    0.233393 0.343294 0.089720 0.085886
H67   H     H_    0.233444 0.655753 0.587883 0.095770
H68   H     H_    0.733391 0.843293 0.089723 0.085867
H69   H     H_    0.717432 0.575238 0.120017 0.050668
H70   H     H_    0.733445 0.155753 0.587885 0.095756
H71   H     H_    0.773204 0.662139 0.719001 0.133250
H72   H     H_    0.769125 0.342385 0.225046 0.115251
H73   H     H_    0.273204 0.162139 0.718999 0.133266
H74   H     H_    0.269121 0.842388 0.225050 0.115248
H75   H     H_    0.025571 0.087423 0.333561 0.132776
H76   H     H_    0.102921 0.864876 0.694813 0.145561
H77   H     H_    0.525632 0.587424 0.333508 0.132809
H78   H     H_    0.549605 0.412309 0.817182 0.147479
H79   H     H_    0.972522 0.217094 0.705367 -0.091287
H80   H     H_    0.192425 0.968843 0.592481 0.123454
H81   H     H_    0.987778 0.776744 0.217698 0.003105
H82   H     H_    0.472515 0.717086 0.705373 -0.091250
H83   H     H_    0.487743 0.276775 0.217669 0.003274
H84   H     H_    0.974317 0.080382 0.860949 0.114319
H85   H     H_    0.999507 0.893578 0.151398 0.157241
H86   H     H_    0.474357 0.580380 0.860980 0.114340
H87   H     H_    0.499503 0.393616 0.151474 0.157332
H88   H     H_    0.904680 0.116007 0.753890 0.120442
H89   H     H_    0.978180 0.917636 0.346584 0.111129
H90   H     H_    0.404703 0.615980 0.753937 0.120463
H91   H     H_    0.217430 0.075226 0.119995 0.050683
H92   H     H_    0.478215 0.417650 0.346698 0.111061
H93   H     H_    0.806682 0.500626 0.653613 0.034858
H94   H     H_    0.823542 0.518572 0.179226 0.023439
H95   H     H_    0.306676 0.000633 0.653607 0.034874
H96   H     H_    0.323542 0.018570 0.179225 0.023443
H97   H     H_    0.679791 0.593842 0.800076 0.005304
H98   H     H_    0.723849 0.433411 0.097132 0.051656
H99   H     H_    0.179792 0.093850 0.800051 0.005354
H100  H     H_    0.223860 0.933417 0.097063 0.051634
H101  H     H_    0.921091 0.244142 0.362191 -0.009899
H102  H     H_    0.670552 0.468407 0.793070 0.071668
H103  H     H_    0.912385 0.844133 0.708081 0.004847
H104  H     H_    0.421072 0.744083 0.362280 -0.009974
H105  H     H_    0.412259 0.343904 0.708121 0.005143
H106  H     H_    0.980939 0.608462 0.062551 0.160262
H107  H     H_    0.993454 0.664920 0.193858 0.049251
H108  H     H_    0.946983 0.587613 0.240333 0.108988
H109  H     H_    0.946935 0.411493 0.740081 0.146816
H110  H     H_    0.993058 0.334093 0.693449 0.036889
H111  H     H_    0.981215 0.391584 0.561992 0.156419
H112  H     H_    0.480939 0.108463 0.062551 0.160269
O1    O     O_2   0.130070 0.404060 0.104920 -0.472536
O2    O     O_3   0.955268 0.795098 0.446834 -0.669913
O3    O     O_3   0.455406 0.705580 0.948272 -0.613024
O4    O     O_3   0.455261 0.295100 0.446841 -0.669955
O5    O     O_3   0.924190 0.533610 0.949240 -0.487745
O6    O     O_3   0.924190 0.466390 0.449240 -0.532605
O7    O     O_3   0.424190 0.033610 0.949240 -0.487726
O8    O     O_3   0.424190 0.966390 0.449240 -0.532603
O9    O     O_3   0.075780 0.466370 0.861070 -0.504772
O10   O     O_3   0.075780 0.533630 0.361070 -0.503022
O11   O     O_3   0.575780 0.966370 0.861070 -0.504771
O12   O     O_2   0.130070 0.595940 0.604920 -0.481678
O13   O     O_3   0.575780 0.033630 0.361070 -0.503019
O14   O     O_3   0.022320 0.344950 0.359800 -0.514550
O15   O     O_3   0.022320 0.655050 0.859800 -0.486654
O16   O     O_3   0.522320 0.844950 0.359800 -0.514527
O17   O     O_3   0.522320 0.155050 0.859800 -0.486750
O18   O     O_2   0.129482 0.284325 0.242066 -0.458087
O19   O     O_2   0.128174 0.719215 0.742147 -0.521545
O20   O     O_2   0.629479 0.784321 0.242065 -0.458066
O21   O     O_2   0.628170 0.219218 0.742146 -0.521511
O22   O     O_3   0.207476 0.476955 0.936852 -0.641225
O23   O     O_2   0.630070 0.904060 0.104920 -0.472531
O24   O     O_3   0.207677 0.524025 0.436380 -0.628976
O25   O     O_3   0.707476 0.976956 0.936852 -0.641240
O26   O     O_3   0.707677 0.024025 0.436380 -0.628978
O27   O     O_3   0.052598 0.209952 0.412646 -0.642485
O28   O     O_3   0.047772 0.789737 0.912867 -0.594658
O29   O     O_3   0.552593 0.709955 0.412658 -0.642490
O30   O     O_3   0.547771 0.289738 0.912865 -0.594628
O31   O     O_2   0.869860 0.403670 0.205810 -0.415404
O32   O     O_2   0.869860 0.596330 0.705810 -0.485749
O33   O     O_2   0.369860 0.903670 0.205810 -0.415407
O34   O     O_2   0.630070 0.095940 0.604920 -0.481675
O35   O     O_2   0.369860 0.096330 0.705810 -0.485761
O36   O     O_3   0.977590 0.344880 0.951200 -0.454308
O37   O     O_3   0.977590 0.655120 0.451200 -0.495545
O38   O     O_3   0.477590 0.844880 0.951200 -0.454274
O39   O     O_3   0.477590 0.155120 0.451200 -0.495541
O40   O     O_2   0.869183 0.286881 0.063184 -0.462278
O41   O     O_2   0.869419 0.712479 0.560950 -0.462370
O42   O     O_2   0.369179 0.786886 0.063182 -0.462275
O43   O     O_2   0.369415 0.212475 0.560942 -0.462508
O44   O     O_2   0.656477 0.585986 0.573653 -0.585788
O45   O     O_3   0.788684 0.470784 0.377906 -0.680291
O46   O     O_2   0.631760 0.468451 0.095002 -0.589647
O47   O     O_2   0.156475 0.085977 0.573634 -0.585768
O48   O     O_2   0.131756 0.968412 0.095109 -0.589588
O49   O     O_2   0.903904 0.148317 0.330345 -0.607288
O50   O     O_2   0.920266 0.813937 0.928224 -0.616108
O51   O     O_2   0.403924 0.648261 0.330313 -0.607268
O52   O     O_2   0.420308 0.314062 0.928506 -0.616219
O53   O     O_2   0.087226 0.203460 0.945166 -0.592251
O54   O     O_2   0.101659 0.859466 0.348149 -0.587253
O55   O     O_2   0.587216 0.703538 0.945168 -0.592235
O56   O     O_3   0.790245 0.525729 0.887568 -0.660298
O57   O     O_2   0.601667 0.359434 0.348123 -0.587327
O58   O     O_2   0.817458 0.401270 0.913305 -0.559888
O59   O     O_2   0.772263 0.629455 0.393296 -0.604444
O60   O     O_2   0.317469 0.901275 0.913282 -0.559895
O61   O     O_2   0.272256 0.129456 0.393274 -0.604431
O62   O     O_3   0.288684 0.970784 0.377909 -0.680285
O63   O     O_3   0.290245 0.025730 0.887569 -0.660292
O64   O     O_3   0.955415 0.205581 0.948265 -0.613036
P1    P     P_3+3 0.136530 0.426510 0.931350 0.972839
P2    P     P_3+3 0.917278 0.717602 0.423655 0.935670
P3    P     P_3+3 0.416595 0.782435 0.924886 1.023454
P4    P     P_3+3 0.417277 0.217602 0.423653 0.935526
P5    P     P_3+3 0.086633 0.713058 0.891043 0.943147
P6    P     P_3+3 0.088023 0.288759 0.391027 0.944267
P7    P     P_3+3 0.586632 0.213058 0.891047 0.943063
P8    P     P_3+3 0.588022 0.788759 0.391029 0.944289
P9    P     P_3+3 0.136530 0.573490 0.431350 0.968892
P10   P     P_3+3 0.636530 0.926510 0.931350 0.972849
P11   P     P_3+3 0.636530 0.073490 0.431350 0.968895
P12   P     P_3+3 0.863410 0.426100 0.379280 0.935590
P13   P     P_3+3 0.863410 0.573900 0.879280 0.965992
P14   P     P_3+3 0.363410 0.926100 0.379280 0.935596
P15   P     P_3+3 0.363410 0.073900 0.879280 0.965993
P16   P     P_3+3 0.916598 0.282433 0.924885 1.023410

loop_
_geom_bond_atom_site_label_1
_geom_bond_atom_site_label_2
_ccdc_geom_bond_type
C83   O26   S    
C17   C22   A    
O22   P1    S    
C46   C55   A    
Ba4   O8    S    
C48   C57   A    
C11   C74   S    
C25   C29   A    
C40   P13   S    
C23   C64   A    
Ba2   O5    S    
C81   O24   S    
C5    H9    S    
C91   O29   S    
C53   P2    S    
C108  H112  S    
C99   H98   S    
C72   H94   S    
C52   O4    S    
C23   C27   A    
C99   O46   D    
C3    H7    S    
C24   C28   A    
C82   C86   S    
C38   C93   A    
O20   P8    D    
O8    P14   S    
C31   C62   A    
C57   P3    S    
C13   C17   A    
C79   C101  S    
C12   C76   A    
Ba4   P15   S    
C15   C19   A    
O40   P16   D    
C78   H13   S    
C52   H83   S    
Ba2   O9    S    
C12   C16   A    
O37   P2    S    
C37   C96   A    
Ba1   P1    S    
C18   C23   A    
C5    O54   D    
C37   C59   A    
C33   C41   A    
C49   C67   S    
C38   C60   A    
O36   P16   S    
C67   H49   S    
C80   C84   S    
C6    H10   S    
C90   O28   S    
C29   C76   A    
C92   C105  S    
C55   C59   A    
C56   C60   A    
C31   C36   A    
C100  O47   D    
C92   O30   S    
C95   H68   S    
C69   H51   S    
C81   H19   S    
C70   H52   S    
O14   P6    S    
C82   H20   S    
C93   H66   S    
C41   C46   A    
C80   H18   S    
C28   C94   A    
C11   O61   D    
C86   H29   S    
C91   C104  S    
C57   C61   A    
C44   C48   A    
C103  H103  S    
C8    C71   S    
C90   H25   S    
C78   C100  S    
C5    C50   S    
C71   C75   S    
C7    C52   S    
C2    C65   A    
C71   H93   S    
C3    H5    S    
Ba1   P12   S    
C13   C87   A    
C86   H38   S    
C104  O51   D    
O7    P15   S    
C4    O53   D    
C67   H88   S    
C84   H27   S    
C2    C15   A    
C101  H100  S    
O3    P3    S    
O56   P13   S    
C73   C78   S    
C75   H58   S    
O43   P4    D    
C3    C48   S    
C79   H17   S    
C73   H95   S    
Ba2   O15   S    
C45   C53   A    
O38   P3    S    
C80   O22   S    
C14   C98   A    
C51   O3    S    
C30   C87   A    
C68   H85   S    
C54   P1    S    
C77   H2    S    
C6    O55   D    
C60   H64   S    
C26   C63   A    
Ba3   O16   S    
Ba1   O36   S    
C101  O48   D    
O25   P10   S    
C102  O49   D    
C73   O63   S    
Ba1   O6    S    
C90   C103  S    
C26   C30   A    
C88   H34   S    
O28   P5    S    
C41   P12   S    
O29   P8    S    
O30   P7    S    
Ba3   O7    S    
C97   H97   S    
Ba3   O33   S    
C42   C47   A    
C29   C95   A    
C107  H110  S    
C106  H107  S    
C89   C102  S    
O34   P11   D    
C85   H28   S    
C69   H86   S    
C88   H39   S    
C19   H59   S    
C19   C24   A    
C6    C51   S    
Ba2   O12   S    
C97   O44   D    
Ba3   O13   S    
C22   C26   A    
O1    P1    D    
O9    P1    S    
C83   H26   S    
Ba3   Ba4   S    
C108  H4    S    
C77   C99   S    
C15   P5    S    
C14   C18   A    
O27   P6    S    
C24   C66   A    
C13   H56   S    
C4    C49   S    
C71   O56   S    
C43   H78   S    
C32   C91   S    
C70   H92   S    
C33   C63   A    
C46   C107  S    
Ba4   O11   S    
C33   C37   A    
C20   H60   S    
C74   H96   S    
C34   C42   A    
C105  O52   D    
C105  H105  S    
Ba2   O6    S    
C51   C69   S    
Ba1   O31   S    
C51   H82   S    
O26   P11   S    
C68   H50   S    
C75   C97   S    
C47   C56   A    
Ba2   P9    S    
O31   P12   D    
C74   O62   S    
O45   P12   S    
C45   C106  S    
C62   H71   S    
C2    H54   S    
C47   C108  S    
O5    P13   S    
C17   P7    S    
C32   H42   S    
C80   H22   S    
C86   H33   S    
O33   P14   D    
C12   H55   S    
C10   C73   S    
C20   C25   A    
C74   C79   S    
C75   H102  S    
C30   C96   A    
C43   C92   S    
C54   C98   A    
C96   H70   S    
C84   H31   S    
C1    H44   S    
C85   H37   S    
C14   P6    S    
C21   C90   S    
C65   P9    S    
C83   C88   S    
Ba3   O23   S    
C52   C70   S    
O23   P10   D    
C21   H41   S    
Ba4   O7    S    
C79   H91   S    
C81   C85   S    
C9    O59   D    
C10   O60   D    
C10   H15   S    
O11   P10   S    
C72   C77   S    
C87   P11   S    
Ba1   O10   S    
C39   C61   A    
Ba3   O38   S    
C107  H111  S    
C49   H79   S    
O32   P13   D    
C104  H104  S    
C9    H14   S    
C56   P4    S    
C34   C64   A    
Ba4   O35   S    
C11   H16   S    
O41   P2    D    
C16   P8    S    
C1    H75   S    
Ba1   O1    S    
C78   H80   S    
O62   P14   S    
C7    H11   S    
O17   P7    S    
C85   H32   S    
C69   H90   S    
C22   H61   S    
O12   P9    D    
C84   H35   S    
C89   H1    S    
C27   C93   A    
Ba2   P13   S    
O6    P12   S    
C18   H57   S    
C70   H87   S    
C94   H67   S    
O13   P11   S    
C35   C44   A    
O16   P8    S    
C40   C45   A    
O39   P4    S    
C83   H21   S    
C39   C94   A    
C77   H69   S    
C36   C95   A    
C53   C58   A    
C1    H40   S    
C61   H65   S    
C27   C54   A    
O21   P7    D    
C34   C38   A    
C44   P14   S    
Ba2   O37   S    
C58   H62   S    
C36   C58   A    
Ba1   Ba2   S    
C107  H109  S    
C103  O50   D    
C50   O2    S    
C42   P15   S    
C16   C20   A    
O42   P3    D    
Ba4   P11   S    
C106  H108  S    
C32   H46   S    
C50   H81   S    
O63   P15   S    
C72   O45   S    
O64   P16   S    
C3    H6    S    
O18   P6    D    
C43   H48   S    
C32   H77   S    
C66   H74   S    
C49   O64   S    
C35   C39   A    
Ba3   P10   S    
C21   H76   S    
C8    H12   S    
C9    C72   S    
C92   H47   S    
O4    P4    S    
C31   C40   A    
C81   H23   S    
C82   H24   S    
C64   H73   S    
C98   H53   S    
Ba3   P14   S    
C21   H45   S    
O10   P9    S    
O24   P9    S    
Ba4   O17   S    
C88   H30   S    
C4    H8    S    
C55   P16   S    
C102  H101  S    
Ba4   O34   S    
C91   H36   S    
Ba2   O32   S    
Ba3   O8    S    
C1    C89   S    
C59   H63   S    
C28   C65   A    
O15   P5    S    
C76   P10   S    
Ba1   O14   S    
O19   P5    D    
C67   H84   S    
C43   H43   S    
C82   O25   S    
Ba4   O39   S    
O35   P15   D    
O2    P2    S    
C35   C66   A    
C106  H106  S    
C63   H72   S    
C25   C62   A    
Ba1   O5    S    
C50   C68   S    
C7    O57   D    
C100  H99   S    
C108  H3    S    
C89   O27   S    
C8    O58   D    
C68   H89   S    
