data_mof_unit_27048.cif
_audit_creation_date              2012-12-10T18:25:27-0500
_audit_creation_method            fapswitch 2.2
_symmetry_space_group_name_H-M    P1
_symmetry_Int_Tables_number       1
_space_group_crystal_system       triclinic
_cell_length_a                    15.017708
_cell_length_b                    13.993139
_cell_length_c                    19.030035
_cell_angle_alpha                 89.439645
_cell_angle_beta                  89.798423
_cell_angle_gamma                 89.754016
_cell_volume                      3998.81206708

loop_
_atom_site_label
_atom_site_type_symbol
_atom_type_description
_atom_site_fract_x
_atom_site_fract_y
_atom_site_fract_z
_atom_type_partial_charge
C1    C     C_R   0.326461 0.500178 0.499373 0.896567
C2    C     C_R   0.093396 0.413204 0.505141 0.103567
C3    C     C_R   0.955628 0.325677 0.518212 0.212458
C4    C     C_R   0.044273 0.672395 0.471948 0.210500
C5    C     C_R   0.048297 0.327112 0.515418 -0.300257
C6    C     C_R   0.951588 0.671149 0.475326 -0.301654
C7    C     C_R   0.577946 0.797764 0.490790 -0.050443
C8    C     C_R   0.422694 0.202305 0.512017 -0.057447
C9    C     C_R   0.421691 0.798238 0.507608 -0.046562
C10   C     C_R   0.577260 0.202034 0.487576 -0.054627
C11   C     C_R   0.419051 0.899192 0.507714 -0.055818
C12   C     C_R   0.673522 0.499769 0.500174 0.884517
C13   C     C_R   0.580152 0.101124 0.488037 -0.052312
C14   C     C_R   0.580019 0.898564 0.488709 -0.056045
C15   C     C_R   0.420170 0.101522 0.512359 -0.043711
C16   C     C_R   0.499800 0.949563 0.499329 -0.010252
C17   C     C_R   0.500118 0.050620 0.500195 -0.003787
C18   C     C_R   0.338178 0.950486 0.516324 0.135472
C19   C     C_R   0.660148 0.049830 0.475235 0.136540
C20   C     C_R   0.659978 0.948787 0.475603 0.186830
C21   C     C_R   0.339261 0.051400 0.521790 0.189378
C22   C     C_R   0.501637 0.500668 0.364432 0.852729
C23   C     C_R   0.815293 0.413088 0.509284 -0.258718
C24   C     C_R   0.503986 0.499358 0.634929 0.852697
C25   C     C_R   0.557556 0.582725 0.253549 0.075127
C26   C     C_R   0.585029 0.429889 0.738625 0.073362
C27   C     C_R   0.483330 0.566331 0.755536 0.065072
C28   C     C_R   0.501675 0.417423 0.247494 0.072974
C29   C     C_R   0.585560 0.574979 0.183899 -0.200766
C30   C     C_R   0.603064 0.430045 0.810482 -0.202656
C31   C     C_R   0.506429 0.566532 0.826383 -0.193665
C32   C     C_R   0.531671 0.413388 0.178046 -0.199515
C33   C     C_R   0.572660 0.491680 0.146164 0.031067
C34   C     C_R   0.184671 0.586010 0.485616 -0.261192
C35   C     C_R   0.565133 0.498495 0.853789 0.033124
C36   C     C_R   0.517251 0.501660 0.287509 -0.117722
C37   C     C_R   0.522713 0.497483 0.710554 -0.101226
C38   C     C_R   0.582737 0.496724 0.928772 0.299403
C39   C     C_R   0.587714 0.492903 0.070337 0.300956
C40   C     C_R   0.814646 0.585076 0.489859 -0.237882
C41   C     C_R   0.185333 0.414100 0.505689 -0.238573
C42   C     C_R   0.769318 0.499276 0.500038 -0.090396
C43   C     C_R   0.230659 0.500262 0.497039 -0.096011
C44   C     C_3   0.567952 0.681385 0.285739 -0.388743
C45   C     C_R   0.907838 0.411816 0.508592 0.094286
C46   C     C_3   0.478923 0.736142 0.283843 -0.305428
C47   C     C_3   0.490253 0.840461 0.304432 -0.900451
C48   C     C_3   0.639084 0.360512 0.694621 -0.405027
C49   C     C_3   0.596402 0.261005 0.694565 -0.294375
C50   C     C_3   0.658010 0.187617 0.660696 -0.904429
C51   C     C_3   0.416341 0.640767 0.731308 -0.411218
C52   C     C_3   0.462173 0.737548 0.719822 -0.297402
C53   C     C_3   0.395855 0.813418 0.695658 -0.894651
C54   C     C_3   0.447610 0.332443 0.273449 -0.395946
C55   C     C_3   0.508329 0.248280 0.294407 -0.305910
C56   C     C_R   0.092119 0.586732 0.483764 0.094596
C57   C     C_3   0.454071 0.161892 0.318414 -0.871301
C58   C     C_3   0.891367 0.219408 0.604304 -0.847168
C59   C     C_3   0.110790 0.771370 0.382319 -0.827249
C60   C     C_3   0.213811 0.877995 0.580909 -0.806420
C61   C     C_3   0.756057 0.126067 0.389440 -0.785318
C62   C     C_3   0.751455 0.858843 0.392966 -0.842128
C63   C     C_3   0.243553 0.134596 0.604059 -0.827952
C64   C     C_R   0.953612 0.498899 0.497047 0.009904
C65   C     C_R   0.046339 0.499650 0.495221 0.010503
C66   C     C_R   0.906559 0.585463 0.487666 0.104446
H1    H     H_    0.615075 0.636288 0.157633 0.149547
H2    H     H_    0.914725 0.737088 0.467019 0.156059
H3    H     H_    0.638319 0.756824 0.484096 0.170366
H4    H     H_    0.362722 0.243495 0.519953 0.168823
H5    H     H_    0.361703 0.757328 0.515286 0.146184
H6    H     H_    0.636233 0.243473 0.477183 0.143123
H7    H     H_    0.517980 0.845069 0.357992 0.274189
H8    H     H_    0.535546 0.877631 0.266976 0.257636
H9    H     H_    0.424562 0.877179 0.303689 0.250973
H10   H     H_    0.451270 0.734355 0.229733 0.218085
H11   H     H_    0.429674 0.702184 0.319696 0.237257
H12   H     H_    0.649281 0.378136 0.832507 0.149398
H13   H     H_    0.597537 0.678366 0.338969 0.220629
H14   H     H_    0.617321 0.723863 0.255020 0.183727
H15   H     H_    0.680258 0.213111 0.608174 0.262319
H16   H     H_    0.717370 0.175291 0.694270 0.259369
H17   H     H_    0.622329 0.118851 0.654654 0.255030
H18   H     H_    0.581979 0.237338 0.749363 0.215073
H19   H     H_    0.532543 0.263264 0.665370 0.244173
H20   H     H_    0.649383 0.387353 0.640249 0.214170
H21   H     H_    0.707432 0.354684 0.716758 0.189892
H22   H     H_    0.362539 0.789475 0.647151 0.272548
H23   H     H_    0.476137 0.618730 0.860903 0.150559
H24   H     H_    0.344907 0.826027 0.737025 0.257345
H25   H     H_    0.431128 0.881468 0.684320 0.255052
H26   H     H_    0.493285 0.761310 0.769579 0.214229
H27   H     H_    0.515481 0.730921 0.679499 0.245591
H28   H     H_    0.381016 0.618422 0.683109 0.208092
H29   H     H_    0.363435 0.648369 0.771981 0.191644
H30   H     H_    0.409885 0.181280 0.362950 0.268839
H31   H     H_    0.412765 0.135357 0.274478 0.254111
H32   H     H_    0.499656 0.103650 0.335798 0.255170
H33   H     H_    0.550207 0.227107 0.248812 0.209889
H34   H     H_    0.518185 0.350147 0.147443 0.152361
H35   H     H_    0.553532 0.269464 0.337514 0.241388
H36   H     H_    0.401929 0.351837 0.316993 0.212825
H37   H     H_    0.402573 0.309186 0.230620 0.187174
H38   H     H_    0.942246 0.179737 0.507862 0.232384
H39   H     H_    0.953999 0.213104 0.635010 0.250542
H40   H     H_    0.854041 0.151394 0.609590 0.243093
H41   H     H_    0.849693 0.277926 0.626104 0.255225
H42   H     H_    0.056457 0.819227 0.475510 0.233990
H43   H     H_    0.049200 0.773512 0.350088 0.248260
H44   H     H_    0.154181 0.711825 0.364429 0.250290
H45   H     H_    0.778434 0.651593 0.482765 0.155488
H46   H     H_    0.147228 0.839482 0.374237 0.237214
H47   H     H_    0.248988 0.850826 0.476230 0.236083
H48   H     H_    0.213079 0.799112 0.588190 0.234633
H49   H     H_    0.249614 0.910088 0.625739 0.251168
H50   H     H_    0.144111 0.904599 0.581246 0.247576
H51   H     H_    0.755438 0.152057 0.496887 0.233100
H52   H     H_    0.706639 0.181021 0.372895 0.226343
H53   H     H_    0.750361 0.063232 0.354637 0.258251
H54   H     H_    0.823911 0.156293 0.383347 0.240750
H55   H     H_    0.797886 0.927746 0.482710 0.246127
H56   H     H_    0.221453 0.347707 0.514126 0.164159
H57   H     H_    0.771100 0.782555 0.397097 0.234345
H58   H     H_    0.804693 0.897913 0.364155 0.244918
H59   H     H_    0.688940 0.863756 0.361940 0.249553
H60   H     H_    0.202332 0.073068 0.510859 0.251736
H61   H     H_    0.230570 0.072662 0.639310 0.250603
H62   H     H_    0.184862 0.182929 0.605709 0.235061
H63   H     H_    0.301988 0.174228 0.624027 0.243805
H64   H     H_    0.778708 0.347237 0.516957 0.180200
H65   H     H_    0.221199 0.652024 0.478618 0.180437
H66   H     H_    0.085032 0.260920 0.522547 0.151500
N1    N     N_R   0.591870 0.410359 0.033677 -0.183478
N2    N     N_2   0.741776 0.098329 0.462021 -0.316174
N3    N     N_2   0.740776 0.897607 0.462922 -0.311919
N4    N     N_2   0.258252 0.103133 0.532630 -0.318578
N5    N     N_R   0.581637 0.579220 0.965263 -0.181764
N6    N     N_R   0.589830 0.412275 0.963885 -0.178721
N7    N     N_R   0.584323 0.577295 0.034852 -0.183077
N8    N     N_R   0.500000 0.750030 0.500000 -0.107356
N9    N     N_R   0.500000 0.249970 0.500000 -0.104330
N10   N     N_2   0.911304 0.237502 0.530972 -0.322262
N11   N     N_2   0.088489 0.759726 0.455933 -0.317781
N12   N     N_2   0.254793 0.902363 0.514193 -0.320306
O1    O     O_R   0.367850 0.580280 0.500020 -0.637412
O2    O     O_R   0.632150 0.419720 0.499980 -0.643215
O3    O     O_R   0.632150 0.580280 0.499980 -0.636743
O4    O     O_R   0.367850 0.419720 0.500020 -0.633677
O5    O     O_R   0.499990 0.580300 0.398140 -0.616959
O6    O     O_R   0.500010 0.419700 0.601860 -0.616173
O7    O     O_R   0.500010 0.580300 0.601860 -0.607982
O8    O     O_R   0.499990 0.419700 0.398140 -0.608384
Zn1   Zn    Zn3+2 0.500000 0.607200 0.500000 0.927429
Zn2   Zn    Zn3+2 0.500000 0.392800 0.500000 0.925470

loop_
_geom_bond_atom_site_label_1
_geom_bond_atom_site_label_2
_ccdc_geom_bond_type
C62   N3    S    
C11   C18   A    
C34   C56   A    
C23   C45   A    
C63   H63   S    
C61   H53   S    
C18   C21   A    
C60   H48   S    
C19   C20   A    
C2    C65   A    
C4    N11   S    
C46   H10   S    
C19   N2    S    
N5    N7    A    
C50   H16   S    
C6    C66   A    
C33   C39   S    
C23   C42   A    
C30   C35   A    
C49   H18   S    
H38   N10   S    
C7    N8    A    
C9    N8    A    
N9    Zn2   S    
C2    C41   A    
C56   C65   A    
C29   C33   A    
C59   H44   S    
C58   H41   S    
C46   C47   S    
C12   O2    A    
O5    Zn1   S    
C12   C42   S    
C29   H1    S    
C1    O1    A    
C1    C43   S    
C5    H66   S    
C27   C51   S    
C16   C17   A    
C31   H23   S    
C57   H30   S    
C53   H25   S    
C8    N9    A    
C63   N4    S    
C21   N4    S    
C63   H62   S    
C26   C48   S    
N8    Zn1   S    
O1    Zn1   S    
C40   C42   A    
C22   O5    A    
C59   N11   S    
N1    N6    A    
C40   C66   A    
C4    C56   A    
C61   H54   S    
C41   C43   A    
C60   N12   S    
C3    N10   S    
O4    Zn2   S    
H51   N2    S    
C25   C44   S    
C62   H58   S    
C62   H57   S    
C44   C46   S    
C50   H17   S    
C59   H46   S    
C40   H45   S    
C22   O8    A    
C7    C14   A    
C25   C29   A    
C39   N7    A    
C13   C19   A    
C27   C31   A    
C51   C52   S    
C49   H19   S    
C54   H37   S    
C28   C32   A    
C35   C38   S    
C47   H7    S    
C4    C6    A    
C28   C54   S    
C25   C36   A    
C1    O4    A    
C3    C45   A    
C32   H34   S    
C23   H64   S    
C58   H40   S    
C10   N9    A    
C64   C66   A    
C41   H56   S    
C24   O7    A    
C14   C20   A    
C46   H11   S    
C11   C16   A    
C58   N10   S    
O2    Zn2   S    
C44   H14   S    
C57   H31   S    
C24   C37   S    
C38   N6    A    
C48   H21   S    
C52   H27   S    
H55   N3    S    
C9    C11   A    
C24   O6    A    
C48   C49   S    
O8    Zn2   S    
C34   H65   S    
C26   C30   A    
C8    C15   A    
C55   C57   S    
C48   H20   S    
C52   H26   S    
C2    C5    A    
C52   C53   S    
C12   O3    A    
C39   N1    A    
C15   C17   A    
C54   C55   S    
C61   N2    S    
C61   H52   S    
C54   H36   S    
C44   H13   S    
C34   C43   A    
C9    H5    S    
C47   H8    S    
C3    C5    A    
C10   C13   A    
C7    H3    S    
C62   H59   S    
C26   C37   A    
C22   C36   S    
C55   H35   S    
C45   C64   A    
C8    H4    S    
H47   N12   S    
C13   C17   A    
C58   H39   S    
C32   C33   A    
C18   N12   S    
C47   H9    S    
C64   C65   A    
C27   C37   A    
C57   H32   S    
C31   C35   A    
C6    H2    S    
C59   H43   S    
C38   N5    A    
C53   H22   S    
C14   C16   A    
O7    Zn1   S    
C20   N3    S    
O3    Zn1   S    
C60   H50   S    
C51   H28   S    
H60   N4    S    
C30   H12   S    
C15   C21   A    
C28   C36   A    
C49   C50   S    
O6    Zn2   S    
C55   H33   S    
C53   H24   S    
C60   H49   S    
H42   N11   S    
C63   H61   S    
C50   H15   S    
C51   H29   S    
C10   H6    S    
