data_mof_unit_12464.cif
_audit_creation_date              2012-12-11T14:08:24-0500
_audit_creation_method            fapswitch 2.2
_symmetry_space_group_name_H-M    P1
_symmetry_Int_Tables_number       1
_space_group_crystal_system       triclinic
_cell_length_a                    28.114574
_cell_length_b                    7.17579
_cell_length_c                    17.326671
_cell_angle_alpha                 89.999873
_cell_angle_beta                  101.55699
_cell_angle_gamma                 90.0
_cell_volume                      3424.68753649

loop_
_atom_site_label
_atom_site_type_symbol
_atom_type_description
_atom_site_fract_x
_atom_site_fract_y
_atom_site_fract_z
_atom_type_partial_charge
O1    O     O_R   0.000700 0.436510 0.857920 -0.530999
O2    O     O_R   0.999300 0.563490 0.142080 -0.530999
O3    O     O_R   0.999300 0.936510 0.642080 -0.531002
O4    O     O_R   0.000700 0.063490 0.357920 -0.531001
O5    O     O_R   0.930080 0.766380 0.721890 -0.541417
O6    O     O_R   0.069920 0.233620 0.278110 -0.541416
O7    O     O_R   0.069920 0.266380 0.778110 -0.541413
O8    O     O_R   0.930080 0.733620 0.221890 -0.541412
C1    C     C_R   0.910726 0.597665 0.707405 0.767151
C2    C     C_R   0.089274 0.402335 0.292595 0.767149
C3    C     C_R   0.089274 0.097664 0.792595 0.767153
C4    C     C_R   0.910726 0.902336 0.207404 0.767150
O9    O     O_R   0.996180 0.766230 0.862310 -0.502035
O10   O     O_R   0.003820 0.233770 0.137690 -0.502036
O11   O     O_R   0.003820 0.266230 0.637690 -0.502030
O12   O     O_R   0.996180 0.733770 0.362310 -0.502031
O13   O     O_R   0.065870 0.936460 0.783500 -0.521219
O14   O     O_R   0.934130 0.063540 0.216500 -0.521217
O15   O     O_R   0.934130 0.436460 0.716500 -0.521228
O16   O     O_R   0.065870 0.563540 0.283500 -0.521226
C5    C     C_R   0.998317 0.595728 0.894233 0.777358
C6    C     C_R   0.001683 0.404272 0.105767 0.777359
C7    C     C_R   0.001683 0.095728 0.605767 0.777348
C8    C     C_R   0.998317 0.904272 0.394233 0.777351
O17   O     O_3   0.022790 0.603020 0.723980 -0.369995
O18   O     O_3   0.977210 0.396980 0.276020 -0.369994
O19   O     O_3   0.977210 0.103020 0.776020 -0.370008
O20   O     O_3   0.022790 0.896980 0.223980 -0.370007
V1    V     V_3+5 0.995770 0.877900 0.754830 1.688422
V2    V     V_3+5 0.004230 0.122100 0.245170 1.688430
V3    V     V_3+5 0.004230 0.377900 0.745170 1.688436
V4    V     V_3+5 0.995770 0.622100 0.254830 1.688443
C9    C     C_2   0.006755 0.078793 0.522469 0.136540
C10   C     C_2   0.993245 0.921207 0.477531 0.136535
C11   C     C_2   0.993245 0.578792 0.977531 0.136530
C12   C     C_2   0.006755 0.421208 0.022469 0.136528
C13   C     C_R   0.681958 0.883758 0.032025 0.609884
C14   C     C_R   0.318042 0.116238 0.967975 0.609882
C15   C     C_R   0.318042 0.383769 0.467977 0.609881
C16   C     C_R   0.681959 0.616225 0.532022 0.609879
O21   O     O_2   0.709753 0.809547 0.984731 -0.496719
O22   O     O_2   0.290246 0.190450 0.015269 -0.496719
O23   O     O_2   0.290246 0.309558 0.515271 -0.496721
O24   O     O_2   0.709754 0.690437 0.484728 -0.496722
N1    N     N_R   0.702949 0.940252 0.106277 -0.551991
N2    N     N_R   0.297050 0.059743 0.893723 -0.551991
N3    N     N_R   0.297050 0.440265 0.393725 -0.551987
N4    N     N_R   0.702950 0.559730 0.606274 -0.551986
C17   C     C_R   0.675860 0.019001 0.155148 0.592610
C18   C     C_R   0.324140 0.980993 0.844852 0.592610
C19   C     C_R   0.324139 0.519012 0.344854 0.592610
C20   C     C_R   0.675861 0.480983 0.655145 0.592610
C21   C     C_R   0.776508 0.793312 0.185069 -0.056493
C22   C     C_R   0.223492 0.206677 0.814927 -0.056491
C23   C     C_R   0.223493 0.293358 0.314913 -0.056485
C24   C     C_R   0.776507 0.706626 0.685094 -0.056482
C25   C     C_R   0.827117 0.784210 0.208792 -0.214821
C26   C     C_R   0.172883 0.215781 0.791204 -0.214831
C27   C     C_R   0.172884 0.284250 0.291189 -0.214865
C28   C     C_R   0.827116 0.715735 0.708817 -0.214880
C29   C     C_R   0.835259 0.048292 0.124569 0.364637
C30   C     C_R   0.164741 0.951715 0.875435 0.364638
C31   C     C_R   0.164738 0.548254 0.375450 0.364639
C32   C     C_R   0.835263 0.451759 0.624544 0.364640
C33   C     C_R   0.784653 0.055609 0.101079 -0.118271
C34   C     C_R   0.215346 0.944398 0.898925 -0.118269
C35   C     C_R   0.215344 0.555574 0.398941 -0.118261
C36   C     C_R   0.784657 0.444436 0.601052 -0.118257
C37   C     C_R   0.755033 0.929401 0.131211 0.301907
C38   C     C_R   0.244967 0.070596 0.868789 0.301903
C39   C     C_R   0.244966 0.429409 0.368791 0.301890
C40   C     C_R   0.755034 0.570588 0.631209 0.301883
C41   C     C_R   0.602526 0.979968 0.053874 -0.047172
C42   C     C_R   0.397474 0.020027 0.946126 -0.047172
C43   C     C_R   0.397474 0.479975 0.446127 -0.047172
C44   C     C_R   0.602526 0.520019 0.553872 -0.047172
C45   C     C_R   0.631682 0.902108 0.004633 -0.037901
C46   C     C_R   0.368318 0.097887 0.995367 -0.037901
C47   C     C_R   0.368318 0.402118 0.495368 -0.037899
C48   C     C_R   0.631683 0.597876 0.504631 -0.037898
C49   C     C_R   0.610523 0.853114 0.927443 -0.093113
C50   C     C_R   0.389477 0.146882 0.072557 -0.093112
C51   C     C_R   0.389477 0.353123 0.572558 -0.093111
C52   C     C_R   0.610523 0.646871 0.427441 -0.093110
C53   C     C_R   0.624918 0.047250 0.129178 -0.090742
C54   C     C_R   0.375082 0.952745 0.870823 -0.090742
C55   C     C_R   0.375082 0.547259 0.370824 -0.090741
C56   C     C_R   0.624918 0.452736 0.629175 -0.090741
C57   C     C_R   0.857191 0.912322 0.179741 -0.127223
C58   C     C_R   0.142809 0.087677 0.820259 -0.127222
C59   C     C_R   0.142808 0.412322 0.320259 -0.127222
C60   C     C_R   0.857192 0.587678 0.679741 -0.127221
H1    H     H_    0.768115 0.159688 0.058826 0.170376
H2    H     H_    0.231884 0.840324 0.941182 0.170378
H3    H     H_    0.231880 0.659625 0.441210 0.170387
H4    H     H_    0.768121 0.340395 0.558779 0.170391
H5    H     H_    0.632484 0.805852 0.886528 0.185576
H6    H     H_    0.367516 0.194144 0.113472 0.185576
H7    H     H_    0.367516 0.305863 0.613474 0.185578
H8    H     H_    0.632485 0.694131 0.386525 0.185578
C61   C     C_R   0.477790 0.917543 0.926148 -0.002500
C62   C     C_R   0.522209 0.082452 0.073852 -0.002500
C63   C     C_R   0.522210 0.417542 0.573852 -0.002503
C64   C     C_R   0.477791 0.582452 0.426148 -0.002503
C65   C     C_R   0.470481 0.078752 0.048776 0.037053
C66   C     C_R   0.529519 0.921243 0.951224 0.037053
C67   C     C_R   0.529519 0.578748 0.451223 0.037052
C68   C     C_R   0.470481 0.421247 0.548776 0.037052
C69   C     C_R   0.448842 0.007585 0.973136 0.070708
C70   C     C_R   0.551158 0.992410 0.026864 0.070708
C71   C     C_R   0.551158 0.507580 0.526862 0.070709
C72   C     C_R   0.448842 0.492414 0.473137 0.070709
C73   C     C_R   0.453362 0.817400 0.858471 -0.075577
C74   C     C_R   0.546638 0.182595 0.141529 -0.075576
C75   C     C_R   0.546638 0.317399 0.641529 -0.075580
C76   C     C_R   0.453362 0.682596 0.358471 -0.075579
C77   C     C_R   0.403642 0.848804 0.827258 -0.096395
C78   C     C_R   0.596358 0.151191 0.172742 -0.096395
C79   C     C_R   0.596358 0.348798 0.672740 -0.096396
C80   C     C_R   0.403642 0.651197 0.327259 -0.096396
O25   O     O_2   0.301501 0.928703 0.772002 -0.501677
O26   O     O_2   0.698499 0.071291 0.227999 -0.501676
O27   O     O_2   0.698500 0.428691 0.727995 -0.501682
O28   O     O_2   0.301501 0.571304 0.272004 -0.501681
C81   C     C_R   0.560838 0.869624 0.900506 -0.147514
C82   C     C_R   0.439162 0.130371 0.099495 -0.147514
C83   C     C_R   0.439162 0.369630 0.599495 -0.147517
C84   C     C_R   0.560838 0.630364 0.400504 -0.147517
H9    H     H_    0.157224 0.321561 0.749110 0.168829
H10   H     H_    0.842777 0.678423 0.250883 0.168831
H11   H     H_    0.842774 0.821481 0.750929 0.168820
H12   H     H_    0.157225 0.178494 0.249083 0.168823
H13   H     H_    0.246020 0.305530 0.791484 0.152722
H14   H     H_    0.753980 0.694451 0.208508 0.152719
H15   H     H_    0.753978 0.805443 0.708553 0.152737
H16   H     H_    0.246022 0.194530 0.291458 0.152732
H17   H     H_    0.547976 0.847911 0.838306 0.163219
H18   H     H_    0.452023 0.152084 0.161694 0.163219
H19   H     H_    0.452023 0.347918 0.661694 0.163220
H20   H     H_    0.547977 0.652076 0.338305 0.163220
Cl1   Cl    Cl    0.037262 0.269374 0.488642 -0.548281
Cl2   Cl    Cl    0.962738 0.730626 0.511358 -0.548274
Cl3   Cl    Cl    0.962736 0.769371 0.011357 -0.548313
Cl4   Cl    Cl    0.037264 0.230629 0.988643 -0.548308
Cl5   Cl    Cl    0.869352 0.206598 0.079758 -0.586388
Cl6   Cl    Cl    0.130646 0.793423 0.920251 -0.586380
Cl7   Cl    Cl    0.130641 0.706501 0.420283 -0.586360
Cl8   Cl    Cl    0.869361 0.293531 0.579704 -0.586350
C85   C     C_1   0.382328 0.761986 0.752524 0.429324
N5    N     N_1   0.365576 0.692681 0.692949 -0.304797
C86   C     C_1   0.617672 0.238007 0.247476 0.429324
N6    N     N_1   0.634424 0.307312 0.307051 -0.304798
C87   C     C_1   0.617673 0.261976 0.747473 0.429324
N7    N     N_1   0.634425 0.192669 0.807047 -0.304797
C88   C     C_1   0.382327 0.738018 0.252526 0.429324
N8    N     N_1   0.365575 0.807326 0.192952 -0.304797
C89   C     C_1   0.475891 0.657650 0.828516 0.305388
N9    N     N_1   0.493610 0.529826 0.804798 -0.358446
C90   C     C_1   0.524109 0.342344 0.171485 0.305388
N10   N     N_1   0.506390 0.470168 0.195202 -0.358446
C91   C     C_1   0.524108 0.157657 0.671487 0.305393
N11   N     N_1   0.506388 0.029838 0.695208 -0.358448
C92   C     C_1   0.475892 0.842338 0.328512 0.305393
N12   N     N_1   0.493612 0.970157 0.304792 -0.358448

loop_
_geom_bond_atom_site_label_1
_geom_bond_atom_site_label_2
_ccdc_geom_bond_type
O17   V3    S    
O1    C5    A    
C89   N9    T    
C23   C27   A    
C46   C50   A    
O19   V1    S    
O13   V1    S    
C76   C92   S    
O3    C7    A    
C92   N12   T    
C48   C52   A    
C21   C37   A    
C42   C69   A    
C91   N11   T    
C41   C70   A    
O7    C3    A    
C66   C81   A    
C43   C72   A    
C36   H4    S    
C25   C57   A    
C65   C82   A    
C13   O21   S    
C32   C36   A    
C63   C71   A    
O10   V2    S    
C67   C84   A    
C14   O22   S    
N4    C20   A    
C22   C26   A    
O4    C8    A    
C20   O27   S    
C26   H9    S    
C61   C69   A    
C23   H16   S    
O1    V3    S    
C61   C73   A    
C28   H11   S    
C62   C65   A    
O2    V4    S    
C79   C87   S    
O3    V1    S    
C29   Cl5   S    
C50   C82   A    
C64   C76   A    
C1    O15   A    
C10   Cl2   S    
C11   C12   D    
C2    O16   A    
C7    C9    S    
O2    C6    A    
C86   N6    T    
C16   C48   A    
C63   C68   A    
O14   V2    S    
C45   C49   A    
C82   H18   S    
C44   C56   A    
C36   C40   A    
C34   H2    S    
C68   C72   A    
O11   C7    A    
O15   V3    S    
O12   C8    A    
C51   H7    S    
C32   Cl8   S    
C35   H3    S    
C19   O28   S    
C50   H6    S    
C31   C59   A    
C78   C86   S    
C18   O25   S    
C83   H19   S    
C52   C84   A    
N4    C40   S    
C1    C60   S    
C31   Cl7   S    
C29   C57   A    
O5    V1    S    
C28   C60   A    
C31   C35   A    
C27   H12   S    
O7    V3    S    
C30   C34   A    
N1    C37   S    
O8    V4    S    
C17   C53   A    
C4    C57   S    
C20   C56   A    
C19   C55   A    
C64   C72   A    
C21   C25   A    
O18   V4    S    
N3    C19   A    
C14   C46   A    
C24   C40   A    
C22   H13   S    
C13   C45   A    
C80   C88   S    
C8    C10   S    
C76   C80   A    
C15   C47   A    
C75   C91   S    
C63   C75   A    
N2    C38   S    
O5    C1    A    
C62   C74   A    
C25   H10   S    
C90   N10   T    
C22   C38   A    
N1    C17   A    
O8    C4    A    
N3    C39   S    
C9    Cl1   S    
C9    C10   D    
O9    C5    A    
C27   C59   A    
C42   C54   A    
C56   C79   A    
C26   C58   A    
C41   C53   A    
C74   C78   A    
C73   C77   A    
C43   C55   A    
O6    V2    S    
C2    C59   S    
C75   C79   A    
C30   Cl6   S    
C62   C70   A    
C32   C60   A    
C13   N1    A    
C24   H15   S    
C15   N3    A    
O16   V4    S    
O9    V1    S    
C61   C66   A    
C16   N4    A    
C65   C69   A    
C3    O13   A    
C49   C81   A    
C67   C71   A    
C21   H14   S    
C44   C48   A    
C51   C83   A    
O6    C2    A    
C52   H8    S    
C15   O23   S    
O11   V3    S    
C5    C11   S    
O12   V4    S    
C6    C12   S    
N2    C18   A    
C81   H17   S    
O10   C6    A    
O20   V2    S    
C12   Cl4   S    
C55   C80   A    
C85   N5    T    
C47   C51   A    
C3    C58   S    
C34   C38   A    
C49   H5    S    
C44   C71   A    
C33   C37   A    
C17   O26   S    
C30   C58   A    
C33   H1    S    
C54   C77   A    
C35   C39   A    
C68   C83   A    
C84   H20   S    
C53   C78   A    
O4    V2    S    
C74   C90   S    
C14   N2    A    
C18   C54   A    
C29   C33   A    
C16   O24   S    
C24   C28   A    
C66   C70   A    
C42   C46   A    
C4    O14   A    
C88   N8    T    
C41   C45   A    
C77   C85   S    
C73   C89   S    
C87   N7    T    
C43   C47   A    
C64   C67   A    
C23   C39   A    
C11   Cl3   S    
