data_mof_unit_30157.cif
_audit_creation_date              2012-12-10T17:11:00-0500
_audit_creation_method            fapswitch 2.2
_symmetry_space_group_name_H-M    P1
_symmetry_Int_Tables_number       1
_space_group_crystal_system       triclinic
_cell_length_a                    11.725347
_cell_length_b                    12.988008
_cell_length_c                    13.610076
_cell_angle_alpha                 92.287007
_cell_angle_beta                  77.328992
_cell_angle_gamma                 98.43825
_cell_volume                      2000.23023591

loop_
_atom_site_label
_atom_site_type_symbol
_atom_type_description
_atom_site_fract_x
_atom_site_fract_y
_atom_site_fract_z
_atom_type_partial_charge
C1    C     C_R   0.518206 0.700010 0.505161 0.829700
C2    C     C_R   0.440392 0.478163 0.978827 0.090819
C3    C     C_R   0.478661 0.466557 0.872449 0.021489
C4    C     C_R   0.520606 0.465933 0.041201 -0.041509
C5    C     C_R   0.612748 0.406160 0.003263 -0.002748
C6    C     C_R   0.625125 0.366997 0.905027 -0.093559
C7    C     C_R   0.587625 0.426083 0.837261 -0.230161
C8    C     C_R   0.516539 0.514148 0.136923 0.367503
C9    C     C_R   0.700438 0.453286 0.147460 -0.092297
C10   C     C_R   0.403889 0.490981 0.807867 -0.081772
C11   C     C_R   0.473851 0.187474 0.490402 -0.098774
C12   C     C_R   0.437846 0.491887 0.695796 0.855757
C13   C     C_R   0.522051 0.811805 0.519390 -0.106442
C14   C     C_R   0.562061 0.969955 0.613298 -0.191591
C15   C     C_R   0.562607 0.863147 0.601162 -0.040603
C16   C     C_R   0.480187 0.867280 0.452184 -0.261549
C17   C     C_R   0.479991 0.974204 0.464188 0.169536
C18   C     C_R   0.520173 0.026601 0.546191 0.071040
C19   C     C_R   0.512959 0.133456 0.561110 -0.028873
C20   C     C_R   0.435498 0.135201 0.409161 -0.193185
C21   C     C_R   0.437291 0.028813 0.396636 -0.192342
C22   C     C_R   0.955071 0.619854 0.565421 -0.223388
C23   C     C_R   0.480937 0.299959 0.496542 0.827593
C24   C     C_R   0.835362 0.607145 0.559602 0.177322
C25   C     C_R   0.853464 0.444019 0.476620 0.183406
C26   C     C_R   0.976296 0.458024 0.474647 -0.034950
C27   C     C_R   0.026474 0.544685 0.523053 0.056973
C28   C     C_R   0.147033 0.553190 0.527674 -0.045951
C29   C     C_R   0.171060 0.402661 0.424466 0.687771
C30   C     C_R   0.050495 0.387850 0.423993 -0.371768
C31   C     C_R   0.563325 0.505722 0.304736 0.839216
C32   C     C_R   0.701108 0.400355 0.056740 -0.218377
C33   C     C_R   0.598055 0.496219 0.194352 -0.209955
C34   C     C_R   0.291560 0.516830 0.852008 -0.127063
C35   C     C_R   0.252388 0.520018 0.955793 -0.157773
C36   C     C_R   0.325566 0.501461 0.018608 -0.170997
Cu1   Cu    Cu3+1 0.386470 0.492430 0.492410 1.015936
Cu2   Cu    Cu3+1 0.613530 0.507570 0.507590 1.018039
H1    H     H_    0.406123 0.177344 0.354471 0.168795
H2    H     H_    0.590190 0.006974 0.678277 0.203874
H3    H     H_    0.406328 0.989461 0.333688 0.138856
H4    H     H_    0.446276 0.826807 0.391117 0.147416
H5    H     H_    0.185817 0.617193 0.568606 0.148559
H6    H     H_    0.991699 0.688682 0.601745 0.150385
H7    H     H_    0.016835 0.322107 0.382306 0.166161
H8    H     H_    0.782660 0.666878 0.591213 0.164914
H9    H     H_    0.777741 0.363813 0.023044 0.212983
H10   H     H_    0.232658 0.534646 0.805879 0.168630
H11   H     H_    0.288831 0.501468 0.098457 0.177339
H12   H     H_    0.164388 0.537692 0.987987 0.163902
N1    N     N_R   0.215880 0.481050 0.481000 -0.220089
N2    N     N_R   0.784100 0.518950 0.519000 -0.226004
O1    O     O_R   0.419710 0.645650 0.494620 -0.590065
O2    O     O_R   0.611450 0.658430 0.507430 -0.595638
O3    O     O_R   0.357340 0.490460 0.641450 -0.578324
O4    O     O_R   0.549080 0.503250 0.654260 -0.585281
O5    O     O_R   0.388550 0.341570 0.492570 -0.527644
O6    O     O_R   0.580290 0.354350 0.505380 -0.590983
O7    O     O_R   0.450920 0.496750 0.345740 -0.549062
O8    O     O_R   0.642660 0.509540 0.358550 -0.537174
C37   C     C_2   0.813408 0.473522 0.182292 0.954560
O9    O     O_2   0.838816 0.554811 0.226187 -0.592791
O10   O     O_R   0.895000 0.402896 0.158424 -0.759699
H13   H     H_    0.969366 0.426106 0.184604 0.320415
C38   C     C_2   0.592700 0.806780 0.682031 0.849489
O11   O     O_2   0.681870 0.838434 0.713178 -0.560945
O12   O     O_R   0.514509 0.721987 0.727495 -0.776442
H14   H     H_    0.538099 0.696887 0.788667 0.352996
O13   O     O_3   0.242989 0.333524 0.373437 -0.591128
C39   C     C_3   0.251833 0.338268 0.268060 0.038935
H15   H     H_    0.346472 0.358881 0.232015 0.184194
H16   H     H_    0.204062 0.398105 0.244427 0.117560
C40   C     C_3   0.208493 0.231476 0.227707 -0.380562
H17   H     H_    0.259270 0.172612 0.247704 0.226649
H18   H     H_    0.113714 0.208160 0.262481 0.232295
C41   C     C_3   0.223887 0.232940 0.113397 -0.843572
H19   H     H_    0.171428 0.289476 0.091687 0.265357
H20   H     H_    0.192673 0.154399 0.086086 0.267697
H21   H     H_    0.318445 0.254744 0.076713 0.257817
C42   C     C_2   0.701196 0.285421 0.869889 0.870342
O14   O     O_2   0.656630 0.194122 0.874213 -0.550472
O15   O     O_R   0.823446 0.311885 0.837939 -0.736877
H22   H     H_    0.865086 0.248764 0.817482 0.356002
C43   C     C_2   0.801689 0.343569 0.439280 0.858892
O16   O     O_2   0.799525 0.263883 0.484996 -0.572315
O17   O     O_R   0.760123 0.338259 0.350592 -0.747598
H23   H     H_    0.728508 0.264601 0.332772 0.327360
O18   O     O_3   0.437410 0.582859 0.174836 -0.627134
C44   C     C_3   0.480681 0.682687 0.132481 0.057935
H24   H     H_    0.404935 0.727568 0.146062 0.176921
H25   H     H_    0.513263 0.679501 0.049208 0.154957
C45   C     C_3   0.577502 0.740618 0.182298 -0.373166
H26   H     H_    0.551069 0.730401 0.265090 0.217928
H27   H     H_    0.661052 0.707531 0.154862 0.228516
C46   C     C_3   0.600256 0.856504 0.158187 -0.850501
H28   H     H_    0.629321 0.868175 0.075562 0.275690
H29   H     H_    0.670618 0.895785 0.195204 0.265941
H30   H     H_    0.518911 0.892537 0.186530 0.242114
C47   C     C_2   0.689516 0.492303 0.775191 0.962976
O19   O     O_2   0.701722 0.586511 0.787948 -0.569824
O20   O     O_R   0.777017 0.448390 0.707459 -0.712778
H31   H     H_    0.750882 0.373779 0.689326 0.342621
C48   C     C_2   0.533940 0.186952 0.654715 0.826213
O21   O     O_2   0.632150 0.197708 0.673435 -0.560033
O22   O     O_R   0.439890 0.223733 0.721506 -0.772140
H32   H     H_    0.461214 0.250581 0.786854 0.337580

loop_
_geom_bond_atom_site_label_1
_geom_bond_atom_site_label_2
_ccdc_geom_bond_type
C24   N2    A    
C23   O6    A    
O20   H31   S    
C40   H17   S    
C14   C18   A    
C30   H7    S    
C35   C36   A    
C41   H21   S    
C4    C8    A    
C46   H30   S    
C11   C19   A    
C26   C27   A    
Cu1   Cu2   S    
C7    C47   S    
C9    C37   S    
C34   H10   S    
C43   O17   S    
C18   C19   A    
C3    C7    A    
C5    C6    A    
Cu1   N1    S    
C28   N1    A    
Cu2   N2    S    
C15   C38   S    
C34   C35   A    
C31   O7    A    
C37   O10   S    
C1    O1    A    
C9    C32   A    
Cu2   O6    S    
C19   C48   S    
C48   O22   S    
C22   H6    S    
C46   H28   S    
C16   C17   A    
C38   O12   S    
C25   C43   S    
C31   C33   S    
C39   H15   S    
C44   H25   S    
C5    C32   A    
Cu1   O1    S    
O18   C44   S    
C9    C33   A    
C40   H18   S    
O13   C39   S    
C39   C40   S    
C29   O13   S    
C11   C20   A    
O12   H14   S    
C43   O16   D    
C42   O15   S    
C20   H1    S    
O17   H23   S    
C42   O14   D    
C25   C26   A    
O15   H22   S    
C45   C46   S    
C17   C21   A    
C8    O18   S    
C31   O8    A    
C2    C4    A    
C1    O2    A    
C29   C30   A    
C6    C42   S    
C47   O19   D    
Cu2   O2    S    
C35   H12   S    
C45   H27   S    
C17   C18   A    
C10   C34   A    
Cu1   O7    S    
C41   H19   S    
C44   C45   S    
C12   O4    A    
C10   C12   S    
Cu2   O8    S    
C47   O20   S    
C26   C30   A    
C22   C27   A    
C13   C15   A    
C32   H9    S    
C21   H3    S    
C1    C13   S    
C16   H4    S    
C48   O21   D    
C29   N1    A    
C2    C36   A    
C23   O5    A    
C41   H20   S    
C4    C5    A    
C46   H29   S    
C6    C7    A    
O22   H32   S    
C28   H5    S    
C24   H8    S    
C2    C3    A    
C25   N2    A    
C3    C10   A    
C11   C23   S    
C45   H26   S    
C40   C41   S    
C22   C24   A    
C8    C33   A    
C37   O9    D    
C12   O3    A    
C14   H2    S    
O10   H13   S    
Cu1   O3    S    
Cu2   O4    S    
C20   C21   A    
C38   O11   D    
C13   C16   A    
C27   C28   A    
C14   C15   A    
C39   H16   S    
C44   H24   S    
Cu1   O5    S    
C36   H11   S    
