data_mof_unit_31019.cif
_audit_creation_date              2012-12-10T17:32:23-0500
_audit_creation_method            fapswitch 2.2
_symmetry_space_group_name_H-M    P1
_symmetry_Int_Tables_number       1
_space_group_crystal_system       triclinic
_cell_length_a                    15.503114
_cell_length_b                    15.504309
_cell_length_c                    15.399236
_cell_angle_alpha                 91.776217
_cell_angle_beta                  71.768965
_cell_angle_gamma                 111.097036
_cell_volume                      3266.04994894

loop_
_atom_site_label
_atom_site_type_symbol
_atom_type_description
_atom_site_fract_x
_atom_site_fract_y
_atom_site_fract_z
_atom_type_partial_charge
C1    C     C_R   0.462799 0.258643 0.462739 0.524964
C2    C     C_R   0.553349 0.513071 0.098034 -0.011200
C3    C     C_R   0.598396 0.672668 0.136229 -0.124231
C4    C     C_R   0.537364 0.742351 0.533739 0.509879
C5    C     C_R   0.423183 0.429489 0.842464 0.016424
C6    C     C_R   0.428105 0.038594 0.342291 0.030926
C7    C     C_R   0.448349 0.162602 0.444633 0.036173
C8    C     C_R   0.550152 0.863871 0.640926 -0.132781
C9    C     C_R   0.526262 0.938682 0.675941 -0.147850
C10   C     C_R   0.498716 0.989634 0.624419 -0.102405
C11   C     C_R   0.504295 0.972935 0.532202 0.019082
C12   C     C_R   0.364141 0.312066 0.969346 -0.147674
C13   C     C_R   0.529659 0.896591 0.496305 0.027031
C14   C     C_R   0.481030 0.026966 0.476013 0.002161
C15   C     C_R   0.468144 0.995316 0.391547 -0.003502
C16   C     C_R   0.756831 0.551793 0.462130 0.524312
C17   C     C_R   0.502135 0.925006 0.355111 -0.122099
C18   C     C_R   0.538247 0.880931 0.403889 0.109752
C19   C     C_R   0.476393 0.114076 0.498119 0.062318
C20   C     C_R   0.419851 0.124920 0.368618 0.000720
C21   C     C_R   0.545086 0.837912 0.554111 0.026841
C22   C     C_R   0.013831 0.590864 0.324100 0.097141
C23   C     C_R   0.410066 0.378250 0.019822 -0.125016
C24   C     C_R   0.860417 0.570112 0.442005 0.005396
C25   C     C_R   0.080764 0.418597 0.666139 0.019340
C26   C     C_R   0.993498 0.437279 0.698556 0.028544
C27   C     C_R   0.963085 0.474126 0.637191 -0.118553
C28   C     C_R   0.242652 0.450838 0.538830 0.482431
C29   C     C_R   0.014357 0.490946 0.542414 0.021983
C30   C     C_R   0.101935 0.472991 0.509044 0.012906
C31   C     C_R   0.982256 0.527671 0.479877 0.004574
C32   C     C_R   0.041776 0.551092 0.386176 0.022438
C33   C     C_R   0.125579 0.529725 0.354294 -0.124230
C34   C     C_R   0.465993 0.470775 0.981416 0.011669
C35   C     C_R   0.152589 0.487606 0.413734 -0.114781
C36   C     C_R   0.890649 0.537570 0.506108 -0.165442
C37   C     C_R   0.923376 0.599811 0.351885 0.110523
C38   C     C_R   0.138292 0.441745 0.570916 0.013907
C39   C     C_R   0.551648 0.551247 0.257995 0.497568
C40   C     C_R   0.448609 0.449819 0.742617 0.483274
C41   C     C_R   0.592515 0.700479 0.054261 0.103228
C42   C     C_R   0.575217 0.579012 0.160562 0.014190
C43   C     C_R   0.374906 0.336462 0.879441 -0.129474
C44   C     C_3   0.394046 0.991699 0.263517 -0.274931
C45   C     C_R   0.455682 0.499053 0.899603 0.014266
C46   C     C_3   0.307359 0.899683 0.297943 -0.427654
C47   C     C_3   0.112729 0.377680 0.734018 -0.251131
C48   C     C_3   0.185761 0.452990 0.769561 -0.409891
C49   C     C_3   0.931875 0.423654 0.799350 -0.276665
C50   C     C_3   0.850084 0.328048 0.822989 -0.436607
C51   C     C_3   0.577055 0.426007 0.100560 -0.273194
C52   C     C_3   0.686301 0.450437 0.083104 -0.410726
C53   C     C_3   0.424131 0.626882 0.824627 -0.243603
C54   C     C_3   0.352052 0.668949 0.883090 -0.447748
C55   C     C_3   0.384802 0.179200 0.315039 -0.273940
C56   C     C_R   0.523114 0.537426 0.026731 -0.017391
C57   C     C_3   0.273409 0.142860 0.344294 -0.439704
C58   C     C_R   0.549981 0.633342 0.001078 0.019712
C59   C     C_R   0.527413 0.660570 0.927421 0.116254
C60   C     C_R   0.473922 0.594412 0.881035 0.025522
F1    F     F_    0.513745 0.160225 0.562548 -0.185721
F2    F     F_    0.585262 0.825872 0.358204 -0.170875
F3    F     F_    0.894120 0.631579 0.289170 -0.168504
F4    F     F_    0.071535 0.615957 0.235063 -0.181538
F5    F     F_    0.553677 0.752181 0.902565 -0.176015
F6    F     F_    0.618037 0.792654 0.033355 -0.169493
H1    H     H_    0.618558 0.724430 0.182609 0.141780
H2    H     H_    0.346453 0.282297 0.838432 0.137852
H3    H     H_    0.400143 0.356694 0.089544 0.105892
H4    H     H_    0.323734 0.240834 0.998665 0.116111
H5    H     H_    0.327726 0.848216 0.327028 0.164498
H6    H     H_    0.246188 0.911072 0.351523 0.157248
H7    H     H_    0.281606 0.870035 0.239964 0.147134
H8    H     H_    0.370101 0.033954 0.226841 0.144623
H9    H     H_    0.455075 0.980691 0.209612 0.136278
H10   H     H_    0.252265 0.493517 0.712614 0.159129
H11   H     H_    0.152182 0.501535 0.806562 0.133481
H12   H     H_    0.505977 0.905844 0.286407 0.127205
H13   H     H_    0.207815 0.420319 0.817839 0.141536
H14   H     H_    0.049814 0.337117 0.793687 0.128314
H15   H     H_    0.141938 0.324079 0.704199 0.178540
H16   H     H_    0.800736 0.320716 0.781904 0.158122
H17   H     H_    0.880475 0.272352 0.808823 0.154038
H18   H     H_    0.806740 0.319637 0.896960 0.137599
H19   H     H_    0.976275 0.434205 0.845640 0.144940
H20   H     H_    0.898285 0.477144 0.815213 0.137260
H21   H     H_    0.701054 0.385668 0.085149 0.133787
H22   H     H_    0.711695 0.493709 0.135383 0.192177
H23   H     H_    0.565216 0.822117 0.684978 0.137510
H24   H     H_    0.729116 0.488811 0.014186 0.146413
H25   H     H_    0.533609 0.383839 0.167489 0.147461
H26   H     H_    0.561310 0.381642 0.045559 0.145729
H27   H     H_    0.298291 0.619123 0.942641 0.158323
H28   H     H_    0.389997 0.734960 0.908273 0.175954
H29   H     H_    0.311777 0.684092 0.840967 0.133199
H30   H     H_    0.480172 0.678251 0.767685 0.169992
H31   H     H_    0.379689 0.569551 0.794363 0.131461
H32   H     H_    0.242886 0.068686 0.332554 0.157694
H33   H     H_    0.250385 0.183468 0.304011 0.132687
H34   H     H_    0.469443 0.038920 0.660119 0.143079
H35   H     H_    0.242850 0.150751 0.418328 0.162724
H36   H     H_    0.409741 0.254092 0.325429 0.141913
H37   H     H_    0.417443 0.179008 0.239906 0.125247
H38   H     H_    0.523672 0.954031 0.745586 0.124582
H39   H     H_    0.169111 0.542690 0.282241 0.134096
H40   H     H_    0.837086 0.512049 0.573021 0.114884
H41   H     H_    0.898950 0.490914 0.666586 0.106601
H42   H     H_    0.214211 0.466743 0.383487 0.133942
O1    O     O_3   0.500000 0.500000 0.500000 -0.436144
O2    O     O_R   0.588830 0.499590 0.285390 -0.552064
O3    O     O_R   0.395900 0.395880 0.699370 -0.553727
O4    O     O_R   0.493280 0.582590 0.315890 -0.534515
O5    O     O_R   0.521980 0.521940 0.699340 -0.539066
O6    O     O_R   0.708210 0.582550 0.530770 -0.535607
O7    O     O_R   0.270260 0.395900 0.573760 -0.559989
O8    O     O_R   0.537060 0.322180 0.411040 -0.542393
O9    O     O_R   0.484470 0.699370 0.484430 -0.518275
O10   O     O_R   0.404710 0.279110 0.530840 -0.533220
O11   O     O_R   0.573760 0.699350 0.573690 -0.558477
O12   O     O_R   0.714470 0.499570 0.411000 -0.522756
O13   O     O_R   0.307050 0.521980 0.484470 -0.541323
Zn1   Zn    Zn3+2 0.574690 0.574670 0.574650 0.935564
Zn2   Zn    Zn3+2 0.583640 0.456100 0.403530 0.946161
Zn3   Zn    Zn3+2 0.447120 0.574690 0.447120 0.938995
Zn4   Zn    Zn3+2 0.394550 0.394550 0.574700 0.914921

loop_
_geom_bond_atom_site_label_1
_geom_bond_atom_site_label_2
_ccdc_geom_bond_type
C45   C60   A    
C34   C56   A    
O8    Zn2   S    
C27   C29   A    
C48   H10   S    
C52   H24   S    
C50   H18   S    
C3    C42   A    
C53   C54   S    
C55   H36   S    
C26   C27   A    
C24   C36   A    
C22   C32   A    
C13   C18   A    
C48   H13   S    
O9    Zn3   S    
C2    C42   A    
C41   C58   A    
O4    Zn3   S    
C12   C43   A    
C16   O12   A    
C25   C38   A    
C11   C14   A    
O1    Zn1   S    
C57   H33   S    
C55   H37   S    
C30   C38   A    
C23   H3    S    
O13   Zn3   S    
C35   H42   S    
C51   H25   S    
C6    C15   A    
O2    Zn2   S    
O5    Zn1   S    
C47   C48   S    
C8    C9    A    
C54   H27   S    
O3    Zn4   S    
C4    O11   A    
C1    O8    A    
C28   C38   S    
C39   C42   S    
C9    C10   A    
C25   C47   S    
C31   C36   A    
C46   H6    S    
O12   Zn2   S    
C5    C43   A    
C59   C60   A    
C16   C24   S    
C6    C44   S    
C53   H30   S    
C47   H14   S    
C20   C55   S    
C14   C19   A    
C37   F3    S    
C53   C60   S    
C44   C46   S    
C50   H17   S    
C24   C37   A    
C40   O3    A    
C39   O2    A    
C36   H40   S    
C51   C52   S    
C49   H19   S    
C52   H22   S    
C33   H39   S    
C2    C51   S    
C26   C49   S    
C28   O13   A    
C18   F2    S    
C53   H31   S    
C58   C59   A    
C22   C37   A    
C5    C45   A    
C40   O5    A    
C16   O6    A    
C48   H11   S    
C44   H9    S    
C10   H34   S    
C29   C30   A    
C28   O7    A    
C51   H26   S    
C31   C32   A    
C12   C23   A    
C27   H41   S    
C23   C34   A    
C17   C18   A    
C54   H29   S    
C13   C21   A    
C34   C45   A    
C44   H8    S    
C46   H5    S    
C30   C35   A    
O1    Zn4   S    
C39   O4    A    
O10   Zn4   S    
C49   C50   S    
C7    C19   A    
C55   C57   S    
C4    O9    A    
C6    C20   A    
C50   H16   S    
O11   Zn1   S    
C15   C17   A    
C12   H4    S    
C3    C41   A    
C1    C7    S    
C49   H20   S    
C52   H21   S    
C3    H1    S    
C8    C21   A    
O1    Zn3   S    
C41   F6    S    
C57   H35   S    
C43   H2    S    
O7    Zn4   S    
C32   C33   A    
C25   C26   A    
C29   C31   A    
C2    C56   A    
C59   F5    S    
C4    C21   S    
C11   C13   A    
C19   F1    S    
C9    H38   S    
C57   H32   S    
C17   H12   S    
C33   C35   A    
C56   C58   A    
C1    O10   A    
C47   H15   S    
C54   H28   S    
C10   C11   A    
C22   F4    S    
O6    Zn1   S    
C7    C20   A    
C5    C40   S    
C14   C15   A    
O1    Zn2   S    
C8    H23   S    
C46   H7    S    
