data_mof_unit_46577.cif
_audit_creation_date              2012-10-26T21:21:40-0400
_audit_creation_method            fapswitch 2.2
_symmetry_space_group_name_H-M    P1
_symmetry_Int_Tables_number       1
_space_group_crystal_system       triclinic
_cell_length_a                    14.339192
_cell_length_b                    10.855244
_cell_length_c                    9.59907
_cell_angle_alpha                 90.179977
_cell_angle_beta                  87.843914
_cell_angle_gamma                 97.026824
_cell_volume                      1481.87333691

loop_
_atom_site_label
_atom_site_type_symbol
_atom_type_description
_atom_site_fract_x
_atom_site_fract_y
_atom_site_fract_z
_atom_type_partial_charge
C1    C     C_R   0.502048 0.262017 0.500302 0.520456
C2    C     C_R   0.476203 0.059143 0.382319 -0.093070
C3    C     C_R   0.468121 0.930639 0.382967 -0.126431
C4    C     C_R   0.330829 0.497551 0.502279 0.519472
C5    C     C_R   0.472522 0.866489 0.508198 0.010037
C6    C     C_R   0.643708 0.632273 0.145263 -0.106375
C7    C     C_R   0.729774 0.653870 0.082095 0.189478
C8    C     C_R   0.732317 0.710728 0.955763 0.199270
C9    C     C_R   0.657770 0.670018 0.860331 0.175148
C10   C     C_R   0.574008 0.579013 0.920111 0.079878
C11   C     C_R   0.570344 0.572484 0.072107 0.073078
C12   C     C_1   0.769322 0.483330 0.499034 0.109220
C13   C     C_R   0.432225 0.431794 0.077173 0.067091
C14   C     C_R   0.432833 0.430604 0.929776 0.028586
C15   C     C_R   0.485317 0.734013 0.501928 0.599913
C16   C     C_R   0.667263 0.486886 0.498378 0.614199
C17   C     C_1   0.228050 0.494719 0.506732 -0.025919
C18   C     C_1   0.142262 0.491689 0.508130 -0.011128
C19   C     C_1   0.041171 0.487885 0.507963 0.044261
C20   C     C_1   0.955479 0.485011 0.506629 0.060713
C21   C     C_1   0.854644 0.482833 0.503463 0.077407
C22   C     C_R   0.552444 0.118974 0.747710 -0.035025
C23   C     C_R   0.545946 0.057720 0.875921 0.306338
C24   C     C_R   0.493682 0.940789 0.888316 -0.090205
C25   C     C_R   0.460053 0.879014 0.768996 -0.109767
C26   C     C_R   0.478568 0.934113 0.635542 0.047947
C27   C     C_R   0.510202 0.062003 0.629021 -0.009193
C28   C     C_R   0.500466 0.126563 0.503112 -0.003298
Cu1   Cu    Cu3+1 0.499990 0.499990 0.640660 0.998335
Cu2   Cu    Cu3+1 0.500010 0.500010 0.359340 1.009738
H1    H     H_    0.465117 0.105606 0.286139 0.200765
H2    H     H_    0.826408 0.841430 0.614394 0.397836
H3    H     H_    0.737745 0.241348 0.046885 0.395218
H4    H     H_    0.882891 0.445688 0.199479 0.361765
H5    H     H_    0.378030 0.372747 0.877573 0.113449
H6    H     H_    0.594866 0.208265 0.740944 0.180015
H7    H     H_    0.483377 0.894536 0.988468 0.126168
H8    H     H_    0.420893 0.788018 0.782559 0.139135
H9    H     H_    0.458401 0.881519 0.285149 0.146743
H10   H     H_    0.376980 0.374539 0.134937 0.117759
H11   H     H_    0.637937 0.661714 0.250612 0.214775
H12   H     H_    0.770318 0.914558 0.161463 0.363839
N1    N     N_R   0.500820 0.501210 0.147910 -0.215604
N2    N     N_R   0.500850 0.501290 0.852040 -0.235736
O1    O     O_R   0.499990 0.319640 0.618810 -0.529913
O2    O     O_2   0.777587 0.962027 0.885406 -0.168961
O3    O     O_3   0.832526 0.899724 0.121112 -0.427875
O4    O     O_2   0.662672 0.716873 0.553939 -0.262905
O5    O     O_2   0.662708 0.883314 0.713014 -0.267565
O6    O     O_3   0.808671 0.767983 0.675122 -0.462311
O7    O     O_2   0.548129 0.222113 0.081585 -0.322593
O8    O     O_2   0.618867 0.031837 0.125655 -0.316211
O9    O     O_3   0.710359 0.200334 0.962896 -0.464491
O10   O     O_2   0.919027 0.656003 0.081770 -0.202607
O11   O     O_2   0.837029 0.692568 0.304393 -0.245459
O12   O     O_R   0.500000 0.319660 0.381240 -0.466069
O13   O     O_3   0.818118 0.468673 0.200262 -0.549348
O14   O     O_R   0.376050 0.499990 0.618810 -0.502667
O15   O     O_R   0.376060 0.500010 0.381240 -0.500793
O16   O     O_R   0.500000 0.680340 0.618760 -0.451832
O17   O     O_R   0.500010 0.680360 0.381190 -0.516096
O18   O     O_R   0.623940 0.499990 0.618760 -0.454619
O19   O     O_R   0.623950 0.500010 0.381190 -0.455803
O20   O     O_2   0.905929 0.834280 0.888926 -0.157246
S1    S     S_3+6 0.812588 0.854581 0.955849 0.154416
S2    S     S_3+6 0.690998 0.755886 0.695998 0.071799
S3    S     S_3+6 0.605212 0.127858 0.018361 0.011666
S4    S     S_3+6 0.830546 0.622313 0.169318 0.061197

loop_
_geom_bond_atom_site_label_1
_geom_bond_atom_site_label_2
_ccdc_geom_bond_type
C1    C28   S    
C23   C24   A    
C24   C25   A    
C11   N1    A    
C6    C7    A    
C16   O19   A    
C25   H8    S    
H4    O13   S    
C22   H6    S    
C9    C10   A    
C8    S1    S    
C19   C20   T    
Cu1   O16   S    
C22   C27   A    
C6    H11   S    
H2    O6    S    
Cu2   O15   S    
C3    C5    A    
C17   C18   T    
C15   O17   A    
C3    H9    S    
C7    C8    A    
O7    S3    D    
C13   C14   A    
Cu1   O14   S    
O6    S2    S    
C1    O1    A    
C26   C27   A    
Cu1   Cu2   S    
O8    S3    D    
C16   O18   A    
C23   S3    S    
C4    C17   S    
C4    O15   A    
Cu2   O19   S    
C25   C26   A    
C1    O12   A    
O3    S1    S    
O11   S4    D    
C2    C3    A    
H12   O3    S    
Cu1   N2    S    
H3    O9    S    
O9    S3    S    
Cu2   N1    S    
C5    C15   S    
O10   S4    D    
O5    S2    D    
O13   S4    S    
C10   N2    A    
C5    C26   A    
C9    S2    S    
C13   N1    A    
C20   C21   S    
O2    S1    D    
C14   N2    A    
C18   C19   S    
C10   C11   A    
Cu2   O17   S    
C4    O14   A    
C6    C11   A    
C24   H7    S    
Cu1   O18   S    
C8    C9    A    
C13   H10   S    
C2    C28   A    
O4    S2    D    
C7    S4    S    
C22   C23   A    
Cu2   O12   S    
C12   C21   T    
C14   H5    S    
C15   O16   A    
C12   C16   S    
Cu1   O1    S    
C2    H1    S    
C27   C28   A    
O20   S1    D    
