data_mof_unit_55139.cif
_audit_creation_date              2012-12-10T17:03:00-0500
_audit_creation_method            fapswitch 2.2
_symmetry_space_group_name_H-M    P1
_symmetry_Int_Tables_number       1
_space_group_crystal_system       triclinic
_cell_length_a                    9.807914
_cell_length_b                    11.060815
_cell_length_c                    13.436983
_cell_angle_alpha                 94.38028
_cell_angle_beta                  81.447966
_cell_angle_gamma                 111.545816
_cell_volume                      1340.38330019

loop_
_atom_site_label
_atom_site_type_symbol
_atom_type_description
_atom_site_fract_x
_atom_site_fract_y
_atom_site_fract_z
_atom_type_partial_charge
C1    C     C_R   0.557189 0.745748 0.507342 0.789181
C2    C     C_R   0.439205 0.506301 0.972403 0.106594
C3    C     C_R   0.480801 0.543487 0.870385 0.092132
C4    C     C_R   0.550546 0.541125 0.037750 0.032004
C5    C     C_R   0.698205 0.622236 0.003135 0.068192
C6    C     C_R   0.731113 0.670667 0.905899 -0.171677
C7    C     C_R   0.624106 0.633605 0.841379 -0.199795
C8    C     C_R   0.519455 0.496649 0.136544 -0.230093
C9    C     C_R   0.772023 0.613800 0.166744 -0.215884
C10   C     C_R   0.376965 0.490947 0.800462 -0.109039
C11   C     C_2   0.591950 0.885661 0.511675 0.218598
C12   C     C_R   0.423670 0.494572 0.690826 0.786284
C13   C     C_2   0.487737 0.932206 0.498707 -0.221643
C14   C     C_2   0.410966 0.115081 0.488856 -0.356705
C15   C     C_2   0.516305 0.070981 0.501999 -0.093564
C16   C     C_2   0.922192 0.489532 0.491676 -0.045703
C17   C     C_2   0.077080 0.509187 0.509257 -0.049483
C18   C     C_R   0.443077 0.254407 0.492767 0.871923
C19   C     C_R   0.578226 0.513440 0.309576 0.824698
C20   C     C_R   0.808944 0.655562 0.067634 0.375500
C21   C     C_R   0.626586 0.537347 0.202022 -0.121913
C22   C     C_R   0.228435 0.421641 0.835734 -0.163765
C23   C     C_R   0.183942 0.397887 0.937520 -0.101365
C24   C     C_R   0.287574 0.436925 0.005046 -0.152026
Cu1   Cu    Cu3+1 0.362000 0.479240 0.482530 0.970133
Cu2   Cu    Cu3+1 0.638000 0.520760 0.517470 0.979310
H1    H     H_    0.855774 0.645328 0.217142 0.192365
H2    H     H_    0.378015 0.866364 0.485210 0.160582
H3    H     H_    0.301572 0.048687 0.475356 0.177809
H4    H     H_    0.125727 0.576883 0.568313 0.158958
H5    H     H_    0.872864 0.420587 0.433487 0.163113
H6    H     H_    0.106223 0.385070 0.400153 0.206345
H7    H     H_    0.895029 0.617334 0.598220 0.202880
H8    H     H_    0.839971 0.737932 0.878489 0.204188
H9    H     H_    0.411388 0.430968 0.165573 0.159293
H10   H     H_    0.146762 0.382620 0.784170 0.169290
H11   H     H_    0.244318 0.413740 0.082531 0.132669
H12   H     H_    0.068709 0.345021 0.963978 0.156115
H13   H     H_    0.655012 0.679603 0.769168 0.178863
H14   H     H_    0.624868 0.138703 0.515325 0.231124
N1    N     N_2   0.845330 0.551960 0.543750 -0.280360
N2    N     N_2   0.154690 0.448120 0.456210 -0.275481
O1    O     O_R   0.426290 0.668220 0.490680 -0.606337
O2    O     O_R   0.659360 0.703290 0.520190 -0.529893
O3    O     O_R   0.326580 0.473880 0.629020 -0.574294
O4    O     O_R   0.559660 0.508940 0.658530 -0.574180
O5    O     O_R   0.340640 0.296710 0.479810 -0.554273
O6    O     O_R   0.573710 0.331780 0.509320 -0.579353
O7    O     O_R   0.440340 0.491060 0.341470 -0.574245
O8    O     O_R   0.673420 0.526120 0.370980 -0.581452
Cl1   Cl    Cl    0.772593 0.987891 0.534025 -0.618828
Cl2   Cl    Cl    0.994788 0.752678 0.028936 -0.626793

loop_
_geom_bond_atom_site_label_1
_geom_bond_atom_site_label_2
_ccdc_geom_bond_type
Cu1   N2    S    
C2    C4    A    
C23   C24   A    
C13   H2    S    
C6    C7    A    
C23   H12   S    
C22   H10   S    
Cu1   O5    S    
C9    C20   A    
C1    C11   S    
Cu2   O6    S    
C4    C8    A    
H7    N1    S    
C18   O5    A    
Cu1   O1    S    
C13   C15   S    
C24   H11   S    
Cu2   O2    S    
C20   Cl2   S    
C3    C10   A    
C10   C22   A    
C16   H5    S    
C17   H4    S    
C11   C13   D    
C19   O8    A    
C9    C21   A    
C16   C17   S    
C10   C12   S    
C19   C21   S    
C14   C18   S    
C2    C3    A    
C3    C7    A    
Cu2   O8    S    
C2    C24   A    
C5    C6    A    
Cu1   O7    S    
C15   H14   S    
C11   Cl1   S    
Cu2   O4    S    
C14   H3    S    
Cu1   O3    S    
C9    H1    S    
C12   O4    A    
C5    C20   A    
H6    N2    S    
C14   C15   D    
C4    C5    A    
C7    H13   S    
C1    O2    A    
Cu1   Cu2   S    
C17   N2    D    
C19   O7    A    
C16   N1    D    
C1    O1    A    
C22   C23   A    
C6    H8    S    
Cu2   N1    S    
C18   O6    A    
C12   O3    A    
C8    H9    S    
C8    C21   A    
