data_mof_unit_35091.cif
_audit_creation_date              2012-12-11T15:59:40-0500
_audit_creation_method            fapswitch 2.2
_symmetry_space_group_name_H-M    P1
_symmetry_Int_Tables_number       1
_space_group_crystal_system       triclinic
_cell_length_a                    10.812061
_cell_length_b                    10.834839
_cell_length_c                    17.00929
_cell_angle_alpha                 99.779563
_cell_angle_beta                  99.912138
_cell_angle_gamma                 60.280162
_cell_volume                      1696.31067092

loop_
_atom_site_label
_atom_site_type_symbol
_atom_type_description
_atom_site_fract_x
_atom_site_fract_y
_atom_site_fract_z
_atom_type_partial_charge
C1    C     C_R   0.357920 0.764394 0.396072 0.541733
C2    C     C_R   0.929950 0.177242 0.217703 -0.073126
C3    C     C_R   0.922293 0.189053 0.301314 -0.002928
C4    C     C_R   0.904200 0.420754 0.316890 -0.118912
C5    C     C_R   0.937400 0.403165 0.240062 0.051732
C6    C     C_R   0.932347 0.053449 0.172862 -0.053416
C7    C     C_R   0.951763 0.940310 0.210509 0.328872
C8    C     C_R   0.972815 0.944213 0.293772 -0.075550
C9    C     C_R   0.960106 0.068130 0.339951 0.061529
C10   C     C_R   0.879226 0.322181 0.344215 0.001434
C11   C     C_R   0.362684 0.804708 0.153251 0.002793
C12   C     C_R   0.366706 0.342965 0.358814 0.548779
C13   C     C_R   0.457542 0.833438 0.212284 0.002202
C14   C     C_R   0.435118 0.847474 0.293712 -0.030483
C15   C     C_R   0.288548 0.730775 0.253363 -0.128911
C16   C     C_R   0.290823 0.739723 0.173781 -0.115249
C17   C     C_R   0.574251 0.846664 0.194448 0.108413
C18   C     C_R   0.652711 0.889050 0.256485 -0.081040
C19   C     C_R   0.618807 0.917169 0.335109 0.065640
C20   C     C_R   0.506227 0.903988 0.352853 -0.078195
C21   C     C_R   0.350235 0.794542 0.314227 -0.001281
C22   C     C_R   0.289035 0.248675 0.794421 0.002898
C23   C     C_R   0.783363 0.374016 0.407328 0.557425
C24   C     C_R   0.403288 0.133878 0.751132 -0.072321
C25   C     C_R   0.424983 0.162226 0.677988 -0.088755
C26   C     C_R   0.210361 0.397573 0.685629 -0.131521
C27   C     C_R   0.189249 0.372473 0.757846 -0.143516
C28   C     C_R   0.502521 0.992417 0.775882 0.331571
C29   C     C_R   0.586500 0.882308 0.721692 0.434803
C30   C     C_R   0.596837 0.912883 0.648605 0.366383
C31   C     C_R   0.548115 0.054434 0.640456 0.079118
C32   C     C_R   0.331460 0.299250 0.647934 0.024808
C33   C     C_1   0.819736 0.342885 0.708846 0.020224
C34   C     C_R   0.358316 0.767820 0.627492 0.538708
C35   C     C_1   0.846952 0.314378 0.776654 0.004427
C36   C     C_1   0.338767 0.807504 0.709629 -0.018099
C37   C     C_1   0.313064 0.835827 0.777853 0.013375
C38   C     C_R   0.958000 0.282731 0.100395 0.537977
C39   C     C_R   0.292107 0.260958 0.122171 0.537655
C40   C     C_R   0.299625 0.885129 0.082857 0.529910
C41   C     C_R   0.887315 0.297324 0.859052 0.557495
C42   C     C_R   0.276431 0.245428 0.878177 0.557111
C43   C     C_R   0.279125 0.884318 0.857622 0.554691
C44   C     C_R   0.369664 0.343514 0.582927 0.548365
C45   C     C_R   0.773702 0.380836 0.629455 0.564228
C46   C     C_1   0.327937 0.315303 0.276965 -0.017097
C47   C     C_1   0.308747 0.290295 0.206262 -0.021350
C48   C     C_R   0.935866 0.289269 0.185284 -0.003936
Cr1   Cr    Cr6+3 0.608100 0.610860 0.522250 1.150625
Cr2   Cr    Cr6+3 0.288890 0.599990 0.488420 1.078828
Cr3   Cr    Cr6+3 0.603040 0.289190 0.489390 1.100920
Cr4   Cr    Cr6+3 0.053960 0.052250 0.967380 1.063635
Cr5   Cr    Cr6+3 0.059890 0.373160 0.992710 1.115495
Cr6   Cr    Cr6+3 0.373370 0.061690 0.991710 1.133379
H1    H     H_    0.889817 0.517647 0.354202 0.179635
H2    H     H_    0.744860 0.892888 0.244193 0.189832
H3    H     H_    0.481387 0.930332 0.414396 0.163236
H4    H     H_    0.136619 0.498963 0.662067 0.172053
H5    H     H_    0.098364 0.455582 0.787729 0.177136
H6    H     H_    0.917088 0.037383 0.108978 0.211152
H7    H     H_    0.000589 0.850530 0.322195 0.179724
H8    H     H_    0.234606 0.676584 0.267155 0.181455
H9    H     H_    0.227348 0.705519 0.128535 0.208400
O1    O     O_R   0.749810 0.499790 0.438040 -0.502633
O2    O     O_R   0.298970 0.468800 0.557390 -0.500965
O3    O     O_R   0.489400 0.255930 0.561910 -0.487733
O4    O     O_R   0.723890 0.306050 0.584610 -0.475193
O5    O     O_3   0.500010 0.500010 0.500020 -0.287856
O6    O     O_R   0.171100 0.914680 0.053100 -0.519525
O7    O     O_R   0.941680 0.184840 0.050710 -0.515595
O8    O     O_R   0.922080 0.403420 0.072610 -0.443373
O9    O     O_R   0.196880 0.369150 0.083850 -0.461810
O10   O     O_R   0.411730 0.181020 0.091530 -0.482298
O11   O     O_R   0.365010 0.944360 0.063320 -0.505634
O12   O     O_R   0.477660 0.726260 0.439290 -0.486909
O13   O     O_R   0.159380 0.906670 0.876210 -0.495321
O14   O     O_R   0.930820 0.177420 0.886730 -0.477207
O15   O     O_R   0.910360 0.395420 0.895720 -0.486038
O16   O     O_R   0.186010 0.361730 0.919870 -0.496800
O17   O     O_R   0.400000 0.173010 0.914630 -0.402612
O18   O     O_R   0.354140 0.936940 0.899340 -0.435201
O19   O     O_3   0.162410 0.162370 0.983930 -0.361629
O20   O     O_R   0.260150 0.743000 0.412270 -0.505883
O21   O     O_R   0.297740 0.466550 0.394720 -0.495484
O22   O     O_R   0.488080 0.253500 0.386430 -0.498592
O23   O     O_R   0.722670 0.303800 0.421940 -0.470410
O24   O     O_R   0.751130 0.502220 0.613520 -0.416019
O25   O     O_R   0.478890 0.728510 0.601960 -0.458297
O26   O     O_R   0.261470 0.745430 0.587750 -0.479354
I1    I     I_    0.754150 0.945362 0.432060 -0.211159
F1    F     F_    0.538448 0.954549 0.851087 -0.549095
F2    F     F_    0.670208 0.747914 0.743908 -0.550526
F3    F     F_    0.693962 0.808928 0.600682 -0.564372
I2    I     I_    0.739349 0.069521 0.671592 -0.189428
I3    I     I_    0.982922 0.563512 0.221057 -0.283326
F4    F     F_    0.959370 0.822647 0.164504 -0.628459
I4    I     I_    0.034789 0.059299 0.465176 -0.306644
I5    I     I_    0.670332 0.763699 0.083648 -0.092733

loop_
_geom_bond_atom_site_label_1
_geom_bond_atom_site_label_2
_ccdc_geom_bond_type
C25   C31   A    
C38   O7    A    
C1    C21   S    
Cr1   O5    S    
C33   C45   S    
Cr1   O24   S    
C44   O3    A    
C19   C20   A    
Cr3   O22   S    
Cr2   O21   S    
C7    C8    A    
C22   C42   S    
C26   C32   A    
C7    F4    S    
C26   C27   A    
C12   O22   A    
C14   C21   A    
C36   C37   T    
Cr5   O16   S    
C30   F3    S    
C41   O14   A    
C42   O17   A    
C15   C16   A    
C12   O21   A    
C18   C19   A    
Cr4   O6    S    
C46   C47   T    
C8    C9    A    
C23   O23   A    
C45   O4    A    
C39   O9    A    
Cr1   O12   S    
C16   H9    S    
C17   I5    S    
C38   C48   S    
C18   H2    S    
C8    H7    S    
C25   C32   A    
C42   O16   A    
Cr1   O1    S    
Cr6   O11   S    
C13   C14   A    
Cr1   O25   S    
C44   O2    A    
C2    C6    A    
Cr3   O23   S    
C5    I3    S    
Cr2   O20   S    
Cr6   O17   S    
C5    C48   A    
C40   O6    A    
C1    O12   A    
C14   C20   A    
C24   C25   A    
C12   C46   S    
C41   O15   A    
Cr3   O4    S    
C2    C48   A    
Cr5   O19   S    
Cr3   O3    S    
C37   C43   S    
C29   C30   A    
C3    C9    A    
C6    H6    S    
Cr6   O10   S    
C11   C16   A    
Cr2   O26   S    
C17   C18   A    
C32   C44   S    
C34   O25   A    
Cr4   O19   S    
C26   H4    S    
C23   O1    A    
C22   C27   A    
C4    H1    S    
C43   O18   A    
C22   C24   A    
C4    C10   A    
Cr4   O14   S    
Cr5   O8    S    
Cr6   O19   S    
C39   C47   S    
C43   O13   A    
C38   O8    A    
C28   C29   A    
C9    I4    S    
C45   O24   A    
C24   C28   A    
C4    C5    A    
Cr4   O13   S    
C6    C7    A    
C10   C23   S    
C1    O20   A    
C31   I2    S    
C13   C17   A    
C2    C3    A    
C34   O26   A    
C3    C10   A    
C27   H5    S    
C11   C13   A    
C30   C31   A    
C33   C35   T    
C15   H8    S    
C40   O11   A    
Cr5   O15   S    
C28   F1    S    
C34   C36   S    
Cr3   O5    S    
C39   O10   A    
C11   C40   S    
C35   C41   S    
Cr2   O2    S    
Cr4   O7    S    
C15   C21   A    
C19   I1    S    
C20   H3    S    
Cr5   O9    S    
Cr2   O5    S    
C29   F2    S    
Cr6   O18   S    
