data_mof_unit_51419.cif
_audit_creation_date              2012-12-10T17:59:48-0500
_audit_creation_method            fapswitch 2.2
_symmetry_space_group_name_H-M    P1
_symmetry_Int_Tables_number       1
_space_group_crystal_system       triclinic
_cell_length_a                    10.858229
_cell_length_b                    9.581888
_cell_length_c                    15.902651
_cell_angle_alpha                 90.063007
_cell_angle_beta                  92.191013
_cell_angle_gamma                 90.196146
_cell_volume                      1653.32838864

loop_
_atom_site_label
_atom_site_type_symbol
_atom_type_description
_atom_site_fract_x
_atom_site_fract_y
_atom_site_fract_z
_atom_type_partial_charge
C1    C     C_R   0.262825 0.499711 0.507976 0.827704
C2    C     C_3   0.638608 0.485757 0.953837 0.339353
C3    C     C_3   0.638655 0.511933 0.052986 0.273145
C4    C     C_1   0.499898 0.499767 0.824036 0.184359
C5    C     C_1   0.499085 0.499607 0.175919 0.055712
C6    C     C_1   0.499248 0.499770 0.251240 -0.021649
C7    C     C_R   0.061825 0.371148 0.509742 -0.091544
C8    C     C_R   0.063058 0.627405 0.514963 -0.102135
C9    C     C_R   0.936865 0.372584 0.484683 -0.097985
C10   C     C_R   0.938127 0.628833 0.489817 -0.089103
C11   C     C_R   0.872233 0.500914 0.483586 -0.030827
C12   C     C_R   0.127699 0.499067 0.516137 -0.032435
C13   C     C_R   0.432803 0.074012 0.439886 0.054449
C14   C     C_R   0.432448 0.925153 0.440096 0.065131
C15   C     C_R   0.499530 0.499931 0.340493 0.839706
C16   C     C_R   0.567311 0.925967 0.560133 0.053754
C17   C     C_R   0.567551 0.074836 0.559986 0.058980
C18   C     C_R   0.737154 0.500286 0.491971 0.827797
C19   C     C_R   0.500373 0.500066 0.659514 0.825758
C20   C     C_3   0.419791 0.630294 0.047306 0.038315
C21   C     C_3   0.441070 0.353767 0.048401 0.040330
C22   C     C_3   0.420180 0.368110 0.947983 0.393597
C23   C     C_3   0.440534 0.642273 0.948540 0.364785
C24   C     C_1   0.500170 0.500130 0.748736 0.017622
C25   C     C_3   0.499010 0.499309 0.083421 -0.281970
C26   C     C_3   0.499553 0.498989 0.916203 -0.293116
Cu1   Cu    Cu3+1 0.500020 0.640660 0.500000 1.027502
Cu2   Cu    Cu3+1 0.500020 0.359340 0.500000 1.027520
N1    N     N_R   0.500030 0.852070 0.500020 -0.226299
N2    N     N_R   0.500030 0.147930 0.500020 -0.226450
O1    O     O_R   0.319660 0.618740 0.500000 -0.598571
O2    O     O_R   0.319660 0.381260 0.500000 -0.595913
O3    O     O_R   0.500020 0.618840 0.379440 -0.560761
O4    O     O_R   0.500020 0.381160 0.379440 -0.563126
O5    O     O_R   0.680370 0.618830 0.500010 -0.596121
O6    O     O_R   0.680370 0.381170 0.500010 -0.599057
O7    O     O_R   0.500010 0.618730 0.620560 -0.558307
O8    O     O_R   0.500010 0.381270 0.620560 -0.555227
Br1   Br    Br    0.292325 0.703488 0.882882 -0.162631
Br2   Br    Br    0.244582 0.382598 0.913916 -0.174558
C27   C     C_2   0.643226 0.851433 0.624624 0.470616
H1    H     H_    0.721514 0.790092 0.607186 0.045976
O9    O     O_2   0.618864 0.859221 0.698787 -0.422369
C28   C     C_2   0.645967 0.150196 0.623037 0.477102
H2    H     H_    0.727449 0.205477 0.604446 0.039094
O10   O     O_2   0.620886 0.148672 0.697204 -0.423889
Br3   Br    Br    0.244163 0.615752 0.074035 -0.200196
Br4   Br    Br    0.290705 0.293613 0.105190 -0.223023
C29   C     C_2   0.521031 0.232070 0.080217 0.575192
H3    H     H_    0.543485 0.225556 0.147259 0.126184
O11   O     O_2   0.556216 0.137095 0.036389 -0.394278
C30   C     C_2   0.447557 0.766775 0.094280 0.598028
H4    H     H_    0.500708 0.768003 0.153316 0.113509
O12   O     O_2   0.400475 0.876451 0.070820 -0.388712
Br5   Br    Br    0.442102 0.196458 0.881166 -0.137420
Br6   Br    Br    0.539700 0.806565 0.918567 -0.157116
Br7   Br    Br    0.717800 0.690032 0.086101 -0.262427
Br8   Br    Br    0.756792 0.392407 0.117160 -0.260177
Br9   Br    Br    0.760909 0.599711 0.895410 -0.199737
Br10  Br    Br    0.714846 0.307553 0.923855 -0.182665
C31   C     C_2   0.120067 0.235256 0.532941 0.401930
H5    H     H_    0.105758 0.143958 0.493336 0.011614
O13   O     O_2   0.181673 0.223703 0.598417 -0.454962
C32   C     C_2   0.122870 0.760286 0.543746 0.417336
H6    H     H_    0.108016 0.856356 0.508830 0.015395
O14   O     O_2   0.186848 0.763645 0.608603 -0.449705
C33   C     C_2   0.877018 0.239709 0.455902 0.415031
H7    H     H_    0.892282 0.143529 0.490618 0.016560
O15   O     O_2   0.812629 0.236449 0.391240 -0.460641
C34   C     C_2   0.879954 0.764648 0.466281 0.400351
H8    H     H_    0.894885 0.856450 0.505381 0.012585
O16   O     O_2   0.817661 0.775571 0.401040 -0.462874
C35   C     C_2   0.357320 0.148507 0.375165 0.466810
H9    H     H_    0.279456 0.210700 0.392361 0.054228
O17   O     O_2   0.381737 0.139900 0.301051 -0.466948
C36   C     C_2   0.353864 0.849777 0.377145 0.468861
H10   H     H_    0.272260 0.794806 0.395813 0.047238
O18   O     O_2   0.378940 0.850956 0.302977 -0.484234

loop_
_geom_bond_atom_site_label_1
_geom_bond_atom_site_label_2
_ccdc_geom_bond_type
C11   C18   S    
Cu1   N1    S    
C27   O9    D    
C27   H1    S    
C21   C29   S    
C23   Br6   S    
Cu1   O3    S    
C36   O18   D    
C5    C6    T    
C4    C24   T    
C2    Br10  S    
C20   C25   S    
C1    O1    A    
C35   H9    S    
C23   C26   S    
C31   O13   D    
C7    C31   S    
C19   O7    A    
C6    C15   S    
C30   O12   D    
C16   C17   A    
C29   O11   D    
C34   H8    S    
C18   O5    A    
C15   O4    A    
C21   Br4   S    
Cu2   O4    S    
C13   C14   A    
C17   N2    A    
C35   O17   D    
C1    C12   S    
C28   O10   D    
C7    C12   A    
Cu1   O1    S    
C33   H7    S    
C13   N2    A    
Cu2   O2    S    
C36   H10   S    
C2    Br9   S    
Cu1   O5    S    
C16   N1    A    
C1    O2    A    
C33   O15   D    
C14   C36   S    
C9    C33   S    
C19   O8    A    
C20   C23   S    
Cu2   O8    S    
C8    C12   A    
C22   Br2   S    
C2    C26   S    
C9    C11   A    
C8    C32   S    
C5    C25   S    
C3    Br7   S    
C13   C35   S    
C14   N1    A    
C10   C34   S    
C30   H4    S    
C7    C9    A    
C21   C25   S    
C28   H2    S    
C4    C26   S    
C22   Br5   S    
C32   H6    S    
Cu2   N2    S    
C2    C3    S    
C17   C28   S    
C20   C30   S    
Cu1   O7    S    
C23   Br1   S    
C19   C24   S    
C31   H5    S    
C20   Br3   S    
C10   C11   A    
C3    Br8   S    
C3    C25   S    
Cu2   O6    S    
C8    C10   A    
C29   H3    S    
C22   C26   S    
Cu1   Cu2   S    
C34   O16   D    
C21   C22   S    
C18   O6    A    
C16   C27   S    
C15   O3    A    
C32   O14   D    
