data_mof_unit_46626.cif
_audit_creation_date              2012-12-10T19:11:32-0500
_audit_creation_method            fapswitch 2.2
_symmetry_space_group_name_H-M    P1
_symmetry_Int_Tables_number       1
_space_group_crystal_system       triclinic
_cell_length_a                    10.620501
_cell_length_b                    9.750905
_cell_length_c                    10.489935
_cell_angle_alpha                 90.185155
_cell_angle_beta                  89.597172
_cell_angle_gamma                 90.104418
_cell_volume                      1086.29810455

loop_
_atom_site_label
_atom_site_type_symbol
_atom_type_description
_atom_site_fract_x
_atom_site_fract_y
_atom_site_fract_z
_atom_type_partial_charge
C1    C     C_R   0.257824 0.500126 0.503102 0.817869
C2    C     C_3   0.499976 0.501196 0.122142 0.038242
C3    C     C_3   0.071854 0.648244 0.531024 -0.400965
C4    C     C_3   0.071499 0.404834 0.612020 -0.404862
C5    C     C_3   0.928830 0.647856 0.534131 -0.404381
C6    C     C_3   0.926889 0.403386 0.610896 -0.408066
C7    C     C_3   0.073041 0.450377 0.374399 -0.418898
C8    C     C_3   0.121421 0.500789 0.505274 0.208718
C9    C     C_3   0.878783 0.501109 0.505542 0.195676
C10   C     C_3   0.928682 0.452492 0.373934 -0.398222
C11   C     C_3   0.378187 0.080634 0.452043 -0.294805
C12   C     C_3   0.380655 0.918802 0.445896 -0.285050
C13   C     C_3   0.604828 0.079705 0.417525 0.474900
C14   C     C_3   0.607840 0.915853 0.420564 0.462741
C15   C     C_3   0.516310 0.081592 0.627884 -0.394515
C16   C     C_3   0.513066 0.919450 0.628212 -0.387347
C17   C     C_R   0.499996 0.500139 0.257221 0.871818
C18   C     C_R   0.742376 0.500323 0.503264 0.825863
C19   C     C_R   0.500382 0.500049 0.742582 0.851085
C20   C     C_3   0.498672 0.631310 0.040945 -0.132614
C21   C     C_3   0.397144 0.434212 0.042208 -0.210494
C22   C     C_3   0.395922 0.563961 0.958329 -0.190722
C23   C     C_3   0.500501 0.499927 0.877484 0.054917
C24   C     C_3   0.603296 0.567166 0.957301 -0.202155
C25   C     C_3   0.501776 0.370024 0.958586 -0.158420
C26   C     C_3   0.604586 0.437345 0.041187 -0.171291
H1    H     H_    0.311266 0.615342 0.919542 0.116180
H2    H     H_    0.895277 0.522417 0.297661 0.145474
H3    H     H_    0.892666 0.347855 0.351621 0.183172
H4    H     H_    0.351139 0.126071 0.359676 0.150367
H5    H     H_    0.365239 0.881339 0.347227 0.165333
H6    H     H_    0.301028 0.112650 0.518028 0.157574
H7    H     H_    0.299536 0.878840 0.502179 0.156705
H8    H     H_    0.606671 0.118395 0.668877 0.150930
H9    H     H_    0.600165 0.879468 0.673086 0.155621
H10   H     H_    0.441108 0.121167 0.692506 0.188665
H11   H     H_    0.433563 0.883762 0.689374 0.188716
H12   H     H_    0.693499 0.109553 0.466583 0.020744
H13   H     H_    0.695513 0.884703 0.471590 0.006337
H14   H     H_    0.496783 0.738030 0.078074 0.163690
H15   H     H_    0.313426 0.380321 0.081734 0.115160
H16   H     H_    0.686949 0.621194 0.917807 0.115216
H17   H     H_    0.503134 0.263468 0.920907 0.121817
H18   H     H_    0.689173 0.385819 0.079980 0.141731
H19   H     H_    0.104585 0.719372 0.454699 0.167636
H20   H     H_    0.106711 0.298400 0.597584 0.168966
H21   H     H_    0.108042 0.687660 0.623610 0.159094
H22   H     H_    0.105347 0.440832 0.706630 0.149644
H23   H     H_    0.894949 0.682949 0.629514 0.158835
H24   H     H_    0.889855 0.435992 0.705805 0.148076
H25   H     H_    0.894693 0.722638 0.462702 0.165192
H26   H     H_    0.893508 0.296716 0.593324 0.171829
H27   H     H_    0.109936 0.517361 0.296826 0.150112
H28   H     H_    0.106664 0.344220 0.354801 0.164339
N1    N     N_3   0.499750 0.138610 0.497240 -0.071289
N2    N     N_3   0.499750 0.861390 0.497240 -0.067545
O1    O     O_R   0.314910 0.616040 0.499970 -0.639210
O2    O     O_R   0.314910 0.383960 0.499970 -0.637272
O3    O     O_R   0.500080 0.616020 0.313900 -0.566861
O4    O     O_R   0.500080 0.383980 0.313900 -0.581455
O5    O     O_R   0.685320 0.616040 0.499930 -0.628221
O6    O     O_R   0.685320 0.383960 0.499930 -0.613745
O7    O     O_R   0.500150 0.616060 0.686000 -0.633668
O8    O     O_R   0.500150 0.383940 0.686000 -0.636623
Zn1   Zn    Zn3+2 0.500150 0.654960 0.499940 0.933102
Zn2   Zn    Zn3+2 0.500150 0.345040 0.499940 0.933570
O9    O     O_3   0.620148 0.145296 0.296709 -0.593217
C27   C     C_3   0.538649 0.103501 0.197397 -0.226850
H29   H     H_    0.480607 0.190936 0.166810 0.169885
H30   H     H_    0.472912 0.019707 0.219523 0.156716
H31   H     H_    0.596564 0.071624 0.114075 0.161246
O10   O     O_3   0.607848 0.855678 0.297390 -0.590672
C28   C     C_3   0.731014 0.843368 0.247013 -0.353846
H32   H     H_    0.775515 0.748685 0.283199 0.173423
H33   H     H_    0.790957 0.934437 0.267786 0.152805
H34   H     H_    0.724785 0.833231 0.141907 0.173551

loop_
_geom_bond_atom_site_label_1
_geom_bond_atom_site_label_2
_ccdc_geom_bond_type
C7    C10   S    
C14   N2    S    
O7    Zn1   S    
C1    C8    S    
C24   H16   S    
C28   H32   S    
C4    C8    S    
C25   H17   S    
C6    C9    S    
C26   H18   S    
C7    C8    S    
C4    H20   S    
C24   C26   S    
C16   H9    S    
C4    H22   S    
C20   H14   S    
C15   C16   S    
C14   H13   S    
O2    Zn2   S    
C20   C24   S    
C11   H4    S    
C19   O7    A    
C27   H29   S    
C23   C24   S    
C9    C10   S    
C15   H8    S    
C16   H11   S    
O4    Zn2   S    
C21   C22   S    
C2    C17   S    
C28   H33   S    
C5    H23   S    
O6    Zn2   S    
C2    C20   S    
O9    C27   S    
C4    C6    S    
C3    C8    S    
C18   O6    A    
C25   C26   S    
C3    H19   S    
O8    Zn2   S    
C19   C23   S    
C16   N2    S    
C5    C9    S    
C1    O1    A    
C19   O8    A    
C2    C21   S    
C2    C26   S    
C6    H24   S    
C13   H12   S    
C12   N2    S    
C17   O3    A    
C21   H15   S    
C20   C22   S    
C11   H6    S    
C22   H1    S    
C12   H5    S    
C28   H34   S    
C7    H27   S    
C15   H10   S    
N1    Zn2   S    
C11   N1    S    
C13   O9    S    
C10   H2    S    
C21   C25   S    
C14   O10   S    
O1    Zn1   S    
O10   C28   S    
C3    C5    S    
C11   C12   S    
C18   O5    A    
C1    O2    A    
O3    Zn1   S    
C10   H3    S    
C27   H31   S    
C3    H21   S    
C23   C25   S    
C17   O4    A    
O5    Zn1   S    
C9    C18   S    
C27   H30   S    
C22   C23   S    
C5    H25   S    
C7    H28   S    
C6    H26   S    
C12   H7    S    
C13   C14   S    
N2    Zn1   S    
C15   N1    S    
C13   N1    S    
