data_mof_unit_10001.cif
_audit_creation_date              2012-12-11T17:05:28-0500
_audit_creation_method            fapswitch 2.2
_symmetry_space_group_name_H-M    P1
_symmetry_Int_Tables_number       1
_space_group_crystal_system       triclinic
_cell_length_a                    6.955336
_cell_length_b                    14.526769
_cell_length_c                    16.020604
_cell_angle_alpha                 90.260298
_cell_angle_beta                  89.990244
_cell_angle_gamma                 89.969575
_cell_volume                      1618.68179192

loop_
_atom_site_label
_atom_site_type_symbol
_atom_type_description
_atom_site_fract_x
_atom_site_fract_y
_atom_site_fract_z
_atom_type_partial_charge
O1    O     O_R   0.494380 0.415640 0.412830 -0.536294
O2    O     O_R   0.823960 0.405540 0.586560 -0.543435
O3    O     O_R   0.994270 0.584360 0.587170 -0.539624
C1    C     C_R   0.655217 0.383457 0.615200 0.693433
O4    O     O_R   0.824090 0.404620 0.413450 -0.543501
O5    O     O_R   0.994400 0.583430 0.412820 -0.538433
C2    C     C_R   0.655332 0.382418 0.384525 0.693328
O6    O     O_R   0.494250 0.416570 0.587180 -0.536443
O7    O     O_3   0.660800 0.558670 0.500000 -0.369066
V1    V     V_3+5 0.935650 0.489120 0.500000 1.378054
O8    O     O_R   0.324110 0.594460 0.413440 -0.538477
C3    C     C_R   0.155058 0.616207 0.384384 0.696191
O9    O     O_R   0.323980 0.595380 0.586550 -0.543810
C4    C     C_R   0.155183 0.617614 0.615522 0.653441
V2    V     V_3+5 0.435660 0.510880 0.500000 1.384107
O10   O     O_3   0.160640 0.441330 0.500000 -0.369411
C5    C     C_3   0.047531 0.644840 0.764461 -0.319327
H1    H     H_    0.900232 0.620641 0.748438 0.136506
H2    H     H_    0.130770 0.583673 0.785316 0.119241
C6    C     C_3   0.034873 0.716074 0.836998 -0.323937
H3    H     H_    0.112044 0.689024 0.892568 0.120610
H4    H     H_    0.881656 0.725651 0.855119 0.137375
H5    H     H_    0.877848 0.752000 0.641744 0.140776
H6    H     H_    0.859348 0.856689 0.748628 0.136665
C7    C     C_3   0.025667 0.773261 0.660124 -0.319242
C8    C     C_3   0.348251 0.721249 0.712475 -0.317209
C9    C     C_3   0.144687 0.687597 0.686340 0.118352
H7    H     H_    0.422000 0.753366 0.658246 0.135195
H8    H     H_    0.437540 0.661727 0.732632 0.134030
C10   C     C_3   0.123201 0.809700 0.810796 0.119837
C11   C     C_3   0.013050 0.844419 0.732710 -0.324738
C12   C     C_3   0.335858 0.791984 0.784548 -0.306450
H9    H     H_    0.419545 0.765939 0.838773 0.136885
H10   H     H_    0.403939 0.857583 0.764413 0.131716
H11   H     H_    0.092933 0.806062 0.604702 0.120007
H12   H     H_    0.074206 0.911311 0.712019 0.117944
C13   C     C_R   0.272644 0.815875 0.239957 0.099418
C14   C     C_R   0.118400 0.815789 0.183666 -0.113778
C15   C     C_R   0.966869 0.753922 0.199347 -0.181260
H13   H     H_    0.844513 0.751372 0.157885 0.131865
C16   C     C_R   0.977951 0.690140 0.265237 -0.178274
H14   H     H_    0.863207 0.640667 0.272684 0.127263
C17   C     C_R   0.141232 0.686021 0.317283 -0.113241
C18   C     C_R   0.284060 0.752496 0.304914 0.097960
C19   C     C_3   0.494955 0.740128 0.293127 -0.408425
C20   C     C_3   0.482647 0.809553 0.222692 -0.397699
H15   H     H_    0.531239 0.669466 0.271400 0.166510
H16   H     H_    0.578906 0.765377 0.347635 0.173320
H17   H     H_    0.512598 0.779408 0.160130 0.169173
H18   H     H_    0.558725 0.875128 0.236626 0.167027
C21   C     C_R   0.493761 0.316715 0.741721 0.094656
C22   C     C_R   0.647604 0.317398 0.685264 -0.111574
C23   C     C_R   0.798871 0.254887 0.699486 -0.180327
H19   H     H_    0.921026 0.253020 0.657848 0.131555
C24   C     C_R   0.787588 0.189572 0.763999 -0.181226
H20   H     H_    0.902024 0.139677 0.770388 0.124507
C25   C     C_R   0.624399 0.184641 0.815979 -0.110803
C26   C     C_R   0.482194 0.251844 0.805334 0.101441
C27   C     C_3   0.270938 0.240562 0.793804 -0.406727
C28   C     C_3   0.283445 0.311726 0.724815 -0.398127
H21   H     H_    0.187958 0.264740 0.849012 0.174809
H22   H     H_    0.233377 0.170603 0.770704 0.163896
H23   H     H_    0.208603 0.377257 0.740316 0.163528
H24   H     H_    0.252227 0.283306 0.661729 0.170749
C29   C     C_R   0.493009 0.316040 0.257268 0.099120
C30   C     C_R   0.647396 0.316554 0.313496 -0.112772
C31   C     C_R   0.798957 0.254481 0.297779 -0.180403
H25   H     H_    0.921422 0.252358 0.339180 0.132203
C32   C     C_R   0.787764 0.189967 0.231944 -0.178556
H26   H     H_    0.902575 0.140400 0.224474 0.127196
C33   C     C_R   0.624346 0.185292 0.179975 -0.112339
C34   C     C_R   0.481492 0.251946 0.192362 0.101551
C35   C     C_3   0.270633 0.239788 0.204242 -0.408802
C36   C     C_3   0.283041 0.309996 0.274609 -0.398348
H27   H     H_    0.234442 0.169381 0.226049 0.165994
H28   H     H_    0.186556 0.264461 0.149743 0.175278
H29   H     H_    0.253211 0.280563 0.337210 0.169812
H30   H     H_    0.206908 0.375446 0.260639 0.167495
O11   O     O_R   0.771490 0.080820 0.910070 -0.538575
O12   O     O_R   0.441590 0.092730 0.083780 -0.538512
O13   O     O_R   0.271350 0.913900 0.084390 -0.536188
C37   C     C_R   0.610579 0.114781 0.112870 0.697556
O14   O     O_R   0.441780 0.091820 0.910670 -0.539348
O15   O     O_R   0.271540 0.912980 0.910040 -0.541723
C38   C     C_R   0.610789 0.113828 0.881947 0.694447
O16   O     O_R   0.771300 0.081740 0.084420 -0.538412
O17   O     O_3   0.604960 0.938700 0.997240 -0.371989
V3    V     V_3+5 0.330090 0.008230 0.997220 1.387217
O18   O     O_R   0.941820 0.901930 0.910640 -0.544221
C39   C     C_R   0.111072 0.879685 0.881663 0.648473
O19   O     O_R   0.941630 0.902840 0.083750 -0.543071
C40   C     C_R   0.110440 0.880928 0.112652 0.692883
V4    V     V_3+5 0.830090 0.986410 0.997190 1.378752
O20   O     O_3   0.105080 0.055990 0.997200 -0.365232

loop_
_geom_bond_atom_site_label_1
_geom_bond_atom_site_label_2
_ccdc_geom_bond_type
C7    C11   S    
O17   V3    S    
C8    C12   S    
V4    O20   S    
C35   H27   S    
C16   H14   S    
C10   C39   S    
C15   C16   A    
C6    C10   S    
C19   C20   S    
C22   C23   A    
C20   H17   S    
C8    C9    S    
C1    C22   S    
C28   H23   S    
O11   V4    S    
C3    C17   S    
O5    C3    A    
C10   C11   S    
V2    O10   S    
C14   C40   S    
C5    C6    S    
C35   C36   S    
C32   C33   A    
O13   C40   A    
O8    V2    S    
C36   H29   S    
O1    V2    S    
C4    C9    S    
O7    V1    S    
C13   C20   S    
C1    O6    A    
C33   C37   S    
C19   H15   S    
O14   V3    S    
C27   C28   S    
O9    C4    A    
C16   C17   A    
O15   C39   A    
C23   C24   A    
V3    O20   S    
C27   H21   S    
C31   H25   S    
C5    C9    S    
O12   C37   A    
O19   C40   A    
O4    C2    A    
C26   C27   S    
C37   O16   A    
C29   C36   S    
C21   C22   A    
C31   C32   A    
C12   H10   S    
O2    C1    A    
C17   C18   A    
C13   C14   A    
O16   V4    S    
O19   V4    S    
C24   H20   S    
C5    H1    S    
C21   C26   A    
O3    C4    A    
C7    H11   S    
O14   C38   A    
C6    H4    S    
O6    V2    S    
O9    V2    S    
C35   H28   S    
O2    V1    S    
O11   C38   A    
C18   C19   S    
C19   H16   S    
C27   H22   S    
O1    C2    A    
O15   V3    S    
C34   C35   S    
O5    V1    S    
O8    C3    A    
C23   H19   S    
C7    C9    S    
C29   C34   A    
C20   H18   S    
C8    H7    S    
C28   H24   S    
C12   H9    S    
C13   C18   A    
C24   C25   A    
O7    V2    S    
H6    C11   S    
O4    V1    S    
O12   V3    S    
O3    V1    S    
V1    O10   S    
C2    C30   S    
C10   C12   S    
C25   C26   A    
C14   C15   A    
O17   V4    S    
C5    H2    S    
C25   C38   S    
C30   C31   A    
H5    C7    S    
O18   V4    S    
C32   H26   S    
O13   V3    S    
C15   H13   S    
C33   C34   A    
C6    H3    S    
C8    H8    S    
C29   C30   A    
C36   H30   S    
C11   H12   S    
C21   C28   S    
O18   C39   A    
