data_mof_unit_15664.cif
_audit_creation_date              2012-12-10T17:05:20-0500
_audit_creation_method            fapswitch 2.2
_symmetry_space_group_name_H-M    P1
_symmetry_Int_Tables_number       1
_space_group_crystal_system       triclinic
_cell_length_a                    10.033507
_cell_length_b                    10.725906
_cell_length_c                    15.510559
_cell_angle_alpha                 90.118274
_cell_angle_beta                  67.891041
_cell_angle_gamma                 90.43715
_cell_volume                      1546.43849623

loop_
_atom_site_label
_atom_site_type_symbol
_atom_type_description
_atom_site_fract_x
_atom_site_fract_y
_atom_site_fract_z
_atom_type_partial_charge
C1    C     C_R   0.498301 0.737120 0.504205 0.792431
C2    C     C_R   0.429263 0.555147 0.907179 0.093386
C3    C     C_R   0.291624 0.604895 0.958198 0.179287
C4    C     C_R   0.536407 0.553358 0.945930 0.069652
C5    C     C_R   0.496523 0.580451 0.041523 0.067542
C6    C     C_R   0.358724 0.631501 0.090975 -0.232354
C7    C     C_R   0.259004 0.645285 0.049164 -0.243880
C8    C     C_R   0.682367 0.527040 0.891920 -0.230749
C9    C     C_R   0.782395 0.512760 0.933170 -0.248032
C10   C     C_R   0.739049 0.520090 0.029397 0.179590
C11   C     C_R   0.595495 0.553648 0.084344 0.094728
C12   C     C_R   0.410149 0.501547 0.675933 0.858001
C13   C     C_R   0.836133 0.490252 0.071764 -0.218406
C14   C     C_R   0.790140 0.487272 0.168391 -0.200791
C15   C     C_R   0.551866 0.548845 0.180962 -0.265158
C16   C     C_2   0.619445 0.067051 0.483502 -0.149473
C17   C     C_2   0.510094 0.132252 0.478881 -0.264602
C18   C     C_2   0.615913 0.933285 0.477937 -0.272102
C19   C     C_2   0.493251 0.868834 0.519177 0.333353
C20   C     C_2   0.107628 0.433842 0.442801 -0.121817
C21   C     C_2   0.959711 0.439546 0.439366 -0.140384
C22   C     C_R   0.502324 0.262882 0.495147 0.910504
C23   C     C_R   0.590002 0.502210 0.324115 0.867179
C24   C     C_R   0.356978 0.521491 0.776243 -0.057283
C25   C     C_R   0.646498 0.513196 0.222968 -0.059306
C26   C     C_R   0.189023 0.614019 0.917003 -0.231144
C27   C     C_R   0.222558 0.574395 0.825488 -0.222492
C28   C     C_R   0.454804 0.505607 0.819365 -0.255336
H1    H     H_    0.154943 0.685306 0.088855 0.152210
H2    H     H_    0.945843 0.464463 0.030319 0.149619
H3    H     H_    0.711878 0.110993 0.491726 0.172205
H4    H     H_    0.717294 0.886868 0.440365 0.145528
H5    H     H_    0.185213 0.372702 0.393626 0.161035
H6    H     H_    0.078015 0.561526 0.542340 0.157752
H7    H     H_    0.941966 0.388888 0.383975 0.154119
H8    H     H_    0.866511 0.541243 0.554351 0.162935
H9    H     H_    0.441540 0.565869 0.225098 0.160723
H10   H     H_    0.892625 0.490568 0.889917 0.148700
H11   H     H_    0.084878 0.655186 0.954523 0.149619
H12   H     H_    0.146013 0.588670 0.792524 0.148559
H13   H     H_    0.552400 0.455318 0.782198 0.155309
H14   H     H_    0.326629 0.665508 0.161332 0.149983
H15   H     H_    0.722957 0.519740 0.817055 0.146150
N1    N     N_2   0.148330 0.498670 0.499030 -0.190280
N2    N     N_2   0.852680 0.498640 0.499000 -0.188553
O1    O     O_R   0.386950 0.680940 0.500010 -0.598810
O2    O     O_R   0.613110 0.680900 0.499990 -0.630344
O3    O     O_R   0.322330 0.500030 0.632270 -0.617497
O4    O     O_R   0.548480 0.499990 0.632240 -0.612607
O5    O     O_R   0.386890 0.319100 0.500010 -0.606313
O6    O     O_R   0.613050 0.319060 0.499990 -0.608057
O7    O     O_R   0.451520 0.500010 0.367760 -0.613144
O8    O     O_R   0.677670 0.499970 0.367730 -0.611064
Zn1   Zn    Zn3+2 0.349000 0.500030 0.500020 0.939138
Zn2   Zn    Zn3+2 0.651000 0.499970 0.499980 0.932744
H16   H     H_    0.424208 0.088902 0.462524 0.196084
O9    O     O_3   0.365367 0.926701 0.573728 -0.647010
C29   C     C_3   0.307861 0.872254 0.663314 0.089270
H17   H     H_    0.393306 0.854240 0.691439 0.127443
H18   H     H_    0.251855 0.783225 0.660799 0.156001
C30   C     C_3   0.198864 0.961965 0.729079 -0.312644
H19   H     H_    0.254088 0.050943 0.732718 0.227327
H20   H     H_    0.113778 0.982405 0.701588 0.228966
C31   C     C_3   0.128894 0.907456 0.826778 -0.968919
H21   H     H_    0.067820 0.821272 0.825200 0.263014
H22   H     H_    0.053043 0.976154 0.873066 0.268528
H23   H     H_    0.211965 0.885711 0.855655 0.274639
H24   H     H_    0.865082 0.460602 0.200178 0.155299

loop_
_geom_bond_atom_site_label_1
_geom_bond_atom_site_label_2
_ccdc_geom_bond_type
C30   C31   S    
C2    C4    A    
C8    H15   S    
C23   O8    A    
C6    C7    A    
C21   H7    S    
C9    C10   A    
C12   C24   S    
C3    C7    A    
C17   C22   S    
C24   C27   A    
C12   O3    A    
C27   H12   S    
C4    C8    A    
C31   H21   S    
O1    Zn1   S    
C29   C30   S    
O8    Zn2   S    
C2    C3    A    
C26   C27   A    
H8    N2    S    
C20   C21   S    
C13   C14   A    
C19   O9    S    
C16   H3    S    
O3    Zn1   S    
C5    C6    A    
C17   H16   S    
O9    C29   S    
O5    Zn1   S    
C18   H4    S    
C21   N2    D    
C7    H1    S    
C20   H5    S    
C16   C18   S    
C9    H10   S    
C20   N1    D    
O7    Zn1   S    
C5    C11   A    
O6    Zn2   S    
C23   C25   S    
C14   C25   A    
C1    O2    A    
C30   H19   S    
C26   H11   S    
C1    O1    A    
C15   C25   A    
C12   O4    A    
C23   O7    A    
C10   C11   A    
C29   H18   S    
C31   H23   S    
N1    Zn1   S    
C22   O5    A    
C4    C5    A    
H6    N1    S    
C13   H2    S    
N2    Zn2   S    
O2    Zn2   S    
C18   C19   D    
C6    H14   S    
C30   H20   S    
C14   H24   S    
C22   O6    A    
C2    C28   A    
C29   H17   S    
O4    Zn2   S    
C1    C19   S    
C11   C15   A    
C3    C26   A    
C15   H9    S    
C28   H13   S    
C24   C28   A    
C16   C17   D    
C8    C9    A    
C10   C13   A    
C31   H22   S    
