data_mof_unit_11834.cif
_audit_creation_date              2012-12-10T18:02:07-0500
_audit_creation_method            fapswitch 2.2
_symmetry_space_group_name_H-M    P1
_symmetry_Int_Tables_number       1
_space_group_crystal_system       triclinic
_cell_length_a                    10.94235
_cell_length_b                    9.497726
_cell_length_c                    23.474436
_cell_angle_alpha                 90.067981
_cell_angle_beta                  92.288188
_cell_angle_gamma                 90.031068
_cell_volume                      2437.69069607

loop_
_atom_site_label
_atom_site_type_symbol
_atom_type_description
_atom_site_fract_x
_atom_site_fract_y
_atom_site_fract_z
_atom_type_partial_charge
C1    C     C_R   0.262107 0.499970 0.499962 0.914122
C2    C     C_R   0.737952 0.500034 0.500098 0.911524
C3    C     C_R   0.482768 0.611452 0.234449 -0.103437
C4    C     C_R   0.475094 0.605729 0.764254 -0.102879
C5    C     C_R   0.496222 0.621259 0.293715 0.280852
C6    C     C_R   0.465143 0.612407 0.704887 0.245063
C7    C     C_R   0.482928 0.498746 0.327534 -0.096752
C8    C     C_R   0.509494 0.499730 0.672087 -0.099335
C9    C     C_R   0.452948 0.370362 0.300107 -0.211164
C10   C     C_R   0.564092 0.383424 0.700188 -0.183785
C11   C     C_R   0.439745 0.362472 0.240895 -0.060035
C12   C     C_R   0.573175 0.377914 0.759568 -0.054046
C13   C     C_R   0.455873 0.482698 0.207958 0.263906
C14   C     C_R   0.527566 0.488442 0.791776 0.254478
C15   C     C_R   0.068148 0.436516 0.545335 0.229112
C16   C     C_R   0.932114 0.563588 0.454794 0.222270
C17   C     C_R   0.939828 0.436480 0.545345 0.203842
C18   C     C_R   0.060413 0.563464 0.454743 0.198398
C19   C     C_R   0.871900 0.500079 0.500085 -0.258804
C20   C     C_R   0.128268 0.499946 0.500015 -0.257412
C21   C     C_R   0.422418 0.074350 0.463919 0.022847
C22   C     C_R   0.577497 0.925647 0.536121 0.046991
C23   C     C_R   0.577446 0.074644 0.536147 0.025328
C24   C     C_R   0.422300 0.925366 0.463982 0.063817
C25   C     C_R   0.496426 0.500163 0.390597 0.864857
C26   C     C_R   0.501251 0.500219 0.609241 0.869381
C27   C     C_R   0.623172 0.479984 0.887012 0.616873
C28   C     C_R   0.360420 0.475150 0.112888 0.618422
C29   C     C_R   0.407201 0.462528 0.874278 0.633442
C30   C     C_R   0.576747 0.462324 0.125625 0.634629
C31   C     C_R   0.392075 0.475341 0.933399 -0.148973
C32   C     C_R   0.591734 0.475788 0.066506 -0.149462
C33   C     C_R   0.497540 0.474386 0.970026 -0.096498
C34   C     C_R   0.486141 0.473727 0.029879 -0.096929
C35   C     C_R   0.614401 0.470740 0.946835 -0.131117
C36   C     C_R   0.369197 0.467918 0.053015 -0.132767
C37   C     C_R   0.275711 0.483204 0.957031 0.346690
C38   C     C_R   0.708033 0.485216 0.042786 0.345916
C39   C     C_R   0.265389 0.459474 0.015724 0.241191
C40   C     C_R   0.718223 0.462411 0.984016 0.241942
Cu1   Cu    Cu3+1 0.500000 0.640660 0.500000 1.053376
Cu2   Cu    Cu3+1 0.500000 0.359340 0.500000 1.020030
H1    H     H_    0.497502 0.703592 0.208442 0.179623
H2    H     H_    0.437722 0.689868 0.789428 0.188633
H3    H     H_    0.440787 0.274849 0.324402 0.186315
H4    H     H_    0.599298 0.295940 0.676161 0.192795
H5    H     H_    0.421061 0.261988 0.220511 0.169716
H6    H     H_    0.612163 0.285907 0.780531 0.174069
H7    H     H_    0.360416 0.130557 0.435011 0.134486
H8    H     H_    0.639465 0.869424 0.565036 0.141670
H9    H     H_    0.639343 0.131080 0.565095 0.154306
H10   H     H_    0.360172 0.868938 0.435143 0.168982
N1    N     N_R   0.520107 0.475287 0.852448 -0.479201
N2    N     N_R   0.463542 0.471209 0.147344 -0.482051
N3    N     N_R   0.500000 0.852070 0.500000 -0.174179
N4    N     N_R   0.500000 0.147930 0.500000 -0.177742
O1    O     O_R   0.319640 0.618740 0.500000 -0.557365
O2    O     O_R   0.680360 0.381260 0.500000 -0.564095
O3    O     O_R   0.680360 0.618740 0.500000 -0.564074
O4    O     O_R   0.319640 0.381260 0.500000 -0.568696
O5    O     O_R   0.499960 0.618810 0.417880 -0.534710
O6    O     O_R   0.500040 0.381190 0.582120 -0.573862
O7    O     O_R   0.500040 0.618810 0.582120 -0.560168
O8    O     O_R   0.499960 0.381190 0.417880 -0.598502
O9    O     O_2   0.732339 0.499192 0.863513 -0.437220
O10   O     O_2   0.251159 0.491129 0.136648 -0.432092
O11   O     O_2   0.311324 0.431784 0.838570 -0.422340
O12   O     O_2   0.673151 0.435332 0.161480 -0.426110
S1    S     S_3+6 0.147920 0.550413 0.916495 0.131291
O13   O     O_2   0.084327 0.431812 0.884934 -0.160306
O14   O     O_2   0.060394 0.621690 0.954660 -0.178998
O15   O     O_3   0.195167 0.670259 0.869393 -0.499443
H11   H     H_    0.121391 0.693292 0.845391 0.401455
S2    S     S_3+6 0.835969 0.552642 0.083279 0.132004
O16   O     O_2   0.899416 0.434299 0.114900 -0.162632
O17   O     O_2   0.923666 0.623432 0.045085 -0.180074
O18   O     O_3   0.788883 0.672994 0.130297 -0.491915
H12   H     H_    0.862853 0.696824 0.154069 0.402879
Br1   Br    Br    0.120500 0.369279 0.040551 -0.190495
Br2   Br    Br    0.862379 0.371620 0.958789 -0.192461
Br3   Br    Br    0.538380 0.804425 0.323494 -0.414362
Br4   Br    Br    0.380949 0.772819 0.672475 -0.404911
Br5   Br    Br    0.161616 0.355778 0.608767 -0.335997
Br6   Br    Br    0.838957 0.644623 0.391410 -0.333342
Br7   Br    Br    0.857365 0.355266 0.608708 -0.435272
Br8   Br    Br    0.143070 0.644177 0.391280 -0.411511

loop_
_geom_bond_atom_site_label_1
_geom_bond_atom_site_label_2
_ccdc_geom_bond_type
C24   H10   S    
C30   C32   A    
C9    H3    S    
C6    Br4   S    
C37   S1    S    
C8    C26   S    
Cu1   Cu2   S    
C11   H5    S    
Cu1   O5    S    
C12   H6    S    
Cu2   O2    S    
C21   H7    S    
C23   N4    A    
O18   H12   S    
C24   N3    A    
C30   N2    A    
C3    H1    S    
C18   Br8   S    
S2    O17   D    
C17   Br7   S    
C33   C35   A    
C16   Br6   S    
C15   C17   A    
S1    O14   D    
Cu1   N3    S    
Cu2   N4    S    
C29   O11   S    
S2    O18   S    
C10   H4    S    
C40   Br2   S    
C32   C38   A    
Cu2   O6    S    
C34   C36   A    
C3    C13   A    
C22   H8    S    
C27   N1    A    
C15   C20   A    
S2    O16   D    
Cu1   O3    S    
C4    C6    A    
C1    O4    A    
Cu2   O4    S    
C5    C7    A    
C28   N2    A    
C2    O3    A    
C6    C8    A    
C4    H2    S    
C27   C35   A    
C31   C37   A    
C25   O8    A    
C39   Br1   S    
S1    O15   S    
C28   O10   S    
C26   O7    A    
C27   O9    S    
C1    O1    A    
C5    Br3   S    
C23   H9    S    
C31   C33   A    
C33   C34   A    
C16   C18   A    
C25   O5    A    
C9    C11   A    
C10   C12   A    
C8    C10   A    
C12   C14   A    
Cu1   O7    S    
Cu2   O8    S    
C13   N2    S    
C38   S2    S    
C7    C9    A    
C1    C20   S    
C2    C19   S    
C36   C39   A    
O15   H11   S    
C3    C5    A    
C21   N4    A    
C15   Br5   S    
C2    O2    A    
C22   N3    A    
C7    C25   S    
C35   C40   A    
C26   O6    A    
Cu1   O1    S    
C37   C39   A    
C38   C40   A    
C11   C13   A    
C29   N1    A    
C16   C19   A    
C17   C19   A    
C18   C20   A    
C4    C14   A    
S1    O13   D    
C14   N1    S    
C28   C36   A    
C29   C31   A    
C21   C24   A    
C22   C23   A    
C30   O12   S    
C32   C34   A    
