data_mof_unit_17824.cif
_audit_creation_date              2012-12-10T21:00:50-0500
_audit_creation_method            fapswitch 2.2
_symmetry_space_group_name_H-M    P1
_symmetry_Int_Tables_number       1
_space_group_crystal_system       triclinic
_cell_length_a                    18.144539
_cell_length_b                    18.183516
_cell_length_c                    18.345029
_cell_angle_alpha                 119.982866
_cell_angle_beta                  89.926783
_cell_angle_gamma                 119.965657
_cell_volume                      4285.88488481

loop_
_atom_site_label
_atom_site_type_symbol
_atom_type_description
_atom_site_fract_x
_atom_site_fract_y
_atom_site_fract_z
_atom_type_partial_charge
C1    C     C_R   0.109919 0.220107 0.609820 0.519444
C2    C     C_3   0.450375 0.896903 0.947740 0.048422
C3    C     C_3   0.445234 0.032554 0.017347 -0.116851
C4    C     C_3   0.554765 0.967446 0.982653 -0.116850
C5    C     C_3   0.415113 0.431138 0.449172 0.243137
C6    C     C_3   0.584886 0.568862 0.550828 0.243136
C7    C     C_3   0.483364 0.404473 0.448599 -0.145567
C8    C     C_3   0.516635 0.595527 0.551400 -0.145568
C9    C     C_3   0.550926 0.499993 0.448963 0.058990
C10   C     C_3   0.449074 0.500007 0.551037 0.058990
C11   C     C_3   0.481461 0.525022 0.447534 -0.144109
C12   C     C_R   0.890080 0.779893 0.390180 0.519446
C13   C     C_3   0.518539 0.474978 0.552466 -0.144110
C14   C     C_R   0.073956 0.158100 0.836588 -0.054760
C15   C     C_R   0.926021 0.841887 0.163409 -0.054758
C16   C     C_R   0.392807 0.780966 0.888226 0.539741
C17   C     C_R   0.607193 0.219034 0.111774 0.539742
C18   C     C_R   0.073082 0.114815 0.748299 0.269210
C19   C     C_R   0.926902 0.885176 0.251701 0.269216
C20   C     C_R   0.011218 0.099580 0.685607 0.039500
C21   C     C_R   0.988774 0.900421 0.314391 0.039498
C22   C     C_R   0.951891 0.129532 0.714420 0.262752
C23   C     C_3   0.981983 0.428296 0.413337 -0.130269
C24   C     C_R   0.048105 0.870475 0.285576 0.262748
C25   C     C_R   0.955099 0.172645 0.803376 -0.047713
C26   C     C_R   0.044890 0.827358 0.196618 -0.047711
C27   C     C_R   0.015335 0.186500 0.863906 -0.205901
C28   C     C_R   0.984645 0.813492 0.136089 -0.205900
C29   C     C_R   0.955152 0.943716 0.535074 -0.140962
C30   C     C_R   0.044846 0.056284 0.464925 -0.140967
C31   C     C_R   0.947102 0.892225 0.444864 0.013330
C32   C     C_R   0.052896 0.107775 0.555136 0.013326
C33   C     C_R   0.992553 0.949079 0.409138 -0.066599
C34   C     C_3   0.018017 0.571704 0.586663 -0.130271
C35   C     C_R   0.007443 0.050921 0.590861 -0.066595
C36   C     C_R   0.653109 0.633079 0.816433 -0.111335
C37   C     C_R   0.346885 0.366917 0.183562 -0.111340
C38   C     C_R   0.606987 0.575531 0.850236 -0.088205
C39   C     C_R   0.393005 0.424465 0.149759 -0.088212
C40   C     C_R   0.110833 0.500795 0.889675 0.512811
C41   C     C_R   0.889167 0.499204 0.110325 0.512810
C42   C     C_R   0.595253 0.623101 0.933055 0.044302
C43   C     C_R   0.404747 0.376898 0.066944 0.044303
C44   C     C_R   0.631052 0.729880 0.982312 0.034991
C45   C     C_3   0.449430 0.966750 0.925009 0.224342
C46   C     C_R   0.368956 0.270120 0.017691 0.035002
C47   C     C_R   0.677007 0.786799 0.947647 -0.102778
C48   C     C_R   0.323002 0.213202 0.052356 -0.102771
C49   C     C_R   0.687914 0.738461 0.864976 -0.106611
C50   C     C_R   0.312088 0.261538 0.135023 -0.106610
C51   C     C_R   0.593550 0.558345 0.022257 -0.133764
C52   C     C_R   0.406450 0.441654 0.977742 -0.133767
C53   C     C_R   0.550210 0.499454 0.055695 0.031104
C54   C     C_R   0.449790 0.500545 0.944304 0.031102
C55   C     C_R   0.455499 0.440370 0.033469 -0.030926
C56   C     C_3   0.550570 0.033250 0.074990 0.224343
C57   C     C_R   0.544501 0.559628 0.966530 -0.030926
C58   C     C_R   0.137593 0.796555 0.959705 0.275635
C59   C     C_R   0.862398 0.203441 0.040289 0.275635
C60   C     C_R   0.118209 0.732106 0.987974 -0.016725
C61   C     C_R   0.881782 0.267893 0.012024 -0.016720
C62   C     C_R   0.038552 0.631177 0.940195 0.000549
C63   C     C_R   0.961445 0.368818 0.059801 0.000550
C64   C     C_R   0.392246 0.499964 0.607817 0.521511
C65   C     C_R   0.607754 0.500036 0.392183 0.521511
C66   C     C_R   0.977295 0.595282 0.864454 -0.097485
C67   C     C_3   0.553241 0.037870 0.958745 -0.125449
C68   C     C_R   0.022704 0.404706 0.135536 -0.097493
C69   C     C_R   0.996081 0.659231 0.835989 -0.144125
C70   C     C_R   0.003918 0.340753 0.163997 -0.144131
C71   C     C_R   0.075857 0.759329 0.883036 -0.091120
C72   C     C_R   0.924136 0.240659 0.116952 -0.091122
C73   C     C_R   0.964826 0.558348 0.021503 -0.153376
C74   C     C_R   0.035174 0.441652 0.978496 -0.153378
C75   C     C_R   0.945166 0.497284 0.053346 0.029146
C76   C     C_R   0.054833 0.502715 0.946653 0.029146
C77   C     C_R   0.980257 0.437296 0.030840 -0.034019
C78   C     C_3   0.446759 0.962130 0.041255 -0.125452
C79   C     C_R   0.019742 0.562702 0.969159 -0.034019
C80   C     C_R   0.393984 0.499694 0.888303 0.512563
C81   C     C_R   0.606016 0.500306 0.111697 0.512566
C82   C     C_R   0.109104 0.500377 0.607914 0.548974
C83   C     C_R   0.890896 0.499623 0.392086 0.548973
C84   C     C_3   0.077906 0.524158 0.481327 -0.147923
C85   C     C_3   0.922094 0.475842 0.518672 -0.147925
C86   C     C_3   0.041951 0.591969 0.515144 0.232336
C87   C     C_3   0.958049 0.408031 0.484855 0.232335
C88   C     C_3   0.947875 0.498465 0.448349 0.057131
C89   C     C_3   0.549625 0.103097 0.052260 0.048424
C90   C     C_3   0.052126 0.501535 0.551651 0.057131
C91   C     C_1   0.620032 0.781621 0.067446 0.201181
C92   C     C_1   0.379984 0.218382 0.932561 0.201183
H1    H     H_    0.016822 0.219756 0.932463 0.121968
H2    H     H_    0.276515 0.217160 0.161404 0.119808
H3    H     H_    0.661834 0.595909 0.752524 0.116981
H4    H     H_    0.338155 0.404086 0.247469 0.116983
H5    H     H_    0.579900 0.493733 0.811724 0.111682
H6    H     H_    0.420087 0.506262 0.188268 0.111684
H7    H     H_    0.142658 0.546003 0.467743 0.126989
H8    H     H_    0.857342 0.453997 0.532257 0.126988
H9    H     H_    0.704272 0.868586 0.984499 0.105493
H10   H     H_    0.295743 0.131417 0.015507 0.105494
H11   H     H_    0.666285 0.603435 0.038771 0.150983
H12   H     H_    0.983153 0.780234 0.067531 0.121965
H13   H     H_    0.333715 0.396564 0.961228 0.150986
H14   H     H_    0.089430 0.807623 0.859768 0.107000
H15   H     H_    0.910562 0.192362 0.140217 0.106999
H16   H     H_    0.165692 0.760170 0.046599 0.123789
H17   H     H_    0.834298 0.239835 0.953404 0.123788
H18   H     H_    0.915563 0.517622 0.827179 0.127311
H19   H     H_    0.084441 0.482363 0.172808 0.127311
H20   H     H_    0.948859 0.631048 0.777185 0.119717
H21   H     H_    0.051142 0.368931 0.222796 0.119720
H22   H     H_    0.937373 0.603433 0.037418 0.141593
H23   H     H_    0.120819 0.169997 0.884600 0.144452
H24   H     H_    0.062627 0.396567 0.962582 0.141594
H25   H     H_    0.965306 0.368031 0.342336 0.135256
H26   H     H_    0.034695 0.631970 0.657664 0.135252
H27   H     H_    0.595650 0.069069 0.924355 0.149242
H28   H     H_    0.404349 0.930930 0.075644 0.149237
H29   H     H_    0.400528 0.059410 0.030051 0.144184
H30   H     H_    0.599472 0.940589 0.969949 0.144183
H31   H     H_    0.469104 0.326066 0.404777 0.129641
H32   H     H_    0.530896 0.673934 0.595223 0.129641
H33   H     H_    0.465860 0.543543 0.402994 0.115501
H34   H     H_    0.879151 0.829982 0.115399 0.144449
H35   H     H_    0.534140 0.456457 0.597005 0.115499
H36   H     H_    0.143755 0.733627 0.576357 0.334974
H37   H     H_    0.856244 0.266374 0.423645 0.334974
H38   H     H_    0.131149 0.065079 0.664799 0.339294
H39   H     H_    0.868840 0.934913 0.335206 0.339293
H40   H     H_    0.893206 0.087249 0.597918 0.335509
H41   H     H_    0.106803 0.912772 0.402078 0.335510
H42   H     H_    0.220820 0.929855 0.979144 0.317761
H43   H     H_    0.779166 0.070141 0.020850 0.317760
H44   H     H_    0.407224 0.991648 0.849771 0.332846
H45   H     H_    0.910221 0.195563 0.825751 0.145148
H46   H     H_    0.592779 0.008352 0.150227 0.332843
H47   H     H_    0.323380 0.321492 0.334581 0.314565
H48   H     H_    0.676620 0.678508 0.665419 0.314564
H49   H     H_    0.089771 0.804445 0.174240 0.145147
H50   H     H_    0.919704 0.900502 0.562597 0.166793
H51   H     H_    0.080293 0.099498 0.437402 0.166794
H52   H     H_    0.723488 0.782838 0.838596 0.119807
N1    N     N_1   0.611145 0.823065 0.135688 -0.279040
N2    N     N_1   0.388877 0.176941 0.864323 -0.279057
O1    O     O_3   0.251620 0.500000 0.748430 -0.461864
O2    O     O_R   0.570330 0.268390 0.136490 -0.552592
O3    O     O_R   0.134680 0.268390 0.572240 -0.534062
O4    O     O_R   0.865320 0.731610 0.427760 -0.534062
O5    O     O_R   0.306670 0.731630 0.863510 -0.506286
O6    O     O_R   0.693330 0.268370 0.136490 -0.506285
O7    O     O_R   0.135450 0.439270 0.865360 -0.548863
O8    O     O_R   0.864550 0.560730 0.134640 -0.548863
O9    O     O_R   0.429670 0.560710 0.692610 -0.557207
O10   O     O_R   0.570330 0.439290 0.307390 -0.557206
O11   O     O_R   0.308540 0.439240 0.865360 -0.550459
O12   O     O_3   0.748380 0.500000 0.251570 -0.461865
O13   O     O_R   0.691460 0.560760 0.134640 -0.550458
O14   O     O_R   0.133580 0.439310 0.571150 -0.507990
O15   O     O_R   0.866420 0.560690 0.428850 -0.507990
O16   O     O_R   0.430770 0.560690 0.864590 -0.539014
O17   O     O_R   0.569230 0.439310 0.135410 -0.539014
O18   O     O_R   0.133580 0.560760 0.692610 -0.544898
O19   O     O_R   0.866420 0.439240 0.307390 -0.544898
O20   O     O_3   0.084675 0.689025 0.529526 -0.662201
O21   O     O_3   0.915325 0.310975 0.470474 -0.662201
O22   O     O_3   0.133989 0.089530 0.727114 -0.681863
O23   O     O_R   0.134680 0.560740 0.864590 -0.536706
O24   O     O_3   0.865991 0.910455 0.272889 -0.681860
O25   O     O_3   0.889786 0.118171 0.658858 -0.690318
O26   O     O_3   0.110219 0.881845 0.341136 -0.690318
O27   O     O_3   0.217040 0.894716 0.007881 -0.711471
O28   O     O_3   0.782946 0.105284 0.992116 -0.711473
O29   O     O_3   0.394783 0.929200 0.844420 -0.673627
O30   O     O_3   0.605217 0.070800 0.155580 -0.673627
O31   O     O_3   0.324014 0.358408 0.396851 -0.663546
O32   O     O_3   0.675986 0.641592 0.603148 -0.663545
O33   O     O_R   0.865320 0.439260 0.135410 -0.536707
O34   O     O_R   0.306670 0.439270 0.571150 -0.488882
O35   O     O_R   0.693330 0.560730 0.428850 -0.488882
O36   O     O_R   0.135450 0.268370 0.694460 -0.533933
O37   O     O_R   0.864550 0.731630 0.305540 -0.533932
O38   O     O_R   0.429670 0.731610 0.863510 -0.552592
Zn1   Zn    Zn3+2 0.207400 0.586780 0.791530 0.973482
Zn2   Zn    Zn3+2 0.792600 0.413220 0.208470 0.973482
Zn3   Zn    Zn3+2 0.208510 0.413230 0.792630 0.950370
Zn4   Zn    Zn3+2 0.791490 0.586770 0.207370 0.950371
Zn5   Zn    Zn3+2 0.383150 0.586740 0.791530 0.938739
Zn6   Zn    Zn3+2 0.616850 0.413260 0.208470 0.938740
Zn7   Zn    Zn3+2 0.207400 0.413250 0.618010 0.999241
Zn8   Zn    Zn3+2 0.792600 0.586750 0.381990 0.999241

loop_
_geom_bond_atom_site_label_1
_geom_bond_atom_site_label_2
_ccdc_geom_bond_type
C34   H26   S    
H39   O24   S    
O5    Zn1   S    
C81   O13   A    
H42   O27   S    
C73   C75   A    
C14   C18   A    
C78   H28   S    
C86   O20   S    
C19   O24   S    
C59   O28   S    
C61   H17   S    
C6    C9    S    
C34   C90   S    
C80   O11   A    
C47   C49   A    
O33   Zn2   S    
C65   O35   A    
O1    Zn1   S    
C15   C19   A    
C83   O19   A    
C64   O9    A    
C74   C76   A    
C56   O30   S    
C47   H9    S    
C60   C62   A    
C11   H33   S    
H41   O26   S    
C84   C86   S    
C5    C11   S    
C65   O10   A    
O12   Zn6   S    
C64   O34   A    
O35   Zn8   S    
C86   C88   S    
C58   C71   A    
C85   C88   S    
C66   C69   A    
C46   C92   S    
C58   C60   A    
C14   H23   S    
C49   H52   S    
C67   C89   S    
C56   C78   S    
C22   C25   A    
C53   C81   S    
C34   C86   S    
C61   C63   A    
O9    Zn5   S    
C20   C35   S    
C87   O21   S    
O1    Zn7   S    
C74   C77   A    
C45   C67   S    
H48   O32   S    
C31   C33   A    
C1    O3    A    
C51   C57   A    
H40   O25   S    
C14   C27   A    
O17   Zn6   S    
C26   H49   S    
C2    C16   S    
C22   O25   S    
C60   H16   S    
C52   C55   A    
C59   C72   A    
C48   C50   A    
C83   C88   S    
C83   O15   A    
H44   O29   S    
C69   C71   A    
C70   H21   S    
C23   C87   S    
C6    O32   S    
H36   O20   S    
C81   O17   A    
C42   C44   A    
O15   Zn8   S    
O12   Zn2   S    
C42   C57   S    
C40   O23   A    
C52   C54   A    
C54   C80   S    
C53   C55   A    
C2    C45   S    
O2    Zn6   S    
C37   C39   A    
C46   C48   A    
C59   C61   A    
O3    Zn7   S    
C23   C84   S    
H37   O21   S    
C85   C87   S    
C92   N2    T    
H43   O28   S    
C12   O4    A    
C62   C79   S    
C17   O2    A    
C17   C89   S    
O6    Zn2   S    
O18   Zn1   S    
C36   H3    S    
C5    C7    S    
C62   C66   A    
C50   H2    S    
C39   H6    S    
C39   C43   A    
O7    Zn3   S    
O34   Zn7   S    
O1    Zn3   S    
O8    Zn4   S    
C15   H34   S    
C1    C32   S    
C30   H51   S    
C40   C76   S    
C37   H4    S    
C51   C53   A    
C34   C85   S    
O13   Zn4   S    
C25   H45   S    
C67   H27   S    
C32   C35   A    
H47   O31   S    
O12   Zn8   S    
C41   C75   S    
C82   O14   A    
C28   H12   S    
C2    C4    S    
C17   O6    A    
C72   H15   S    
C74   H24   S    
C16   O38   A    
C73   C79   A    
C4    H30   S    
C66   H18   S    
C75   C77   A    
C5    O31   S    
C44   C91   S    
C43   C55   S    
C56   C89   S    
C20   C22   A    
C52   H13   S    
C23   C88   S    
C9    C11   S    
C12   C31   S    
H46   O30   S    
C40   O7    A    
C71   H14   S    
C58   O27   S    
C38   H5    S    
C21   C24   A    
C91   N1    T    
C2    C78   S    
C41   O8    A    
C63   C77   S    
C84   C90   S    
C7    C9    S    
C63   C68   A    
C18   O22   S    
C30   C33   A    
C19   C21   A    
C84   H7    S    
C26   C28   A    
C41   O33   A    
C8    C10   S    
C8    H32   S    
O11   Zn3   S    
O14   Zn7   S    
C7    H31   S    
C10   C13   S    
O12   Zn4   S    
C23   H25   S    
C4    C67   S    
C6    C8    S    
C1    O36   A    
C44   C47   A    
C38   C42   A    
C25   C27   A    
C29   C35   A    
C10   C64   S    
O19   Zn2   S    
C82   C90   S    
C48   H10   S    
C3    C89   S    
C45   O29   S    
O23   Zn1   S    
C5    C10   S    
C29   C31   A    
C85   H8    S    
O37   Zn4   S    
C6    C13   S    
C30   C32   A    
C37   C50   A    
C24   C26   A    
C15   C28   A    
C82   O18   A    
O1    Zn5   S    
C8    C11   S    
C29   H50   S    
C36   C38   A    
C12   O37   A    
C69   H20   S    
C3    C45   S    
C16   O5    A    
C18   C20   A    
O36   Zn3   S    
C24   O26   S    
C43   C46   A    
C9    C65   S    
C27   H1    S    
C73   H22   S    
O4    Zn8   S    
C13   H35   S    
H38   O22   S    
C7    C13   S    
C76   C79   A    
C21   C33   S    
C68   C70   A    
C80   O16   A    
C87   C90   S    
O38   Zn5   S    
C70   C72   A    
C3    C78   S    
C51   H11   S    
C68   H19   S    
O16   Zn5   S    
C4    C56   S    
C36   C49   A    
C3    H29   S    
C54   C57   A    
O10   Zn6   S    
