data_mof_unit_45394.cif
_audit_creation_date              2012-12-10T16:49:28-0500
_audit_creation_method            fapswitch 2.2
_symmetry_space_group_name_H-M    P1
_symmetry_Int_Tables_number       1
_space_group_crystal_system       triclinic
_cell_length_a                    7.748196
_cell_length_b                    8.595252
_cell_length_c                    12.847969
_cell_angle_alpha                 90.031818
_cell_angle_beta                  87.772004
_cell_angle_gamma                 93.11504
_cell_volume                      853.733964355

loop_
_atom_site_label
_atom_site_type_symbol
_atom_type_description
_atom_site_fract_x
_atom_site_fract_y
_atom_site_fract_z
_atom_type_partial_charge
Br1   Br    Br    0.230964 0.980028 0.600110 -0.461230
Br2   Br    Br    0.769036 0.019972 0.399889 -0.461230
C1    C     C_R   0.455874 0.205460 0.497199 0.950357
C2    C     C_R   0.717757 0.526238 0.139905 -0.173255
C3    C     C_R   0.592641 0.532249 0.868556 -0.255506
C4    C     C_R   0.407359 0.467751 0.131444 -0.255506
C5    C     C_R   0.581406 0.518271 0.975116 0.179836
C6    C     C_R   0.418594 0.481729 0.024884 0.179836
C7    C     C_2   0.433501 0.044505 0.513424 0.000027
C8    C     C_2   0.566499 0.955495 0.486576 0.000027
C9    C     C_R   0.544126 0.794540 0.502801 0.950357
C10   C     C_R   0.465823 0.504576 0.699838 0.890934
C11   C     C_R   0.534177 0.495424 0.300162 0.890934
C12   C     C_R   0.555462 0.493413 0.188942 -0.040249
C13   C     C_R   0.444538 0.506587 0.811058 -0.040249
C14   C     C_R   0.269309 0.461146 0.967537 -0.206821
C15   C     C_R   0.730691 0.538854 0.032463 -0.206821
C16   C     C_R   0.282243 0.473762 0.860095 -0.173255
H1    H     H_    0.144071 0.433501 0.005539 0.142673
H2    H     H_    0.855929 0.566499 0.994461 0.142673
H3    H     H_    0.282129 0.439749 0.169650 0.166680
H4    H     H_    0.717871 0.560251 0.830350 0.166680
H5    H     H_    0.832717 0.546310 0.184471 0.164360
H6    H     H_    0.167283 0.453690 0.815529 0.164360
H7    H     H_    0.998293 0.615873 0.421896 0.212860
H8    H     H_    0.001707 0.384127 0.578104 0.212860
N1    N     N_2   0.054030 0.541640 0.471970 -0.150503
N2    N     N_2   0.945970 0.458360 0.528030 -0.150503
O1    O     O_R   0.609680 0.261530 0.506880 -0.585105
O2    O     O_R   0.390320 0.738470 0.493120 -0.585105
O3    O     O_R   0.323330 0.288220 0.488910 -0.597570
O4    O     O_R   0.676670 0.711780 0.511090 -0.597569
O5    O     O_R   0.619510 0.488830 0.661140 -0.628915
O6    O     O_R   0.380490 0.511170 0.338860 -0.628915
O7    O     O_R   0.333160 0.515520 0.643180 -0.621330
O8    O     O_R   0.666840 0.484480 0.356820 -0.621330
Zn1   Zn    Zn3+2 0.691200 0.482180 0.511990 1.012756
Zn2   Zn    Zn3+2 0.308800 0.517820 0.488010 1.012756

loop_
_geom_bond_atom_site_label_1
_geom_bond_atom_site_label_2
_ccdc_geom_bond_type
C13   C16   A    
O3    Zn2   S    
C1    C7    S    
C4    C12   A    
C7    C8    D    
H8    N2    S    
C10   C13   S    
O7    Zn2   S    
C11   O6    A    
C6    C14   A    
O6    Zn2   S    
C11   C12   S    
C10   O7    A    
C1    O3    A    
N2    Zn1   S    
C14   H1    S    
C16   H6    S    
C2    C15   A    
O8    Zn1   S    
C9    O4    A    
C3    C5    A    
C2    C12   A    
C3    C13   A    
H7    N1    S    
C8    C9    S    
N1    Zn2   S    
Br2   C8    S    
C5    C6    A    
C15   H2    S    
Br1   C7    S    
O2    Zn2   S    
C11   O8    A    
C14   C16   A    
O1    Zn1   S    
N1    N2    D    
C1    O1    A    
C2    H5    S    
C4    C6    A    
C10   O5    A    
O4    Zn1   S    
C4    H3    S    
O5    Zn1   S    
C3    H4    S    
C9    O2    A    
C5    C15   A    
