data_mof_unit_38941.cif
_audit_creation_date              2012-12-11T16:12:55-0500
_audit_creation_method            fapswitch 2.2
_symmetry_space_group_name_H-M    P1
_symmetry_Int_Tables_number       1
_space_group_crystal_system       triclinic
_cell_length_a                    23.349625
_cell_length_b                    13.595359
_cell_length_c                    28.447184
_cell_angle_alpha                 90.059256
_cell_angle_beta                  90.012429
_cell_angle_gamma                 89.807041
_cell_volume                      9030.4037277

loop_
_atom_site_label
_atom_site_type_symbol
_atom_type_description
_atom_site_fract_x
_atom_site_fract_y
_atom_site_fract_z
_atom_type_partial_charge
C1    C     C_R   0.284226 0.006021 0.815875 0.540247
C2    C     C_R   0.715818 0.006236 0.184351 0.539428
C3    C     C_R   0.784204 0.506029 0.815683 0.538262
C4    C     C_R   0.215820 0.506358 0.184123 0.532108
C5    C     C_3   0.491646 0.839493 0.954111 0.009283
C6    C     C_3   0.502768 0.840000 0.046788 -0.001772
C7    C     C_3   0.010946 0.337046 0.948310 0.001916
C8    C     C_3   0.032023 0.333188 0.039519 0.016560
C9    C     C_3   0.539817 0.757465 0.023887 -0.235672
C10   C     C_3   0.529090 0.751388 0.970231 -0.248795
C11   C     C_3   0.996300 0.242124 0.025053 -0.259987
C12   C     C_3   0.978838 0.250805 0.972700 -0.243786
C13   C     C_1   0.513279 0.836540 0.097786 -0.054755
C14   C     C_1   0.484149 0.835152 0.902788 -0.057511
C15   C     C_1   0.044529 0.328580 0.089977 -0.052860
C16   C     C_1   0.995007 0.335252 0.898529 -0.052416
C17   C     C_1   0.282930 0.692264 0.869574 -0.024214
C18   C     C_1   0.720893 0.679871 0.132209 -0.022065
C19   C     C_1   0.779392 0.183650 0.868295 -0.007741
C20   C     C_1   0.217584 0.193772 0.130842 -0.021458
C21   C     C_R   0.323526 0.615780 0.988471 0.226596
C22   C     C_R   0.684262 0.594720 0.016441 0.236494
C23   C     C_R   0.814666 0.115502 0.985259 0.235167
C24   C     C_R   0.180784 0.103920 0.014579 0.221773
C25   C     C_R   0.314554 0.602358 0.036788 -0.118379
C26   C     C_R   0.692612 0.581522 0.968217 -0.121312
C27   C     C_R   0.807685 0.098063 0.033305 -0.122338
C28   C     C_R   0.189149 0.088035 0.966450 -0.124069
C29   C     C_R   0.218195 0.667087 0.031298 0.023363
C30   C     C_R   0.794568 0.612695 0.976497 -0.002154
C31   C     C_R   0.705042 0.125584 0.025850 -0.002221
C32   C     C_R   0.283603 0.160807 0.969717 0.017882
C33   C     C_R   0.225472 0.681835 0.982795 0.239254
C34   C     C_R   0.786876 0.630261 0.024624 0.221850
C35   C     C_R   0.711809 0.144848 0.977738 0.220406
C36   C     C_R   0.275980 0.180270 0.017828 0.241930
C37   C     C_R   0.277811 0.656498 0.960980 0.021690
C38   C     C_R   0.731774 0.623289 0.044400 0.022672
C39   C     C_R   0.766677 0.139326 0.957580 0.025932
C40   C     C_R   0.224842 0.152566 0.040397 0.017975
C41   C     C_R   0.262140 0.623862 0.057952 -0.057479
C42   C     C_R   0.746983 0.590061 0.948274 -0.072959
C43   C     C_R   0.753167 0.101780 0.053521 -0.072767
C44   C     C_R   0.240202 0.113587 0.944202 -0.062416
C45   C     C_R   0.446260 0.824002 0.816444 0.549075
C46   C     C_R   0.553847 0.824199 0.183459 0.539716
C47   C     C_R   0.946705 0.324062 0.815965 0.552350
C48   C     C_R   0.077830 0.320656 0.177638 0.532458
C49   C     C_1   0.250741 0.587295 0.104800 -0.037424
C50   C     C_1   0.754692 0.566994 0.899499 -0.052290
C51   C     C_1   0.745869 0.073562 0.101747 -0.058765
C52   C     C_1   0.250590 0.080341 0.896794 -0.036538
C53   C     C_1   0.281511 0.674848 0.911110 -0.023903
C54   C     C_1   0.725323 0.653093 0.092277 -0.017729
C55   C     C_1   0.773909 0.161856 0.908823 -0.004748
C56   C     C_1   0.220188 0.175373 0.089575 -0.017377
C57   C     C_1   0.237020 0.551965 0.142039 -0.000523
C58   C     C_1   0.765680 0.542675 0.860000 -0.004607
C59   C     C_1   0.734865 0.045464 0.140672 -0.009029
C60   C     C_1   0.263715 0.048519 0.858771 0.001788
C61   C     C_1   0.430587 0.828242 0.629887 0.010494
C62   C     C_1   0.521380 0.833419 0.357941 0.006036
C63   C     C_1   0.930700 0.328257 0.629901 0.010913
C64   C     C_1   0.021401 0.333426 0.357940 0.004891
C65   C     C_R   0.455018 0.742562 0.513955 0.276028
C66   C     C_R   0.466803 0.743616 0.465356 0.275346
C67   C     C_R   0.955166 0.242595 0.513980 0.276079
C68   C     C_R   0.966907 0.243653 0.465377 0.275379
C69   C     C_R   0.466771 0.922587 0.466717 -0.160580
C70   C     C_R   0.453402 0.921453 0.514510 -0.154751
C71   C     C_R   0.966941 0.422626 0.466750 -0.160560
C72   C     C_R   0.953615 0.421492 0.514550 -0.154704
C73   C     C_R   0.448522 0.831915 0.538330 0.012966
C74   C     C_R   0.474851 0.834125 0.442381 0.007999
C75   C     C_R   0.948722 0.331949 0.538363 0.013034
C76   C     C_R   0.974960 0.334160 0.442404 0.008150
C77   C     C_1   0.498040 0.835824 0.395615 -0.003362
C78   C     C_1   0.438938 0.831450 0.588209 0.003608
C79   C     C_1   0.998097 0.335845 0.395626 -0.003768
C80   C     C_1   0.939108 0.331475 0.588234 0.003794
C81   C     C_1   0.267905 0.636300 0.636644 0.002398
C82   C     C_1   0.735004 0.631159 0.361858 0.008351
C83   C     C_1   0.767879 0.136294 0.636652 0.002414
C84   C     C_1   0.234978 0.131243 0.361883 0.008342
C85   C     C_R   0.277787 0.683732 0.515802 0.004071
C86   C     C_R   0.799124 0.621713 0.474341 -0.003005
C87   C     C_R   0.777757 0.183682 0.515810 0.004056
C88   C     C_R   0.299087 0.121782 0.474380 -0.003021
C89   C     C_R   0.286185 0.716120 0.820619 0.560103
C90   C     C_R   0.714696 0.712880 0.179238 0.551162
C91   C     C_R   0.785452 0.213791 0.820756 0.555222
C92   C     C_R   0.213687 0.216837 0.179629 0.540522
C93   C     C_R   0.273531 0.671592 0.466756 -0.019117
C94   C     C_R   0.802234 0.616206 0.523684 0.001258
C95   C     C_R   0.773505 0.171544 0.466764 -0.019172
C96   C     C_R   0.302195 0.116320 0.523725 0.001247
C97   C     C_R   0.246257 0.500583 0.478764 -0.128079
C98   C     C_R   0.705927 0.547918 0.525723 -0.117943
C99   C     C_R   0.745895 0.000671 0.478792 -0.127891
C100  C     C_R   0.205779 0.048465 0.525791 -0.117903
C101  C     C_R   0.250522 0.512448 0.527117 -0.119247
C102  C     C_R   0.702764 0.553623 0.476982 -0.115186
C103  C     C_R   0.750162 0.012544 0.527143 -0.119294
C104  C     C_R   0.202615 0.054144 0.477049 -0.115245
C105  C     C_R   0.265197 0.603824 0.545746 0.021308
C106  C     C_R   0.749010 0.590194 0.451253 0.022797
C107  C     C_R   0.765034 0.103837 0.545760 0.021210
C108  C     C_R   0.248924 0.090450 0.451304 0.022789
C109  C     C_R   0.256653 0.579866 0.448663 -0.001254
C110  C     C_R   0.755118 0.579585 0.549143 0.025704
C111  C     C_R   0.756483 0.079875 0.448683 -0.001186
C112  C     C_R   0.255034 0.079903 0.549198 0.025777
C113  C     C_1   0.245771 0.565202 0.399707 -0.053054
C114  C     C_1   0.759601 0.563095 0.598699 -0.028161
C115  C     C_1   0.745686 0.065200 0.399718 -0.053008
C116  C     C_1   0.259537 0.063314 0.598746 -0.028017
C117  C     C_1   0.265788 0.616357 0.595691 -0.038434
C118  C     C_1   0.741689 0.606894 0.401942 -0.029271
C119  C     C_1   0.765706 0.116360 0.595702 -0.038454
C120  C     C_1   0.241636 0.107060 0.401981 -0.029320
C121  C     C_1   0.233573 0.544465 0.360069 -0.006742
C122  C     C_1   0.768103 0.542267 0.638987 0.010001
C123  C     C_1   0.733545 0.044456 0.360072 -0.006305
C124  C     C_1   0.268065 0.042381 0.639018 0.010178
C125  C     C_R   0.284387 0.007403 0.684090 0.542917
C126  C     C_R   0.715758 0.007789 0.315725 0.548697
C127  C     C_R   0.784393 0.507386 0.684082 0.542484
C128  C     C_R   0.215759 0.507785 0.315728 0.549236
C129  C     C_R   0.418346 0.821697 0.679000 0.564377
C130  C     C_R   0.553665 0.825246 0.315410 0.546481
C131  C     C_R   0.918377 0.321702 0.678995 0.563665
C132  C     C_R   0.053656 0.325248 0.315399 0.556327
C133  C     C_R   0.274465 0.674123 0.682822 0.557426
C134  C     C_R   0.725821 0.673876 0.316942 0.562116
C135  C     C_R   0.774463 0.174126 0.682824 0.555479
C136  C     C_R   0.225819 0.173884 0.316947 0.563996
C137  C     C_3   0.431812 0.828795 0.978759 -0.107003
C138  C     C_3   0.522958 0.940683 0.025698 -0.101860
C139  C     C_3   0.990106 0.435090 0.971915 -0.104269
C140  C     C_3   0.089169 0.328876 0.010625 -0.105270
C141  C     C_3   0.522913 0.935192 0.970531 -0.098653
C142  C     C_3   0.439149 0.818190 0.033408 -0.100414
C143  C     C_3   0.076308 0.319700 0.956654 -0.099003
C144  C     C_3   0.995187 0.425827 0.026627 -0.099828
C145  C     C_1   0.528117 0.831801 0.138145 0.002695
C146  C     C_1   0.470953 0.830902 0.862078 -0.001818
C147  C     C_1   0.058144 0.325849 0.130516 -0.000374
C148  C     C_1   0.976040 0.331473 0.859493 0.005014
Cr1   Cr    Cr6+3 0.250680 0.837130 0.748990 1.012781
Cr2   Cr    Cr6+3 0.749320 0.837130 0.251010 1.021938
Cr3   Cr    Cr6+3 0.750680 0.337130 0.748990 1.022951
Cr4   Cr    Cr6+3 0.249320 0.337130 0.251010 1.023678
Cr5   Cr    Cr6+3 0.378160 0.960100 0.750430 1.053088
Cr6   Cr    Cr6+3 0.621840 0.960100 0.249570 1.045711
Cr7   Cr    Cr6+3 0.878160 0.460100 0.750430 1.048118
Cr8   Cr    Cr6+3 0.121840 0.460100 0.249570 1.048102
Cr9   Cr    Cr6+3 0.376090 0.707720 0.749670 1.014632
Cr10  Cr    Cr6+3 0.623910 0.707720 0.250330 1.026775
Cr11  Cr    Cr6+3 0.876090 0.207720 0.749670 1.023996
Cr12  Cr    Cr6+3 0.123910 0.207720 0.250330 1.019364
H1    H     H_    0.472916 0.992450 0.449157 0.152508
H2    H     H_    0.448549 0.990402 0.533208 0.160115
H3    H     H_    0.973091 0.492486 0.449190 0.152391
H4    H     H_    0.948788 0.490440 0.533255 0.160035
H5    H     H_    0.233425 0.429782 0.464784 0.122747
H6    H     H_    0.670166 0.518029 0.545199 0.110720
H7    H     H_    0.732938 0.929923 0.464818 0.122814
H8    H     H_    0.169975 0.018752 0.545278 0.110674
H9    H     H_    0.241189 0.450901 0.550020 0.122159
H10   H     H_    0.663857 0.530786 0.459352 0.126185
H11   H     H_    0.740706 0.951055 0.550053 0.122039
H12   H     H_    0.163667 0.031468 0.459429 0.126189
H13   H     H_    0.568426 0.928877 0.959136 0.111689
H14   H     H_    0.430475 0.739949 0.042482 0.118552
H15   H     H_    0.086164 0.242534 0.946098 0.106851
H16   H     H_    0.951121 0.412562 0.040206 0.111108
H17   H     H_    0.567983 0.953106 0.037043 0.116650
H18   H     H_    0.412352 0.759942 0.965689 0.149498
H19   H     H_    0.112347 0.261417 0.021272 0.138695
H20   H     H_    0.943910 0.445285 0.963469 0.120036
H21   H     H_    0.507376 0.680786 0.961673 0.146738
H22   H     H_    0.586039 0.772123 0.030410 0.160860
H23   H     H_    0.931971 0.264705 0.970525 0.186113
H24   H     H_    0.021566 0.173513 0.030461 0.162749
H25   H     H_    0.570874 0.751031 0.951380 0.134145
H26   H     H_    0.529673 0.685076 0.040073 0.163405
H27   H     H_    0.987825 0.179825 0.954528 0.147729
H28   H     H_    0.957134 0.235944 0.047166 0.135547
H29   H     H_    0.348670 0.571753 0.058062 0.129947
H30   H     H_    0.656351 0.563178 0.946179 0.133497
H31   H     H_    0.844789 0.080670 0.054670 0.128103
H32   H     H_    0.155552 0.053340 0.946310 0.129030
O1    O     O_R   0.237900 0.735050 0.799950 -0.504364
O2    O     O_R   0.762100 0.735050 0.200050 -0.505783
O3    O     O_R   0.737900 0.235050 0.799950 -0.498667
O4    O     O_R   0.262100 0.235050 0.200050 -0.483394
O5    O     O_R   0.425240 0.902610 0.703070 -0.486624
O6    O     O_R   0.574760 0.902610 0.296930 -0.491726
O7    O     O_R   0.925240 0.402610 0.703070 -0.486490
O8    O     O_R   0.074760 0.402610 0.296930 -0.487088
O9    O     O_R   0.433420 0.739640 0.698910 -0.506205
O10   O     O_R   0.566580 0.739640 0.301090 -0.500475
O11   O     O_R   0.933420 0.239640 0.698910 -0.506947
O12   O     O_R   0.066580 0.239640 0.301090 -0.495899
O13   O     O_R   0.323550 0.666510 0.701520 -0.503890
O14   O     O_R   0.676450 0.666510 0.298480 -0.488247
O15   O     O_R   0.823550 0.166510 0.701520 -0.504691
O16   O     O_R   0.176450 0.166510 0.298480 -0.488036
O17   O     O_3   0.334980 0.834990 0.749700 -0.294883
O18   O     O_3   0.665020 0.834990 0.250300 -0.271492
O19   O     O_3   0.834980 0.334990 0.749700 -0.295777
O20   O     O_3   0.165020 0.334990 0.250300 -0.291328
O21   O     O_R   0.256160 0.936210 0.796950 -0.525649
O22   O     O_R   0.743840 0.936210 0.203050 -0.517206
O23   O     O_R   0.756160 0.436210 0.796950 -0.518058
O24   O     O_R   0.243840 0.436210 0.203050 -0.521609
O25   O     O_R   0.333710 0.029860 0.801630 -0.486672
O26   O     O_R   0.666290 0.029860 0.198370 -0.495775
O27   O     O_R   0.833710 0.529860 0.801630 -0.493266
O28   O     O_R   0.166290 0.529860 0.198370 -0.496235
O29   O     O_R   0.425340 0.901920 0.798280 -0.477724
O30   O     O_R   0.574660 0.901920 0.201720 -0.488062
O31   O     O_R   0.925340 0.401920 0.798280 -0.484093
O32   O     O_R   0.074660 0.401920 0.201720 -0.476629
O33   O     O_R   0.433530 0.738890 0.801610 -0.523916
O34   O     O_R   0.566470 0.738890 0.198390 -0.523394
O35   O     O_R   0.933530 0.238890 0.801610 -0.516891
O36   O     O_R   0.066470 0.238890 0.198390 -0.517787
O37   O     O_R   0.323650 0.665810 0.796720 -0.501797
O38   O     O_R   0.676350 0.665810 0.203280 -0.497644
O39   O     O_R   0.823650 0.165810 0.796720 -0.491474
O40   O     O_R   0.176350 0.165810 0.203280 -0.515744
O41   O     O_R   0.237790 0.735800 0.697250 -0.496617
O42   O     O_R   0.762210 0.735800 0.302750 -0.496744
O43   O     O_R   0.737790 0.235800 0.697250 -0.496950
O44   O     O_R   0.262210 0.235800 0.302750 -0.495454
O45   O     O_R   0.256050 0.936910 0.701750 -0.497721
O46   O     O_R   0.743950 0.936910 0.298250 -0.499966
O47   O     O_R   0.756050 0.436910 0.701750 -0.497902
O48   O     O_R   0.243950 0.436910 0.298250 -0.498989
O49   O     O_R   0.333600 0.030610 0.698930 -0.502915
O50   O     O_R   0.666400 0.030610 0.301070 -0.498821
O51   O     O_R   0.833600 0.530610 0.698930 -0.502624
O52   O     O_R   0.166400 0.530610 0.301070 -0.498526
C149  C     C_1   0.397016 0.875085 0.061460 0.210609
N1    N     N_1   0.363960 0.919236 0.083342 -0.261941
C150  C     C_1   0.501956 0.025330 0.946931 0.235380
N2    N     N_1   0.486130 0.095779 0.928182 -0.254022
C151  C     C_1   0.012776 0.516990 0.050882 0.234094
N3    N     N_1   0.025435 0.588307 0.070357 -0.243329
C152  C     C_1   0.113517 0.380874 0.926327 0.210648
N4    N     N_1   0.142714 0.428419 0.902663 -0.261618
O53   O     O_3   0.178171 0.704836 0.955450 -0.529493
C153  C     C_3   0.174504 0.807646 0.949270 0.020021
H33   H     H_    0.211566 0.835897 0.928762 0.133555
H34   H     H_    0.173471 0.846288 0.983639 0.112737
C154  C     C_3   0.118860 0.831794 0.923241 -0.235915
H35   H     H_    0.082132 0.798357 0.942186 0.200317
H36   H     H_    0.112026 0.912480 0.922692 0.103330
C155  C     C_3   0.119998 0.794251 0.872662 -0.370974
H37   H     H_    0.155002 0.830485 0.852806 0.160750
H38   H     H_    0.078630 0.811795 0.855283 0.127593
H39   H     H_    0.126454 0.713280 0.871846 0.226069
O54   O     O_3   0.833863 0.645144 0.053515 -0.559627
C156  C     C_3   0.846066 0.746699 0.056311 0.005991
H40   H     H_    0.806533 0.793138 0.057576 0.119330
H41   H     H_    0.872058 0.768470 0.025361 0.148140
C157  C     C_3   0.880489 0.765381 0.101150 -0.239355
H42   H     H_    0.854694 0.742243 0.132030 0.197316
H43   H     H_    0.920411 0.720602 0.100423 0.199389
C158  C     C_3   0.896143 0.873642 0.106708 -0.483984
H44   H     H_    0.926393 0.896080 0.078652 0.143860
H45   H     H_    0.917372 0.884982 0.141209 0.158110
H46   H     H_    0.857121 0.920524 0.105298 0.148667
O55   O     O_3   0.664007 0.161352 0.949939 -0.562596
C159  C     C_3   0.654746 0.263657 0.944944 0.009762
H47   H     H_    0.679620 0.291160 0.914367 0.149656
H48   H     H_    0.667755 0.306328 0.976650 0.112330
C160  C     C_3   0.590986 0.281460 0.935971 -0.237463
H49   H     H_    0.577867 0.241358 0.903664 0.200515
H50   H     H_    0.565817 0.252407 0.966060 0.198369
C161  C     C_3   0.577394 0.390551 0.929881 -0.490666
H51   H     H_    0.587149 0.431342 0.962709 0.166892
H52   H     H_    0.531132 0.399941 0.921918 0.154972
H53   H     H_    0.602693 0.421765 0.900421 0.148022
O56   O     O_3   0.321369 0.215350 0.044280 -0.532132
C162  C     C_3   0.324205 0.318961 0.040848 0.017581
H54   H     H_    0.298363 0.352913 0.069467 0.150121
H55   H     H_    0.307340 0.348080 0.006912 0.096711
C163  C     C_3   0.386889 0.350354 0.045234 -0.246263
H56   H     H_    0.413685 0.305512 0.020976 0.202664
H57   H     H_    0.391448 0.428241 0.034519 0.138983
C164  C     C_3   0.409130 0.338456 0.095374 -0.386455
H58   H     H_    0.384199 0.385828 0.119830 0.137266
H59   H     H_    0.454815 0.360702 0.096903 0.130695
H60   H     H_    0.405741 0.260598 0.106787 0.225356
O57   O     O_3   0.447416 0.654316 0.537270 -0.570786
C165  C     C_3   0.501474 0.616735 0.550535 0.014131
H61   H     H_    0.525390 0.671124 0.572324 0.125640
H62   H     H_    0.527349 0.597653 0.518909 0.171856
C166  C     C_3   0.492555 0.523683 0.579641 -0.248989
H63   H     H_    0.468559 0.542607 0.612190 0.185600
H64   H     H_    0.466780 0.470121 0.559083 0.188850
C167  C     C_3   0.549526 0.476014 0.592982 -0.478319
H65   H     H_    0.572770 0.452069 0.560874 0.146951
H66   H     H_    0.541536 0.410451 0.615250 0.167023
H67   H     H_    0.576495 0.528564 0.613033 0.150106
O58   O     O_3   0.477968 0.656569 0.441842 -0.576893
C168  C     C_3   0.425663 0.613905 0.427856 0.019487
H68   H     H_    0.403222 0.662544 0.402212 0.143972
H69   H     H_    0.397228 0.600680 0.458658 0.175049
C169  C     C_3   0.438452 0.515134 0.404339 -0.258321
H70   H     H_    0.466605 0.527122 0.373372 0.181873
H71   H     H_    0.461424 0.466668 0.429591 0.185595
C170  C     C_3   0.383790 0.463975 0.388309 -0.458517
H72   H     H_    0.355585 0.449040 0.418890 0.166326
H73   H     H_    0.394813 0.392851 0.371306 0.178612
H74   H     H_    0.360632 0.510457 0.362417 0.154410
O59   O     O_3   0.947518 0.154350 0.537285 -0.570751
C171  C     C_3   0.001556 0.116655 0.550527 0.014074
H75   H     H_    0.025470 0.170926 0.572380 0.125753
H76   H     H_    0.027448 0.097692 0.518894 0.171775
C172  C     C_3   0.992594 0.023477 0.579531 -0.248943
H77   H     H_    0.968612 0.042281 0.612098 0.185550
H78   H     H_    0.966792 0.970059 0.558917 0.188938
C173  C     C_3   0.049537 0.975646 0.592818 -0.478561
H79   H     H_    0.072744 0.951758 0.560693 0.147102
H80   H     H_    0.041519 0.910038 0.615035 0.166787
H81   H     H_    0.076548 0.028058 0.612894 0.150058
O60   O     O_3   0.978012 0.156599 0.441850 -0.576941
C174  C     C_3   0.925676 0.114061 0.427853 0.019588
H82   H     H_    0.903264 0.162778 0.402228 0.144382
H83   H     H_    0.897237 0.100849 0.458653 0.174929
C175  C     C_3   0.938397 0.015306 0.404302 -0.258257
H84   H     H_    0.966565 0.027283 0.373345 0.182170
H85   H     H_    0.961329 0.966753 0.429538 0.185581
C176  C     C_3   0.883700 0.964296 0.388245 -0.458535
H86   H     H_    0.855482 0.949363 0.418815 0.166392
H87   H     H_    0.894674 0.893190 0.371211 0.178368
H88   H     H_    0.860580 0.010873 0.362373 0.154516
C177  C     C_1   0.293583 0.778324 0.535381 0.213210
N5    N     N_1   0.306100 0.853827 0.551019 -0.304638
C178  C     C_1   0.846776 0.660690 0.447554 0.200495
N6    N     N_1   0.884791 0.691791 0.426193 -0.308046
C179  C     C_1   0.793765 0.278150 0.535378 0.213272
N7    N     N_1   0.806480 0.353544 0.550999 -0.304730
C180  C     C_1   0.346802 0.160493 0.447578 0.200472
N8    N     N_1   0.384869 0.191376 0.426204 -0.307894
C181  C     C_1   0.285490 0.752865 0.435336 0.185921
N9    N     N_1   0.295116 0.817815 0.410325 -0.292844
C182  C     C_1   0.853562 0.647607 0.548122 0.196680
N10   N     N_1   0.894478 0.672710 0.567644 -0.302838
C183  C     C_1   0.785611 0.252774 0.435332 0.185747
N11   N     N_1   0.795348 0.317697 0.410310 -0.292947
C184  C     C_1   0.353568 0.147558 0.548152 0.196530
N12   N     N_1   0.394518 0.172536 0.567666 -0.302875
C185  C     C_1   0.391057 0.906497 0.964381 0.209230
N13   N     N_1   0.358715 0.966283 0.952865 -0.277794
C186  C     C_1   0.489479 0.024540 0.044751 0.261760
N14   N     N_1   0.463448 0.090232 0.059541 -0.238804
C187  C     C_1   0.019638 0.522360 0.952444 0.264092
N15   N     N_1   0.042536 0.590731 0.937304 -0.241524
C188  C     C_1   0.128375 0.409569 0.022992 0.203744
N16   N     N_1   0.159729 0.471638 0.032913 -0.286523
O61   O     O_3   0.378853 0.592718 0.973069 -0.617618
C189  C     C_3   0.384293 0.552139 0.927467 -0.000314
H89   H     H_    0.429910 0.530023 0.923615 0.147458
H90   H     H_    0.378686 0.608340 0.899829 0.145673
C190  C     C_3   0.348494 0.458814 0.919767 -0.273645
H91   H     H_    0.363697 0.401532 0.944472 0.169483
H92   H     H_    0.302376 0.472416 0.926586 0.176521
C191  C     C_3   0.354947 0.420782 0.869575 -0.442554
H93   H     H_    0.339980 0.477176 0.844120 0.171272
H94   H     H_    0.328672 0.353542 0.864927 0.172214
H95   H     H_    0.400431 0.402228 0.862167 0.158778
O62   O     O_3   0.628169 0.587196 0.032680 -0.605748
C192  C     C_3   0.621096 0.525905 0.072675 0.003084
H96   H     H_    0.574257 0.515450 0.077270 0.145763
H97   H     H_    0.634537 0.563185 0.105336 0.151813
C193  C     C_3   0.647946 0.422711 0.068086 -0.282955
H98   H     H_    0.625839 0.382093 0.039621 0.161944
H99   H     H_    0.694276 0.427142 0.059645 0.162703
C194  C     C_3   0.641618 0.365287 0.113855 -0.448765
H100  H     H_    0.661642 0.406147 0.143403 0.156817
H101  H     H_    0.663503 0.293047 0.110613 0.174688
H102  H     H_    0.595630 0.352796 0.121784 0.161839
O63   O     O_3   0.869257 0.118288 0.966571 -0.600924
C195  C     C_3   0.881915 0.029457 0.942788 0.005972
H103  H     H_    0.908271 0.048268 0.911564 0.160062
H104  H     H_    0.843341 0.989955 0.929342 0.129306
C196  C     C_3   0.916754 0.961840 0.974866 -0.287388
H105  H     H_    0.953649 0.002872 0.989809 0.175871
H106  H     H_    0.888959 0.937350 0.004156 0.145499
C197  C     C_3   0.939060 0.871930 0.948381 -0.466605
H107  H     H_    0.902853 0.830590 0.932675 0.173979
H108  H     H_    0.962381 0.822787 0.973043 0.172453
H109  H     H_    0.968964 0.894751 0.920088 0.149752
O64   O     O_3   0.126691 0.078277 0.031555 -0.611610
C198  C     C_3   0.124493 0.036919 0.077226 0.004524
H110  H     H_    0.080821 0.005780 0.081164 0.153740
H111  H     H_    0.126305 0.094354 0.104708 0.143353
C199  C     C_3   0.167041 0.951922 0.085499 -0.269948
H112  H     H_    0.159254 0.894508 0.058832 0.171491
H113  H     H_    0.212082 0.976210 0.081937 0.178473
C200  C     C_3   0.159624 0.908025 0.134450 -0.444357
H114  H     H_    0.168375 0.964554 0.161719 0.170018
H115  H     H_    0.190201 0.846071 0.139201 0.168121
H116  H     H_    0.115385 0.879814 0.139026 0.166525
C201  C     C_1   0.164243 0.692454 0.053062 0.260740
N17   N     N_1   0.121268 0.713307 0.070668 -0.275198
C202  C     C_1   0.851302 0.618799 0.956321 0.216122
N18   N     N_1   0.896525 0.624104 0.939957 -0.319989
C203  C     C_1   0.648632 0.132364 0.046586 0.212702
N19   N     N_1   0.603660 0.138702 0.063372 -0.317713
C204  C     C_1   0.336826 0.187260 0.947099 0.261181
N20   N     N_1   0.379288 0.208303 0.928839 -0.281815

loop_
_geom_bond_atom_site_label_1
_geom_bond_atom_site_label_2
_ccdc_geom_bond_type
C196  C197  S    
C99   C103  A    
C185  N13   T    
C158  H46   S    
C163  C164  S    
C108  C120  S    
C62   C77   T    
C76   C79   S    
C143  H15   S    
C176  H86   S    
C23   O63   S    
C166  H63   S    
C20   C92   S    
C161  H51   S    
C143  C152  S    
C88   C108  A    
C92   O40   A    
C3    O23   A    
C158  H44   S    
C22   C38   A    
C29   C33   A    
C100  C104  A    
C10   H25   S    
Cr11  O19   S    
C191  H93   S    
C137  C185  S    
C83   C119  T    
Cr2   O2    S    
C192  C193  S    
C153  H34   S    
C9    H22   S    
C66   O58   S    
C167  H67   S    
C65   O57   S    
Cr1   O45   S    
C88   C180  S    
C173  H79   S    
C36   O56   S    
Cr10  O34   S    
C130  O10   A    
C190  C191  S    
Cr3   O23   S    
C149  N1    T    
C106  C118  S    
C70   H2    S    
C41   C49   S    
C99   H7    S    
C94   C182  S    
C115  C123  T    
O60   C174  S    
C172  H77   S    
C171  C172  S    
C17   C89   S    
C121  C128  S    
C1    C60   S    
C25   C41   A    
Cr4   O4    S    
C2    C59   S    
C123  C126  S    
C98   C102  A    
C28   C44   A    
Cr11  O39   S    
C82   C134  S    
C91   O3    A    
C184  N12   T    
C89   O1    A    
C173  H81   S    
C69   C74   A    
Cr8   O28   S    
C45   O33   A    
C5    C137  S    
C100  H8    S    
C71   H3    S    
C157  H43   S    
C2    O22   A    
C128  O52   A    
C64   C79   T    
C165  H61   S    
C82   C118  T    
C194  H100  S    
C126  O46   A    
C176  H88   S    
C166  C167  S    
C198  H111  S    
C47   O31   A    
C92   O4    A    
C138  C141  S    
Cr11  O15   S    
Cr4   O44   S    
C46   O30   A    
C191  H95   S    
C8    C140  S    
C32   C204  S    
Cr6   O18   S    
C200  H114  S    
C175  C176  S    
C160  H50   S    
C69   C70   A    
Cr1   O21   S    
C197  H107  S    
C87   C107  A    
C186  N14   T    
C2    O26   A    
C103  C107  A    
C201  N17   T    
O61   C189  S    
C129  O5    A    
C193  H98   S    
C102  H10   S    
C15   C147  T    
C144  C151  S    
Cr9   O17   S    
C181  N9    T    
C4    O24   A    
Cr5   O49   S    
C62   C130  S    
Cr7   O31   S    
C182  N10   T    
C140  C143  S    
C13   C145  T    
C20   C56   T    
C6    C9    S    
C7    C143  S    
C67   C75   A    
Cr9   O37   S    
Cr6   O6    S    
Cr4   O24   S    
C151  N3    T    
C31   C43   A    
Cr2   O18   S    
C30   C202  S    
O53   C153  S    
C48   O36   A    
C12   H23   S    
C198  H110  S    
C66   C74   A    
C132  O8    A    
C49   C57   T    
C169  H70   S    
C154  H35   S    
C122  C127  S    
C52   C60   T    
Cr1   O1    S    
C85   C93   A    
C195  H103  S    
C74   C77   S    
C87   C95   A    
C126  O50   A    
Cr12  O40   S    
C9    C10   S    
C110  C114  S    
Cr5   O25   S    
C61   C129  S    
C37   C53   S    
C44   C52   S    
C167  H66   S    
C99   C111  A    
C103  H11   S    
C86   C106  A    
C72   C75   A    
C138  C186  S    
C63   C80   T    
C168  H69   S    
C46   O34   A    
C7    C12   S    
C67   O59   S    
C30   C34   A    
C11   H28   S    
C127  O51   A    
C9    H26   S    
C200  H116  S    
C175  H84   S    
C48   O32   A    
C153  C154  S    
C4    O28   A    
C12   H27   S    
Cr1   O41   S    
C91   O39   A    
C172  H78   S    
C171  H76   S    
C164  H58   S    
Cr12  O16   S    
C97   C109  A    
C21   O61   S    
C160  H49   S    
Cr3   O43   S    
C144  H16   S    
C162  H55   S    
C134  O42   A    
C50   C58   T    
C101  H9    S    
C156  H41   S    
C189  C190  S    
C98   H6    S    
C42   C50   S    
C193  C194  S    
C195  H104  S    
C85   C177  S    
Cr9   O9    S    
C112  C116  S    
Cr7   O7    S    
C26   C42   A    
C163  H57   S    
C135  O15   A    
C199  H112  S    
C196  H106  S    
C21   C25   A    
C170  H74   S    
C29   C41   A    
C11   H24   S    
C24   C28   A    
C155  H37   S    
C32   C36   A    
C81   C133  S    
C68   C76   A    
C161  H52   S    
C169  C170  S    
Cr8   O32   S    
C154  C155  S    
C45   O29   A    
C194  H102  S    
C71   C72   A    
C25   H29   S    
O64   C198  S    
C195  C196  S    
C136  O44   A    
C141  C150  S    
C191  H94   S    
C174  C175  S    
C192  H97   S    
C47   O35   A    
C159  H47   S    
C161  H53   S    
C90   O38   A    
C35   O55   S    
C138  H17   S    
C93   C109  A    
C190  H92   S    
Cr7   O51   S    
C140  C188  S    
C88   C96   A    
C127  O47   A    
C203  N19   T    
C98   C110  A    
O55   C159  S    
C137  C142  S    
C183  N11   T    
C152  N4    T    
O58   C168  S    
Cr1   O17   S    
C164  H60   S    
C71   C76   A    
C134  O14   A    
C48   C147  S    
C29   C201  S    
C163  H56   S    
Cr3   O3    S    
C189  H89   S    
C93   C181  S    
C39   C55   S    
C137  H18   S    
C64   C132  S    
C40   C56   S    
C188  N16   T    
C95   C183  S    
Cr7   O27   S    
C63   C131  S    
C6    C142  S    
C131  O11   A    
Cr9   O33   S    
C104  H12   S    
Cr4   O20   S    
C170  H72   S    
C105  C117  S    
C165  H62   S    
C155  H39   S    
C107  C119  S    
C176  H87   S    
C166  H64   S    
C132  O12   A    
C67   C68   A    
C18   C90   S    
C180  N8    T    
C136  O16   A    
C177  N5    T    
C94   C110  A    
C33   C37   A    
Cr12  O36   S    
C165  C166  S    
Cr10  O14   S    
C35   C39   A    
C174  H82   S    
Cr5   O29   S    
C153  H33   S    
C162  H54   S    
C38   C54   S    
C159  C160  S    
C84   C120  T    
C142  C149  S    
C70   C73   A    
C72   H4    S    
C162  C163  S    
Cr9   O13   S    
C133  O41   A    
C22   O62   S    
C5    C14   S    
C197  H108  S    
C7    C16   S    
C100  C112  A    
C8    C15   S    
C1    O21   A    
C135  O43   A    
C68   O60   S    
C96   C184  S    
C17   C53   T    
C104  C108  A    
C125  O45   A    
C193  H99   S    
C19   C55   T    
C84   C136  S    
C116  C124  T    
C197  H109  S    
Cr12  O12   S    
C128  O48   A    
Cr3   O47   S    
C34   O54   S    
C87   C179  S    
Cr2   O42   S    
C171  H75   S    
Cr5   O17   S    
C43   C51   S    
C97   H5    S    
Cr7   O19   S    
C169  H71   S    
C19   C91   S    
O59   C171  S    
C3    C58   S    
C27   C43   A    
C21   C37   A    
C157  H42   S    
C3    O27   A    
C22   C26   A    
C202  N18   T    
C10   H21   S    
C30   C42   A    
C1    O25   A    
Cr10  O18   S    
C198  C199  S    
C178  N6    T    
Cr6   O50   S    
Cr6   O30   S    
Cr8   O20   S    
O57   C165  S    
Cr10  O38   S    
C26   H30   S    
C196  H105  S    
C142  H14   S    
C168  H68   S    
C96   C112  A    
C31   C203  S    
Cr3   O19   S    
C69   H1    S    
C200  H115  S    
O56   C162  S    
C175  H85   S    
C46   C145  S    
Cr5   O5    S    
C133  O13   A    
C140  H19   S    
C65   C73   A    
C160  C161  S    
C139  H20   S    
C86   C94   A    
Cr2   O46   S    
C90   O2    A    
C4    C57   S    
C73   C78   S    
C125  O49   A    
C23   C27   A    
Cr6   O26   S    
Cr8   O52   S    
C75   C80   S    
C83   C135  S    
C109  C113  S    
C141  H13   S    
Cr8   O8    S    
C27   H31   S    
C85   C105  A    
C28   H32   S    
C199  H113  S    
C101  C105  A    
Cr12  O20   S    
C170  H73   S    
C45   C146  S    
C36   C40   A    
C155  H38   S    
O54   C156  S    
C154  H36   S    
C6    C138  S    
C131  O7    A    
C194  H101  S    
C199  C200  S    
C139  C144  S    
Cr11  O11   S    
C204  N20   T    
Cr4   O48   S    
C157  C158  S    
C61   C78   T    
C32   C44   A    
C113  C121  T    
C8    C144  S    
C174  H83   S    
C192  H96   S    
C81   C117  T    
C167  H65   S    
C159  H48   S    
Cr11  O35   S    
Cr10  O10   S    
C51   C59   T    
O62   C192  S    
C190  H91   S    
C156  H40   S    
C168  C169  S    
C158  H45   S    
C47   C148  S    
C34   C38   A    
C5    C141  S    
C24   O64   S    
C173  H80   S    
C150  N2    T    
C187  N15   T    
C14   C146  T    
C16   C148  T    
C172  C173  S    
C139  C187  S    
C33   O53   S    
C129  O9    A    
C5    C10   S    
C164  H59   S    
C95   C111  A    
C6    C13   S    
C7    C139  S    
C8    C11   S    
C23   C39   A    
C24   C40   A    
C102  C106  A    
C31   C35   A    
Cr2   O22   S    
C156  C157  S    
C189  H90   S    
C18   C54   T    
C114  C122  T    
C65   C66   A    
C86   C178  S    
C111  C115  S    
C89   O37   A    
C179  N7    T    
C130  O6    A    
C97   C101  A    
O63   C195  S    
C11   C12   S    
C124  C125  S    
