data_mof_unit_61407.cif
_audit_creation_date              2012-12-10T17:12:06-0500
_audit_creation_method            fapswitch 2.2
_symmetry_space_group_name_H-M    P1
_symmetry_Int_Tables_number       1
_space_group_crystal_system       triclinic
_cell_length_a                    25.921788
_cell_length_b                    25.922945
_cell_length_c                    22.216817
_cell_angle_alpha                 90.158156
_cell_angle_beta                  54.421008
_cell_angle_gamma                 90.081836
_cell_volume                      12141.9318861

loop_
_atom_site_label
_atom_site_type_symbol
_atom_type_description
_atom_site_fract_x
_atom_site_fract_y
_atom_site_fract_z
_atom_type_partial_charge
C1    C     C_R   0.849494 0.750090 0.301116 0.854408
C2    C     C_R   0.849448 0.249879 0.301065 0.853868
C3    C     C_R   0.349487 0.250086 0.301117 0.853860
C4    C     C_R   0.349449 0.749878 0.301065 0.853674
C5    C     C_R   0.408170 0.833361 0.578607 0.620797
C6    C     C_R   0.430606 0.150782 0.532352 0.632213
C7    C     C_R   0.908305 0.333486 0.578365 0.620819
C8    C     C_R   0.930711 0.650742 0.532144 0.632431
C9    C     C_R   0.452885 0.792955 0.541007 -0.168548
C10   C     C_R   0.463480 0.198145 0.518809 -0.173995
C11   C     C_R   0.952950 0.293017 0.540890 -0.169281
C12   C     C_R   0.963527 0.698122 0.518714 -0.174068
C13   C     C_R   0.507144 0.791972 0.542168 -0.175810
C14   C     C_R   0.517754 0.198593 0.520069 -0.180617
C15   C     C_R   0.007202 0.292023 0.542065 -0.176076
C16   C     C_R   0.017800 0.698569 0.519975 -0.180648
C17   C     C_R   0.552390 0.752005 0.503467 -0.268894
C18   C     C_R   0.550817 0.245874 0.506405 -0.274799
C19   C     C_R   0.052389 0.252003 0.503471 -0.268016
C20   C     C_R   0.050811 0.745865 0.506417 -0.274218
C21   C     C_R   0.542635 0.712817 0.467816 0.538994
C22   C     C_R   0.528154 0.291782 0.496970 0.544943
C23   C     C_R   0.042569 0.212766 0.467942 0.535525
C24   C     C_R   0.028097 0.791784 0.497084 0.544687
C25   C     C_R   0.489050 0.713020 0.468230 0.557496
C26   C     C_R   0.474762 0.291639 0.497311 0.559578
C27   C     C_R   0.988982 0.212971 0.468361 0.555786
C28   C     C_R   0.974705 0.791640 0.497425 0.557355
C29   C     C_R   0.444594 0.752768 0.503490 -0.278295
C30   C     C_R   0.443059 0.245494 0.506307 -0.283215
C31   C     C_R   0.944592 0.252777 0.503495 -0.278186
C32   C     C_R   0.943053 0.745486 0.506318 -0.282561
C33   C     C_3   0.477073 0.714477 0.956172 0.448493
C34   C     C_3   0.464821 0.259460 0.956901 0.451153
C35   C     C_3   0.976644 0.215039 0.956174 0.448565
C36   C     C_3   0.976644 0.786320 0.956952 0.445584
C37   C     C_3   0.514303 0.806594 0.957451 -0.299372
C38   C     C_3   0.541510 0.196780 0.957238 -0.307009
C39   C     C_3   0.014992 0.306704 0.957454 -0.299490
C40   C     C_3   0.012914 0.694046 0.957223 -0.310109
C41   C     C_3   0.476468 0.805956 0.044504 1.105924
C42   C     C_3   0.492136 0.196353 0.044243 1.134106
C43   C     C_3   0.977153 0.305997 0.044508 1.105873
C44   C     C_3   0.964035 0.696600 0.044219 1.133247
C45   C     C_R   0.650474 0.750186 0.698933 0.851926
C46   C     C_R   0.650315 0.249729 0.698889 0.852077
C47   C     C_R   0.150474 0.250188 0.698933 0.852011
C48   C     C_R   0.150316 0.749731 0.698890 0.848016
C49   C     C_1   0.389107 0.749540 0.221962 -0.048106
C50   C     C_1   0.389214 0.250401 0.222051 -0.053378
C51   C     C_1   0.889102 0.249547 0.221963 -0.048145
C52   C     C_1   0.889350 0.750506 0.222052 -0.051833
C53   C     C_3   0.537643 0.749477 0.926561 -0.232765
C54   C     C_3   0.536815 0.250711 0.926421 -0.223587
C55   C     C_3   0.037641 0.249487 0.926562 -0.231571
C56   C     C_3   0.037128 0.750940 0.926424 -0.218475
C57   C     C_3   0.431210 0.718142 0.042954 -0.528512
C58   C     C_3   0.423993 0.267319 0.042934 -0.498764
C59   C     C_3   0.930823 0.218737 0.042955 -0.529323
C60   C     C_3   0.939383 0.792193 0.042988 -0.498396
C61   C     C_3   0.463669 0.748990 0.073569 -0.236223
C62   C     C_3   0.463185 0.251488 0.073573 -0.227615
C63   C     C_3   0.963661 0.249004 0.073570 -0.235187
C64   C     C_3   0.963855 0.751732 0.073575 -0.223372
C65   C     C_3   0.529036 0.722500 0.044349 0.444300
C66   C     C_3   0.518814 0.291512 0.043805 0.394684
C67   C     C_3   0.028710 0.221895 0.044347 0.444266
C68   C     C_3   0.033842 0.766742 0.043770 0.395415
C69   C     C_3   0.575700 0.728306 0.957296 0.354111
C70   C     C_3   0.558649 0.295126 0.956443 0.370518
C71   C     C_3   0.075446 0.227668 0.957296 0.354575
C72   C     C_3   0.075933 0.771769 0.956420 0.373432
C73   C     C_1   0.422544 0.749254 0.155394 0.177888
C74   C     C_1   0.422478 0.250868 0.155500 0.146026
C75   C     C_1   0.922538 0.249267 0.155395 0.177829
C76   C     C_1   0.922817 0.751050 0.155502 0.147740
C77   C     C_1   0.578343 0.749734 0.844538 0.095214
C78   C     C_1   0.577859 0.250338 0.844444 0.087180
C79   C     C_1   0.078343 0.249744 0.844538 0.095126
C80   C     C_1   0.078023 0.750490 0.844445 0.086341
C81   C     C_1   0.611313 0.749979 0.777992 -0.076420
C82   C     C_1   0.611023 0.250026 0.777918 -0.075036
C83   C     C_1   0.111312 0.249984 0.777993 -0.076955
C84   C     C_1   0.111095 0.750101 0.777919 -0.074726
C85   C     C_R   0.855870 0.945824 0.368675 0.492914
C86   C     C_R   0.855708 0.053795 0.368452 0.493706
C87   C     C_R   0.356556 0.445835 0.369491 0.492623
C88   C     C_R   0.356338 0.553813 0.369221 0.493012
C89   C     C_R   0.750312 0.610064 0.501008 0.804602
C90   C     C_R   0.750347 0.389987 0.502007 0.799245
C91   C     C_R   0.250312 0.110064 0.501010 0.804073
C92   C     C_R   0.250347 0.889986 0.502013 0.799827
C93   C     C_R   0.903951 0.972942 0.306971 0.463216
C94   C     C_R   0.903871 0.026485 0.306862 0.473689
C95   C     C_R   0.405083 0.472963 0.308168 0.467923
C96   C     C_R   0.404956 0.526506 0.308015 0.473576
C97   C     C_R   0.751850 0.554114 0.504734 -0.043745
C98   C     C_R   0.751308 0.446162 0.505662 -0.047008
C99   C     C_R   0.251849 0.054114 0.504739 -0.043692
C100  C     C_R   0.251307 0.946161 0.505668 -0.047359
C101  C     C_R   0.804984 0.027382 0.431638 -0.273129
C102  C     C_R   0.805067 0.972421 0.431749 -0.265867
C103  C     C_R   0.305269 0.527389 0.432066 -0.273215
C104  C     C_R   0.305367 0.472430 0.432188 -0.267347
C105  C     C_R   0.755289 0.946088 0.495792 -0.212969
C106  C     C_R   0.755126 0.053899 0.495583 -0.215866
C107  C     C_R   0.255183 0.446091 0.495881 -0.212453
C108  C     C_R   0.255012 0.553901 0.495670 -0.214256
C109  C     C_R   0.708123 0.973418 0.558488 0.537763
C110  C     C_R   0.708045 0.026757 0.558384 0.543943
C111  C     C_R   0.207561 0.473414 0.558252 0.537459
C112  C     C_R   0.207483 0.526758 0.558150 0.543680
C113  C     C_R   0.736171 0.473011 0.570678 -0.029567
C114  C     C_R   0.737365 0.528283 0.569707 -0.025781
C115  C     C_R   0.236135 0.973011 0.570699 -0.029705
C116  C     C_R   0.237332 0.028283 0.569726 -0.026372
C117  C     C_R   0.767880 0.526612 0.441370 -0.078747
C118  C     C_R   0.767860 0.472975 0.441715 -0.070924
C119  C     C_R   0.267905 0.026612 0.441364 -0.077311
C120  C     C_R   0.267887 0.972975 0.441710 -0.070924
C121  C     C_R   0.725155 0.555258 0.633530 -0.268304
C122  C     C_R   0.721049 0.447289 0.636415 -0.278822
C123  C     C_R   0.225091 0.055257 0.633564 -0.267928
C124  C     C_R   0.220969 0.947291 0.636456 -0.274555
C125  C     C_R   0.705487 0.528498 0.697874 0.570793
C126  C     C_R   0.702886 0.475413 0.699507 0.577850
C127  C     C_R   0.205378 0.028499 0.697924 0.571729
C128  C     C_R   0.202761 0.975415 0.699563 0.576160
C129  C     C_R   0.750852 0.890115 0.499358 1.049101
C130  C     C_R   0.750820 0.109883 0.499249 1.055838
C131  C     C_R   0.250798 0.390116 0.499404 1.050554
C132  C     C_R   0.250756 0.609883 0.499302 1.055625
C133  C     C_R   0.889199 0.748664 0.501884 1.019637
C134  C     C_R   0.889857 0.250468 0.500617 1.051040
C135  C     C_R   0.389201 0.248667 0.501880 1.021765
C136  C     C_R   0.389862 0.750460 0.500607 1.051471
C137  C     C_R   0.610168 0.749720 0.499651 1.038233
C138  C     C_R   0.609283 0.249048 0.501307 1.010837
C139  C     C_R   0.110170 0.249717 0.499647 1.036746
C140  C     C_R   0.109280 0.749044 0.501313 1.009775
C141  C     C_R   0.513826 0.830253 0.583125 0.625472
C142  C     C_R   0.535929 0.152222 0.537239 0.637699
C143  C     C_R   0.013932 0.330343 0.582937 0.625558
C144  C     C_R   0.036029 0.652177 0.537038 0.636967
C145  C     C_R   0.468009 0.868720 0.621704 -0.214253
C146  C     C_R   0.504862 0.105707 0.546234 -0.208232
C147  C     C_R   0.968179 0.368868 0.621406 -0.214747
C148  C     C_R   0.005047 0.605646 0.545866 -0.208381
C149  C     C_R   0.415296 0.870425 0.619199 -0.201205
C150  C     C_R   0.452398 0.104951 0.543334 -0.193085
C151  C     C_R   0.915485 0.370593 0.618865 -0.202147
C152  C     C_R   0.952588 0.604893 0.542956 -0.193120
H1    H     H_    0.419782 0.678752 0.067399 0.153516
H2    H     H_    0.411494 0.308855 0.056334 0.112133
H3    H     H_    0.918913 0.179334 0.067401 0.153779
H4    H     H_    0.947968 0.831299 0.056350 0.121193
O1    O     O_3   0.750020 0.750020 0.500000 -0.541668
O2    O     O_3   0.750020 0.249980 0.500000 -0.540853
O3    O     O_3   0.250020 0.250020 0.500000 -0.541375
O4    O     O_3   0.250020 0.749980 0.500000 -0.541578
O5    O     O_R   0.698180 0.634210 0.542990 -0.638734
O6    O     O_R   0.698180 0.365790 0.542990 -0.630265
O7    O     O_R   0.198180 0.134210 0.542990 -0.639077
O8    O     O_R   0.198180 0.865790 0.542990 -0.629766
O9    O     O_R   0.741140 0.865830 0.457010 -0.601018
O10   O     O_R   0.741140 0.134170 0.457010 -0.587585
O11   O     O_R   0.241140 0.365830 0.457010 -0.601336
O12   O     O_R   0.241140 0.634170 0.457010 -0.588252
O13   O     O_R   0.862350 0.719680 0.336040 -0.618488
O14   O     O_R   0.862350 0.280320 0.336040 -0.612657
O15   O     O_R   0.362350 0.219680 0.336040 -0.615046
O16   O     O_R   0.362350 0.780320 0.336040 -0.611968
O17   O     O_R   0.698410 0.780360 0.663970 -0.620969
O18   O     O_R   0.698410 0.219640 0.663970 -0.620517
O19   O     O_R   0.198410 0.280360 0.663970 -0.621553
O20   O     O_R   0.198410 0.719640 0.663970 -0.616131
O21   O     O_R   0.801620 0.780400 0.336030 -0.622016
O22   O     O_R   0.801620 0.219600 0.336030 -0.626663
O23   O     O_R   0.301620 0.280400 0.336030 -0.625791
O24   O     O_R   0.301620 0.719600 0.336030 -0.627509
O25   O     O_R   0.637690 0.719640 0.663960 -0.621829
O26   O     O_R   0.637690 0.280360 0.663960 -0.631695
O27   O     O_R   0.137690 0.219640 0.663960 -0.621881
O28   O     O_R   0.137690 0.780360 0.663960 -0.630201
O29   O     O_R   0.801880 0.634210 0.457010 -0.607960
O30   O     O_R   0.801880 0.365790 0.457010 -0.621780
O31   O     O_R   0.301880 0.134210 0.457010 -0.608521
O32   O     O_R   0.301880 0.865790 0.457010 -0.621777
O33   O     O_R   0.758880 0.865820 0.542990 -0.602506
O34   O     O_R   0.758880 0.134180 0.542990 -0.612817
O35   O     O_R   0.258880 0.365820 0.542990 -0.602433
O36   O     O_R   0.258880 0.634180 0.542990 -0.612428
O37   O     O_R   0.887320 0.719660 0.457020 -0.590622
O38   O     O_R   0.887320 0.280340 0.457020 -0.600202
O39   O     O_R   0.387320 0.219660 0.457020 -0.588594
O40   O     O_R   0.387320 0.780340 0.457020 -0.599917
O41   O     O_R   0.655700 0.780390 0.457010 -0.621818
O42   O     O_R   0.655700 0.219610 0.457010 -0.613584
O43   O     O_R   0.155700 0.280390 0.457010 -0.623741
O44   O     O_R   0.155700 0.719610 0.457010 -0.614068
O45   O     O_R   0.844330 0.780370 0.542990 -0.605282
O46   O     O_R   0.844330 0.219630 0.542990 -0.619120
O47   O     O_R   0.344330 0.280370 0.542990 -0.605968
O48   O     O_R   0.344330 0.719630 0.542990 -0.617511
O49   O     O_R   0.612730 0.719660 0.542980 -0.610633
O50   O     O_R   0.612730 0.280340 0.542980 -0.603117
O51   O     O_R   0.112730 0.219660 0.542980 -0.610433
O52   O     O_R   0.112730 0.780340 0.542980 -0.602357
Zn1   Zn    Zn3+2 0.675940 0.706630 0.561420 1.068036
Zn2   Zn    Zn3+2 0.675940 0.293370 0.561420 1.067080
Zn3   Zn    Zn3+2 0.175940 0.206630 0.561420 1.066676
Zn4   Zn    Zn3+2 0.175940 0.793370 0.561420 1.067808
Zn5   Zn    Zn3+2 0.824100 0.706640 0.438580 1.085631
Zn6   Zn    Zn3+2 0.824100 0.293360 0.438580 1.087913
Zn7   Zn    Zn3+2 0.324100 0.206640 0.438580 1.088265
Zn8   Zn    Zn3+2 0.324100 0.793360 0.438580 1.088864
Zn9   Zn    Zn3+2 0.762690 0.793390 0.561420 1.121066
Zn10  Zn    Zn3+2 0.762690 0.206610 0.561420 1.111903
Zn11  Zn    Zn3+2 0.262690 0.293390 0.561420 1.121773
Zn12  Zn    Zn3+2 0.262690 0.706610 0.561420 1.115450
Zn13  Zn    Zn3+2 0.737340 0.793410 0.438580 1.097225
Zn14  Zn    Zn3+2 0.737340 0.206590 0.438580 1.096894
Zn15  Zn    Zn3+2 0.237340 0.293410 0.438580 1.094105
Zn16  Zn    Zn3+2 0.237340 0.706590 0.438580 1.095514
F1    F     F_    0.585755 0.674246 0.431879 -0.599324
F2    F     F_    0.559362 0.337021 0.484879 -0.591982
F3    F     F_    0.085632 0.174143 0.432113 -0.603023
F4    F     F_    0.059257 0.837036 0.485085 -0.592907
C153  C     C_1   0.474089 0.827568 0.935859 0.364176
N1    N     N_1   0.442760 0.844141 0.918987 -0.071192
C154  C     C_1   0.529776 0.152703 0.923991 0.399502
N2    N     N_1   0.520736 0.118258 0.897976 -0.065667
C155  C     C_1   0.975026 0.328299 0.935868 0.363690
N3    N     N_1   0.943894 0.345356 0.919002 -0.068312
C156  C     C_1   0.983310 0.669364 0.923976 0.402838
N4    N     N_1   0.960291 0.650022 0.897961 -0.071218
F5    F     F_    0.419346 0.832428 0.078113 -0.656654
F6    F     F_    0.443132 0.161850 0.065896 -0.629160
F7    F     F_    0.920350 0.332964 0.078122 -0.655785
F8    F     F_    0.903048 0.685173 0.065864 -0.624916
F9    F     F_    0.510293 0.831201 0.066558 -0.552760
F10   F     F_    0.520427 0.179713 0.078127 -0.587626
F11   F     F_    0.011291 0.330697 0.066558 -0.553291
F12   F     F_    0.978358 0.659966 0.078082 -0.588134
C157  C     C_1   0.611548 0.680374 0.919201 0.194236
N5    N     N_1   0.639833 0.643170 0.889357 -0.050878
C158  C     C_1   0.555538 0.346702 0.929792 0.170247
N6    N     N_1   0.553641 0.387033 0.908902 -0.077390
C159  C     C_1   0.110720 0.179532 0.919197 0.192175
N7    N     N_1   0.138561 0.142165 0.889351 -0.051978
C160  C     C_1   0.100022 0.824851 0.929859 0.150137
N8    N     N_1   0.119318 0.866113 0.909041 -0.059527
F13   F     F_    0.622490 0.763433 0.941229 -0.551257
F14   F     F_    0.622383 0.289112 0.927032 -0.561022
F15   F     F_    0.122659 0.262331 0.941234 -0.553551
F16   F     F_    0.130517 0.742599 0.926914 -0.568613
C161  C     C_1   0.519059 0.667987 0.069409 0.144810
N9    N     N_1   0.511227 0.625562 0.089036 -0.045928
C162  C     C_1   0.494431 0.342399 0.080949 0.214266
N10   N     N_1   0.475375 0.381976 0.109979 -0.060420
C163  C     C_1   0.018071 0.167346 0.069397 0.143294
N11   N     N_1   0.009724 0.124891 0.089015 -0.047885
C164  C     C_1   0.035051 0.814005 0.080983 0.194276
N12   N     N_1   0.035893 0.850766 0.110088 -0.051108
C165  C     C_1   0.493674 0.659889 0.933392 0.187839
N13   N     N_1   0.506229 0.617122 0.915615 -0.116863
C166  C     C_1   0.455552 0.303602 0.922031 0.204766
N14   N     N_1   0.448020 0.337938 0.894723 -0.131026
C167  C     C_1   0.992585 0.160384 0.933396 0.187404
N15   N     N_1   0.004622 0.117567 0.915620 -0.118470
C168  C     C_1   0.992368 0.837872 0.922042 0.209259
N16   N     N_1   0.004348 0.878167 0.894688 -0.116792
F17   F     F_    0.555809 0.746629 0.075941 -0.500895
F18   F     F_    0.558372 0.274460 0.062714 -0.519773
F19   F     F_    0.055776 0.245505 0.075943 -0.504104
F20   F     F_    0.058815 0.727887 0.062571 -0.530083
F21   F     F_    0.660867 0.948060 0.619744 -0.602381
F22   F     F_    0.660753 0.052295 0.619579 -0.598918
F23   F     F_    0.159910 0.448045 0.619177 -0.603390
F24   F     F_    0.159797 0.552300 0.619018 -0.601511
F25   F     F_    0.563639 0.830059 0.588178 -0.675556
F26   F     F_    0.581796 0.151597 0.549052 -0.664023
F27   F     F_    0.063722 0.330129 0.588033 -0.675009
F28   F     F_    0.081862 0.651543 0.548905 -0.664652
F29   F     F_    0.861128 0.893667 0.366241 -0.621792
F30   F     F_    0.860795 0.105969 0.365768 -0.614770
F31   F     F_    0.361710 0.393668 0.367088 -0.618097
F32   F     F_    0.361271 0.605999 0.366517 -0.614304
F33   F     F_    0.951892 0.946919 0.247157 -0.541956
F34   F     F_    0.951735 0.052331 0.246941 -0.532198
F35   F     F_    0.453489 0.446954 0.248787 -0.530802
F36   F     F_    0.453188 0.552357 0.248435 -0.528584
C169  C     C_1   0.782931 0.553776 0.375651 0.234610
N17   N     N_1   0.794893 0.575392 0.323452 -0.102706
C170  C     C_1   0.783043 0.445129 0.376213 0.237567
N18   N     N_1   0.795108 0.422977 0.324188 -0.113345
C171  C     C_1   0.282977 0.053776 0.375636 0.233482
N19   N     N_1   0.294955 0.075392 0.323430 -0.111838
C172  C     C_1   0.283098 0.945129 0.376196 0.236820
N20   N     N_1   0.295184 0.922978 0.324162 -0.115040
C173  C     C_1   0.735696 0.609775 0.635916 0.385130
N21   N     N_1   0.744028 0.653288 0.638923 -0.168049
C174  C     C_1   0.726492 0.392526 0.642582 0.383236
N22   N     N_1   0.730701 0.348796 0.648943 -0.139190
C175  C     C_1   0.235641 0.109771 0.635955 0.385008
N23   N     N_1   0.243978 0.153282 0.638968 -0.168260
C176  C     C_1   0.226412 0.892530 0.642638 0.379613
N24   N     N_1   0.230619 0.848804 0.649019 -0.143582
F37   F     F_    0.691291 0.554143 0.759280 -0.595558
F38   F     F_    0.685593 0.450913 0.762774 -0.586577
F39   F     F_    0.191151 0.054143 0.759343 -0.596934
F40   F     F_    0.185397 0.950917 0.762858 -0.595095
C177  C     C_1   0.475520 0.905967 0.664710 0.347419
N25   N     N_1   0.481498 0.935664 0.699227 -0.090405
C178  C     C_1   0.527124 0.058967 0.559632 0.335962
N26   N     N_1   0.545147 0.021632 0.570144 -0.145484
C179  C     C_1   0.975729 0.406149 0.664344 0.349775
N27   N     N_1   0.981738 0.435871 0.698809 -0.090623
C180  C     C_1   0.027392 0.558885 0.559102 0.334546
N28   N     N_1   0.045485 0.521534 0.569481 -0.145733
C181  C     C_1   0.867311 0.409771 0.659243 0.322678
N29   N     N_1   0.828806 0.441095 0.691889 -0.106493
C182  C     C_1   0.919447 0.557275 0.552389 0.313389
N30   N     N_1   0.892888 0.519304 0.559626 -0.192006
C183  C     C_1   0.367050 0.909535 0.659696 0.317063
N31   N     N_1   0.328486 0.940804 0.692434 -0.110632
C184  C     C_1   0.419156 0.057352 0.552967 0.313769
N32   N     N_1   0.392517 0.019395 0.560373 -0.191205
F41   F     F_    0.357091 0.837311 0.576658 -0.696247
F42   F     F_    0.376058 0.148075 0.537353 -0.681835
F43   F     F_    0.857244 0.337455 0.576384 -0.696176
F44   F     F_    0.876136 0.648031 0.537204 -0.681459
F45   F     F_    0.480815 0.674515 0.432922 -0.578705
F46   F     F_    0.455217 0.336793 0.485725 -0.577749
F47   F     F_    0.980685 0.174417 0.433170 -0.581039
F48   F     F_    0.955117 0.836808 0.485931 -0.579868
C185  C     C_1   0.368807 0.740074 0.068651 0.488897
N33   N     N_1   0.319983 0.757148 0.088775 -0.099730
C186  C     C_1   0.362236 0.240342 0.080329 0.512744
N34   N     N_1   0.313956 0.219309 0.109596 -0.096612
C187  C     C_1   0.868686 0.241277 0.068651 0.488163
N35   N     N_1   0.820068 0.258827 0.088774 -0.093482
C188  C     C_1   0.869932 0.789740 0.080464 0.514424
N36   N     N_1   0.815661 0.787864 0.109796 -0.099930
F49   F     F_    0.446512 0.730246 0.924690 -0.620250
F50   F     F_    0.443125 0.216953 0.939535 -0.608100
F51   F     F_    0.946273 0.231369 0.924691 -0.620696
F52   F     F_    0.938041 0.764003 0.939670 -0.608269
C189  C     C_1   0.568047 0.843371 0.924532 0.432455
N37   N     N_1   0.609959 0.872138 0.898763 -0.071309
C190  C     C_1   0.606501 0.187328 0.935999 0.423526
N38   N     N_1   0.657240 0.179730 0.919397 -0.054958
C191  C     C_1   0.069184 0.343033 0.924533 0.431372
N39   N     N_1   0.111448 0.371449 0.898762 -0.071987
C192  C     C_1   0.066352 0.659234 0.935974 0.427642
N40   N     N_1   0.107964 0.631868 0.919365 -0.048349

loop_
_geom_bond_atom_site_label_1
_geom_bond_atom_site_label_2
_ccdc_geom_bond_type
O1    Zn13  S    
C78   C82   T    
C94   F34   S    
C41   C61   S    
C53   C69   S    
C185  N33   T    
C37   C189  S    
C173  N21   T    
C44   C64   S    
C147  C179  S    
C16   C20   A    
C16   C144  A    
C87   F31   S    
C88   F32   S    
C32   C133  S    
C168  N16   T    
O3    Zn3   S    
C142  C146  A    
C146  C150  A    
C11   C15   A    
C113  C122  A    
C12   C16   A    
C56   C72   S    
C46   O18   A    
O28   Zn4   S    
C47   C83   S    
C141  C145  A    
C70   C158  S    
C157  N5    T    
C86   F30   S    
O10   Zn14  S    
C100  C115  A    
C35   C167  S    
O33   Zn9   S    
O31   Zn7   S    
C25   C29   A    
O9    Zn13  S    
C182  N30   T    
C28   C32   A    
C47   O27   A    
C99   C116  A    
C48   O28   A    
C135  O47   A    
C90   O30   A    
C42   F10   S    
C17   C21   A    
C117  C169  S    
C111  F23   S    
C65   C161  S    
C6    C10   A    
C153  N1    T    
C45   O17   A    
C10   C30   A    
C174  N22   T    
C54   C70   S    
C68   C72   S    
C57   C61   S    
C43   F7    S    
C25   F45   S    
C69   C157  S    
O4    Zn16  S    
C137  O41   A    
C34   C54   S    
C27   F47   S    
C49   C73   T    
C39   C191  S    
C125  F37   S    
C133  O45   A    
C106  C130  S    
C59   H3    S    
C59   C63   S    
C45   C81   S    
C96   F36   S    
C149  C183  S    
C39   C43   S    
O37   Zn5   S    
C38   C154  S    
C129  O9    A    
O13   Zn5   S    
C143  F27   S    
C4    C49   S    
C60   C64   S    
C140  O44   A    
C142  F26   S    
C66   C70   S    
O8    Zn4   S    
C60   C188  S    
O24   Zn16  S    
C97   C117  A    
C99   C119  A    
C61   C65   S    
C134  O38   A    
C19   C139  S    
C181  N29   T    
C41   F9    S    
C34   C58   S    
C17   C137  S    
O16   Zn8   S    
C71   C159  S    
C104  C107  A    
C55   C71   S    
C130  O34   A    
C14   C142  A    
O1    Zn1   S    
C189  N37   T    
C116  C123  A    
C131  O35   A    
C190  N38   T    
C70   F14   S    
C148  C180  S    
C42   F6    S    
C5    C149  A    
C37   C153  S    
C159  N7    T    
C90   O6    A    
C64   C68   S    
C8    C152  A    
O41   Zn13  S    
C50   C74   T    
C163  N11   T    
C115  C116  A    
O26   Zn2   S    
C161  N9    T    
C9    C13   A    
C46   C82   S    
C85   C93   A    
C129  O33   A    
C6    F42   S    
O18   Zn10  S    
C95   F35   S    
C155  N3    T    
C132  O36   A    
C37   C53   S    
C131  O11   A    
O51   Zn3   S    
C40   C156  S    
C44   F8    S    
O52   Zn4   S    
C67   C163  S    
C3    C50   S    
C98   C118  A    
C28   F48   S    
O3    Zn7   S    
C62   C66   S    
C65   F17   S    
C34   C166  S    
C10   C14   A    
C152  C182  S    
C180  N28   T    
C87   C95   A    
C35   F51   S    
C147  C151  A    
C112  F24   S    
C121  C125  A    
C169  N17   T    
O50   Zn2   S    
C123  C127  A    
C8    C12   A    
C40   C192  S    
C71   F15   S    
C139  O51   A    
C15   C143  A    
C175  N23   T    
O20   Zn12  S    
C44   F12   S    
C101  C106  A    
C21   C25   A    
C4    O16   A    
C31   C134  S    
C18   C22   A    
C107  C111  A    
C24   C28   A    
C52   C76   T    
C109  F21   S    
C166  N14   T    
C92   O32   A    
C26   C30   A    
C22   F2    S    
O2    Zn6   S    
C56   C80   S    
C13   C17   A    
O46   Zn10  S    
C4    O24   A    
C91   C99   S    
C117  C118  A    
O4    Zn12  S    
C63   C75   S    
O29   Zn5   S    
C72   C160  S    
C37   C41   S    
C126  F38   S    
C40   C44   S    
C133  O37   A    
C7    F43   S    
C2    O22   A    
C54   C78   S    
C97   C114  A    
C47   O19   A    
C85   C102  A    
C48   O20   A    
C58   C62   S    
C88   C96   A    
C101  C102  A    
C80   C84   T    
C151  C181  S    
C34   F50   S    
C191  N39   T    
C138  O50   A    
C45   O25   A    
C160  N8    T    
C41   F5    S    
C15   C19   A    
C5    C9    A    
O48   Zn12  S    
C119  C171  S    
C136  O40   A    
O40   Zn8   S    
C57   C185  S    
O4    Zn8   S    
C140  O52   A    
C146  C178  S    
C102  C105  A    
C35   C59   S    
C18   C138  S    
C89   C97   S    
C105  C109  A    
C58   H2    S    
C114  C121  A    
C39   C55   S    
C111  C112  A    
C40   C56   S    
C156  N4    T    
C13   C141  A    
O39   Zn7   S    
C124  C128  A    
O15   Zn7   S    
C178  N26   T    
C167  N15   T    
C5    F41   S    
C91   O7    A    
C89   O29   A    
C72   F16   S    
O34   Zn10  S    
C89   O5    A    
C122  C174  S    
C148  C152  A    
C170  N18   T    
C98   C113  A    
C43   F11   S    
C57   H1    S    
C176  N24   T    
C33   C165  S    
C53   C77   S    
C172  N20   T    
C60   H4    S    
C120  C172  S    
C36   C56   S    
C55   C79   S    
C130  O10   A    
C186  N34   T    
C38   C54   S    
C77   C81   T    
O1    Zn9   S    
O11   Zn15  S    
C26   F46   S    
C2    O14   A    
C7    C151  A    
O3    Zn11  S    
C27   C31   A    
C125  C126  A    
C66   F18   S    
O43   Zn15  S    
C127  C128  A    
C8    F44   S    
C127  F39   S    
C39   C155  S    
C113  C114  A    
C115  C124  A    
O38   Zn6   S    
C119  C120  A    
O14   Zn6   S    
O6    Zn2   S    
C93   F33   S    
C61   C73   S    
C20   C140  S    
C184  N32   T    
C109  C110  A    
C79   C83   T    
C46   O26   A    
C177  N25   T    
O5    Zn1   S    
C65   C69   S    
C67   C71   S    
C67   F19   S    
C183  N31   T    
C1    C52   S    
C2    C51   S    
C135  O39   A    
C87   C104  A    
C6    C150  A    
C108  C112  A    
C29   C136  S    
C30   C135  S    
C22   C26   A    
C103  C104  A    
C62   C74   S    
C91   O31   A    
C145  C149  A    
C110  F22   S    
O2    Zn2   S    
C188  N36   T    
C59   C187  S    
C93   C94   A    
C33   F49   S    
C171  N19   T    
C14   C18   A    
C19   C23   A    
C95   C96   A    
C144  C148  A    
C69   F13   S    
C137  O49   A    
C187  N35   T    
C143  C147  A    
C85   F29   S    
O42   Zn14  S    
C51   C75   T    
C38   C42   S    
C139  O43   A    
O27   Zn3   S    
O25   Zn1   S    
C3    O23   A    
C86   C94   A    
C1    O21   A    
C192  N40   T    
C145  C177  S    
C144  F28   S    
C103  C108  A    
C100  C120  A    
C23   C27   A    
O17   Zn9   S    
C165  N13   T    
O2    Zn10  S    
C92   O8    A    
C11   C31   A    
O2    Zn14  S    
C58   C186  S    
C12   C32   A    
O12   Zn16  S    
C134  O46   A    
C33   C53   S    
O4    Zn4   S    
C63   C67   S    
C108  C132  S    
C35   C55   S    
O44   Zn16  S    
C20   C24   A    
C118  C170  S    
C107  C131  S    
C66   C162  S    
O35   Zn11  S    
O7    Zn3   S    
C105  C129  S    
C121  C173  S    
C48   C84   S    
O23   Zn15  S    
C122  C126  A    
C7    C11   A    
C68   F20   S    
O49   Zn1   S    
C141  F25   S    
C64   C76   S    
C138  O42   A    
O32   Zn8   S    
O36   Zn12  S    
C162  N10   T    
C136  O48   A    
C88   C103  A    
C92   C100  S    
C106  C110  A    
C42   C62   S    
C33   C57   S    
O19   Zn11  S    
C132  O12   A    
C36   C60   S    
C38   C190  S    
C23   F3    S    
C158  N6    T    
C9    C29   A    
C21   F1    S    
O1    Zn5   S    
C128  F40   S    
O47   Zn11  S    
C123  C175  S    
O21   Zn13  S    
C36   F52   S    
C164  N12   T    
O45   Zn9   S    
C3    O15   A    
O3    Zn15  S    
O30   Zn6   S    
C1    O13   A    
C36   C168  S    
C179  N27   T    
C150  C184  S    
C43   C63   S    
C154  N2    T    
O22   Zn14  S    
C124  C176  S    
C24   F4    S    
C86   C101  A    
C90   C98   S    
C68   C164  S    
