data_mof_unit_43027.cif
_audit_creation_date              2012-12-10T17:47:43-0500
_audit_creation_method            fapswitch 2.2
_symmetry_space_group_name_H-M    P1
_symmetry_Int_Tables_number       1
_space_group_crystal_system       triclinic
_cell_length_a                    14.870914
_cell_length_b                    14.579933
_cell_length_c                    14.318804
_cell_angle_alpha                 75.733295
_cell_angle_beta                  101.672892
_cell_angle_gamma                 115.411777
_cell_volume                      2701.11190881

loop_
_atom_site_label
_atom_site_type_symbol
_atom_type_description
_atom_site_fract_x
_atom_site_fract_y
_atom_site_fract_z
_atom_type_partial_charge
C1    C     C_R   0.880526 0.311056 0.517388 0.789276
C2    C     C_R   0.119472 0.688938 0.482602 0.789285
C3    C     C_R   0.638280 0.073701 0.523385 0.054498
C4    C     C_R   0.361709 0.926255 0.476880 0.054509
C5    C     C_R   0.670887 0.992849 0.563620 0.057391
C6    C     C_R   0.329134 0.007118 0.436586 0.057349
C7    C     C_R   0.534026 0.051765 0.502170 -0.029126
C8    C     C_R   0.465951 0.948166 0.498202 -0.029105
C9    C     C_R   0.504561 0.870224 0.515486 0.171373
C10   C     C_R   0.495407 0.129690 0.484959 0.171457
C11   C     C_R   0.602297 0.889498 0.562806 0.158680
C12   C     C_R   0.397689 0.110449 0.437590 0.158704
C13   C     C_R   0.687917 0.600333 0.305599 -0.316632
C14   C     C_R   0.312089 0.399677 0.694402 -0.316648
C15   C     C_R   0.782315 0.606387 0.348338 0.035875
C16   C     C_R   0.217687 0.393612 0.651661 0.035873
C17   C     C_R   0.720185 0.523590 0.501632 0.312851
C18   C     C_R   0.279820 0.476426 0.498371 0.312874
C19   C     C_R   0.627224 0.533045 0.464084 -0.051349
C20   C     C_R   0.372783 0.466977 0.535918 -0.051257
C21   C     C_R   0.607547 0.555964 0.361986 0.113307
C22   C     C_R   0.392461 0.444056 0.638016 0.113271
C23   C     C_R   0.999855 0.499666 0.668605 0.808169
C24   C     C_R   0.000145 0.500335 0.331394 0.808137
C25   C     C_R   0.549892 0.511517 0.521951 0.028450
C26   C     C_R   0.450117 0.488514 0.478050 0.028433
C27   C     C_R   0.430264 0.483576 0.378667 -0.239317
C28   C     C_R   0.569744 0.516460 0.621333 -0.239203
C29   C     C_R   0.507426 0.526850 0.319015 0.184426
C30   C     C_R   0.492582 0.473176 0.680986 0.184338
C31   C     C_1   0.999874 0.499653 0.771029 -0.208475
C32   C     C_1   0.000126 0.500348 0.228971 -0.208477
C33   C     C_1   0.999889 0.499739 0.856525 -0.013640
C34   C     C_1   0.000112 0.500263 0.143475 -0.013641
C35   C     C_1   0.999960 0.499917 0.957252 -0.001098
C36   C     C_1   0.000040 0.500085 0.042748 -0.001098
C37   C     C_R   0.812656 0.199889 0.533780 -0.082165
C38   C     C_R   0.187350 0.800093 0.466239 -0.082115
C39   C     C_R   0.773132 0.017804 0.597324 -0.176110
C40   C     C_R   0.226935 0.982172 0.402642 -0.176117
C41   C     C_R   0.843798 0.120380 0.585885 0.169860
C42   C     C_R   0.156275 0.879593 0.413970 0.169906
C43   C     C_R   0.711202 0.173915 0.499894 -0.271992
C44   C     C_R   0.288757 0.826056 0.500316 -0.271967
Cu1   Cu    Cu3+1 0.081740 0.475690 0.523180 0.917825
Cu2   Cu    Cu3+1 0.918260 0.524310 0.476820 0.917856
H1    H     H_    0.157370 0.362592 0.696722 0.137831
H2    H     H_    0.842631 0.637402 0.303278 0.137866
N1    N     N_R   0.795420 0.560790 0.441960 -0.167228
N2    N     N_R   0.204580 0.439210 0.558040 -0.167243
O1    O     O_R   0.977910 0.338120 0.530560 -0.563451
O2    O     O_R   0.022090 0.661880 0.469440 -0.563432
O3    O     O_R   0.839850 0.379180 0.491410 -0.583965
O4    O     O_R   0.160150 0.620820 0.508590 -0.583986
O5    O     O_R   0.069040 0.479460 0.643530 -0.565973
O6    O     O_R   0.930960 0.520540 0.356470 -0.565975
O7    O     O_R   0.930990 0.520530 0.604380 -0.557323
O8    O     O_R   0.069010 0.479470 0.395620 -0.557330
C45   C     C_3   0.635228 0.800992 0.604619 -0.883148
H3    H     H_    0.691495 0.805128 0.561473 0.232942
H4    H     H_    0.667995 0.804976 0.681146 0.225347
H5    H     H_    0.572357 0.724158 0.606201 0.256210
C46   C     C_3   0.364712 0.198936 0.395937 -0.883061
H6    H     H_    0.427503 0.275790 0.394645 0.256202
H7    H     H_    0.332188 0.195216 0.319323 0.225326
H8    H     H_    0.308238 0.194514 0.438995 0.232941
H9    H     H_    0.354144 0.448982 0.346091 0.163740
H10   H     H_    0.645865 0.551056 0.653908 0.163727
H11   H     H_    0.310695 0.767095 0.547221 0.188091
H12   H     H_    0.689201 0.232878 0.453085 0.188130
C47   C     C_3   0.049501 0.858773 0.370722 -0.841697
H13   H     H_    0.999617 0.827801 0.429174 0.249147
H14   H     H_    0.041095 0.930021 0.328250 0.214303
H15   H     H_    0.024952 0.803176 0.320569 0.229096
C48   C     C_3   0.950654 0.141179 0.628822 -0.841527
H16   H     H_    0.000347 0.172229 0.570205 0.249142
H17   H     H_    0.975371 0.196697 0.679081 0.229166
H18   H     H_    0.959146 0.069910 0.671105 0.214258
H19   H     H_    0.799478 0.957662 0.631730 0.149798
H20   H     H_    0.200625 0.042317 0.368123 0.149787
C49   C     C_3   0.452477 0.775967 0.467164 -0.876338
H21   H     H_    0.417527 0.705456 0.520869 0.238220
H22   H     H_    0.395496 0.785236 0.406659 0.237538
H23   H     H_    0.507412 0.764822 0.433654 0.246383
C50   C     C_3   0.547487 0.223880 0.533369 -0.876609
H24   H     H_    0.604530 0.214596 0.593795 0.237555
H25   H     H_    0.582377 0.294444 0.479695 0.238239
H26   H     H_    0.492570 0.234921 0.566999 0.246403
C51   C     C_3   0.480685 0.534664 0.210730 -0.886118
H27   H     H_    0.398347 0.504131 0.190373 0.232095
H28   H     H_    0.512662 0.616738 0.174540 0.232471
H29   H     H_    0.510669 0.489555 0.183431 0.236401
C52   C     C_3   0.519323 0.465356 0.789270 -0.886161
H30   H     H_    0.601661 0.495893 0.809627 0.232113
H31   H     H_    0.489334 0.510458 0.816574 0.236396
H32   H     H_    0.487350 0.383280 0.825455 0.232486
C53   C     C_3   0.271034 0.543614 0.400426 -0.807856
H33   H     H_    0.344611 0.596784 0.375212 0.205750
H34   H     H_    0.225248 0.495110 0.345306 0.222238
H35   H     H_    0.239816 0.598576 0.402545 0.264165
C54   C     C_3   0.728978 0.456417 0.599583 -0.807967
H36   H     H_    0.774780 0.504932 0.654690 0.222278
H37   H     H_    0.655408 0.403263 0.624817 0.205782
H38   H     H_    0.760181 0.401442 0.597461 0.264179
H39   H     H_    0.677956 0.626359 0.228146 0.159101
H40   H     H_    0.322051 0.373650 0.771855 0.159106

loop_
_geom_bond_atom_site_label_1
_geom_bond_atom_site_label_2
_ccdc_geom_bond_type
C7    C10   A    
C46   H7    S    
C10   C50   S    
C32   C34   T    
C54   H36   S    
C27   C29   A    
C35   C36   T    
C4    C8    A    
C53   H35   S    
C29   C51   S    
C53   H33   S    
C7    C8    A    
C39   C41   A    
C50   H24   S    
C25   C28   A    
Cu2   N1    S    
C3    C43   A    
C26   C27   A    
C52   H30   S    
C28   H10   S    
C16   N2    A    
C5    C11   A    
C30   C52   S    
C3    C7    A    
C6    C12   A    
C33   C35   S    
Cu1   O1    S    
Cu2   O2    S    
C48   H17   S    
C1    O3    A    
C17   C54   S    
C53   H34   S    
C8    C9    A    
C40   H20   S    
C18   C53   S    
C51   H28   S    
C18   C20   A    
C1    C37   S    
C40   C42   A    
C46   H8    S    
C45   H3    S    
C52   H31   S    
C15   H2    S    
C11   C45   S    
C10   C12   A    
C16   H1    S    
C49   H22   S    
C49   H21   S    
C50   H25   S    
Cu1   O8    S    
C45   H4    S    
C24   O8    A    
C6    C40   A    
C4    C6    A    
C2    O4    A    
C17   N1    A    
C47   H14   S    
C12   C46   S    
C4    C44   A    
C23   C31   S    
C25   C26   A    
Cu1   Cu2   S    
C21   C29   A    
C39   H19   S    
C37   C43   A    
C48   H16   S    
C24   C32   S    
C38   C44   A    
C41   C48   S    
C1    O1    A    
C2    C38   S    
C31   C33   T    
C13   C21   A    
C44   H11   S    
C51   H29   S    
C9    C11   A    
C2    O2    A    
C13   H39   S    
C20   C22   A    
Cu1   O4    S    
C52   H32   S    
C13   C15   A    
Cu2   O7    S    
C14   C16   A    
C24   O6    A    
C49   H23   S    
C18   N2    A    
C50   H26   S    
C23   O7    A    
C45   H5    S    
C22   C30   A    
C19   C21   A    
C3    C5    A    
C47   H15   S    
C23   O5    A    
C43   H12   S    
C14   C22   A    
C5    C39   A    
C47   H13   S    
C20   C26   A    
Cu1   N2    S    
Cu2   O3    S    
C28   C30   A    
C42   C47   S    
C17   C19   A    
C34   C36   S    
C15   N1    A    
C37   C41   A    
C19   C25   A    
C48   H18   S    
C27   H9    S    
C46   H6    S    
C38   C42   A    
C14   H40   S    
Cu1   O5    S    
C54   H37   S    
Cu2   O6    S    
C54   H38   S    
C51   H27   S    
C9    C49   S    
