data_mof_unit_47699.cif
_audit_creation_date              2012-12-11T16:45:47-0500
_audit_creation_method            fapswitch 2.2
_symmetry_space_group_name_H-M    P1
_symmetry_Int_Tables_number       1
_space_group_crystal_system       triclinic
_cell_length_a                    19.846843
_cell_length_b                    17.186296
_cell_length_c                    15.433763
_cell_angle_alpha                 90.0
_cell_angle_beta                  52.970153
_cell_angle_gamma                 89.99999
_cell_volume                      4202.6535629

loop_
_atom_site_label
_atom_site_type_symbol
_atom_type_description
_atom_site_fract_x
_atom_site_fract_y
_atom_site_fract_z
_atom_type_partial_charge
C1    C     C_R   0.843051 0.675867 0.036779 0.820748
C2    C     C_R   0.141961 0.306379 0.077236 -0.450396
C3    C     C_3   0.706093 0.622501 0.903053 0.183551
C4    C     C_3   0.409056 0.729256 0.719547 -0.127158
C5    C     C_3   0.590945 0.729255 0.280453 -0.127157
C6    C     C_3   0.909056 0.229255 0.719547 -0.127154
C7    C     C_3   0.090943 0.229256 0.280454 -0.127155
C8    C     C_R   0.358038 0.806379 0.922764 -0.450396
C9    C     C_R   0.641962 0.806379 0.077236 -0.450395
C10   C     C_R   0.884850 0.680789 0.306826 0.000790
C11   C     C_R   0.115150 0.680789 0.693174 0.000790
C12   C     C_R   0.384850 0.180789 0.306826 0.000789
C13   C     C_R   0.615150 0.180789 0.693174 0.000787
C14   C     C_R   0.791425 0.693774 0.500451 -0.291956
C15   C     C_R   0.208575 0.693774 0.499549 -0.291956
C16   C     C_R   0.291425 0.193774 0.500451 -0.291955
C17   C     C_R   0.156949 0.675867 0.963221 0.820748
C18   C     C_R   0.708573 0.193774 0.499549 -0.291957
C19   C     C_R   0.850708 0.728713 0.400270 -0.185552
C20   C     C_R   0.149293 0.728713 0.599730 -0.185551
C21   C     C_R   0.350707 0.228713 0.400270 -0.185553
C22   C     C_R   0.649292 0.228713 0.599730 -0.185553
C23   C     C_R   0.369724 0.308279 0.394621 0.670183
C24   C     C_R   0.630276 0.308279 0.605379 0.670184
C25   C     C_R   0.869724 0.808279 0.394621 0.670185
C26   C     C_R   0.130276 0.808279 0.605379 0.670183
C27   C     C_R   0.320432 0.353902 0.488353 0.614059
C28   C     C_R   0.343051 0.175867 0.036780 0.820747
C29   C     C_R   0.679568 0.353902 0.511647 0.614058
C30   C     C_R   0.820432 0.853902 0.488353 0.614060
C31   C     C_R   0.179567 0.853902 0.511647 0.614060
C32   C     C_R   0.252817 0.319239 0.584791 -0.210673
C33   C     C_R   0.747182 0.319239 0.415209 -0.210673
C34   C     C_R   0.752818 0.819239 0.584791 -0.210672
C35   C     C_R   0.247183 0.819239 0.415209 -0.210673
C36   C     C_R   0.741437 0.739176 0.590273 -0.078842
C37   C     C_R   0.258563 0.739176 0.409727 -0.078841
C38   C     C_R   0.241437 0.239175 0.590273 -0.078842
C39   C     C_R   0.656949 0.175867 0.963220 0.820748
C40   C     C_R   0.758561 0.239175 0.409726 -0.078841
C41   C     C_3   0.662372 0.694785 0.631197 0.487844
C42   C     C_3   0.337628 0.694785 0.368803 0.487843
C43   C     C_3   0.162372 0.194784 0.631198 0.487844
C44   C     C_3   0.837625 0.194782 0.368800 0.487844
C45   C     C_R   0.849507 0.332037 0.218184 0.798380
C46   C     C_R   0.150493 0.332037 0.781816 0.798381
C47   C     C_R   0.349507 0.832037 0.218184 0.798381
C48   C     C_R   0.650493 0.832037 0.781816 0.798380
C49   C     C_3   0.718258 0.640589 0.534290 0.961392
C50   C     C_R   0.809684 0.362401 0.320611 -0.025964
C51   C     C_3   0.281743 0.640590 0.465711 0.961392
C52   C     C_3   0.218258 0.140589 0.534290 0.961391
C53   C     C_3   0.781739 0.140587 0.465708 0.961392
C54   C     C_2   0.772358 0.189533 0.984816 0.386452
C55   C     C_2   0.227641 0.189533 0.015184 0.386453
C56   C     C_2   0.272358 0.689534 0.984816 0.386453
C57   C     C_2   0.727642 0.689534 0.015184 0.386452
C58   C     C_2   0.320264 0.742084 0.903377 0.588735
C59   C     C_2   0.679736 0.742084 0.096623 0.588734
C60   C     C_2   0.820265 0.242084 0.903377 0.588734
C61   C     C_R   0.190316 0.362401 0.679389 -0.025962
C62   C     C_2   0.179735 0.242084 0.096623 0.588735
C63   C     C_R   0.869464 0.384683 0.893391 0.686342
C64   C     C_R   0.130536 0.384682 0.106609 0.686341
C65   C     C_R   0.369464 0.884683 0.893391 0.686342
C66   C     C_R   0.630536 0.884683 0.106609 0.686343
C67   C     C_R   0.905284 0.604825 0.304138 -0.171329
C68   C     C_R   0.094716 0.604825 0.695862 -0.171330
C69   C     C_R   0.405283 0.104825 0.304138 -0.171329
C70   C     C_R   0.594716 0.104825 0.695862 -0.171326
C71   C     C_R   0.888795 0.297239 0.979933 0.822484
C72   C     C_R   0.309683 0.862401 0.320611 -0.025962
C73   C     C_R   0.111205 0.297239 0.020067 0.822480
C74   C     C_R   0.388795 0.797238 0.979933 0.822483
C75   C     C_R   0.611205 0.797238 0.020067 0.822483
C76   C     C_R   0.896025 0.696813 0.211436 0.861548
C77   C     C_R   0.103975 0.696813 0.788564 0.861550
C78   C     C_R   0.396024 0.196813 0.211436 0.861550
C79   C     C_R   0.603976 0.196813 0.788564 0.861546
C80   C     C_R   0.859526 0.421397 0.315316 -0.194110
C81   C     C_R   0.140473 0.421398 0.684683 -0.194110
C82   C     C_R   0.359526 0.921398 0.315316 -0.194111
C83   C     C_R   0.690316 0.862401 0.679389 -0.025965
C84   C     C_R   0.640474 0.921398 0.684684 -0.194112
C85   C     C_R   0.832327 0.579873 0.947448 -0.184101
C86   C     C_R   0.167673 0.579873 0.052552 -0.184102
C87   C     C_R   0.332327 0.079872 0.947448 -0.184103
C88   C     C_R   0.667673 0.079873 0.052552 -0.184103
C89   C     C_R   0.792512 0.645863 0.010392 -0.241453
C90   C     C_R   0.207488 0.645863 0.989608 -0.241452
C91   C     C_R   0.292512 0.145863 0.010393 -0.241451
C92   C     C_R   0.707488 0.145863 0.989607 -0.241452
C93   C     C_3   0.770446 0.551624 0.601627 -0.021899
C94   C     C_R   0.858038 0.306379 0.922764 -0.450396
C95   C     C_3   0.229556 0.551623 0.398373 -0.021898
C96   C     C_3   0.270446 0.051624 0.601627 -0.021906
C97   C     C_3   0.729548 0.051624 0.398373 -0.021917
C98   C     C_3   0.619895 0.614488 0.500762 -0.093911
C99   C     C_3   0.380105 0.614489 0.499239 -0.093915
C100  C     C_3   0.119895 0.114487 0.500763 -0.093905
C101  C     C_3   0.880104 0.114481 0.499232 -0.093887
C102  C     C_3   0.793908 0.122501 0.096946 0.183555
C103  C     C_3   0.206093 0.122501 0.903053 0.183549
C104  C     C_3   0.293907 0.622501 0.096948 0.183548
F1    F     F_    0.839352 0.748707 0.072638 -0.588516
F2    F     F_    0.373371 0.659998 0.269081 -0.630321
F3    F     F_    0.126630 0.159997 0.730920 -0.630322
F4    F     F_    0.873366 0.159996 0.269078 -0.630323
F5    F     F_    0.822743 0.270874 0.191348 -0.652068
F6    F     F_    0.177257 0.270874 0.808652 -0.652068
F7    F     F_    0.322743 0.770874 0.191348 -0.652069
F8    F     F_    0.677257 0.770874 0.808652 -0.652069
F9    F     F_    0.866189 0.415084 0.814988 -0.677786
F10   F     F_    0.133811 0.415084 0.185012 -0.677786
F11   F     F_    0.366188 0.915084 0.814988 -0.677787
F12   F     F_    0.160648 0.748707 0.927361 -0.588516
F13   F     F_    0.633811 0.915084 0.185012 -0.677786
F14   F     F_    0.926956 0.231477 0.978876 -0.625882
F15   F     F_    0.073044 0.231477 0.021124 -0.625883
F16   F     F_    0.426956 0.731477 0.978876 -0.625881
F17   F     F_    0.573044 0.731477 0.021124 -0.625881
F18   F     F_    0.901667 0.768886 0.172199 -0.561589
F19   F     F_    0.098333 0.768886 0.827801 -0.561590
F20   F     F_    0.401667 0.268886 0.172199 -0.561590
F21   F     F_    0.598333 0.268886 0.827801 -0.561589
F22   F     F_    0.432245 0.341884 0.299212 -0.587451
F23   F     F_    0.339351 0.248707 0.072640 -0.588517
F24   F     F_    0.567756 0.341884 0.700788 -0.587450
F25   F     F_    0.932245 0.841884 0.299212 -0.587450
F26   F     F_    0.067754 0.841883 0.700787 -0.587451
F27   F     F_    0.660648 0.248707 0.927361 -0.588516
F28   F     F_    0.335331 0.431262 0.483908 -0.642082
F29   F     F_    0.664670 0.431262 0.516092 -0.642082
F30   F     F_    0.835331 0.931262 0.483908 -0.642084
F31   F     F_    0.164668 0.931262 0.516092 -0.642083
F32   F     F_    0.626630 0.659998 0.730920 -0.630321
H1    H     H_    0.616433 0.730086 0.629065 -0.027242
H2    H     H_    0.151080 0.454535 0.618016 0.192170
H3    H     H_    0.348920 0.954535 0.381984 0.192171
H4    H     H_    0.651080 0.954535 0.618016 0.192174
H5    H     H_    0.813495 0.542716 0.909584 0.196150
H6    H     H_    0.186505 0.542716 0.090416 0.196150
H7    H     H_    0.313495 0.042716 0.909584 0.196151
H8    H     H_    0.686505 0.042716 0.090416 0.196150
H9    H     H_    0.751295 0.591786 0.669046 0.164367
H10   H     H_    0.838900 0.557869 0.536273 0.077242
H11   H     H_    0.759828 0.491507 0.633607 0.187473
H12   H     H_    0.383567 0.730087 0.370935 -0.027241
H13   H     H_    0.248707 0.591785 0.330953 0.164368
H14   H     H_    0.161102 0.557869 0.463727 0.077241
H15   H     H_    0.240174 0.491506 0.366394 0.187472
H16   H     H_    0.251296 0.091785 0.669046 0.164369
H17   H     H_    0.338901 0.057869 0.536272 0.077244
H18   H     H_    0.259829 0.991506 0.633607 0.187473
H19   H     H_    0.748699 0.091787 0.330955 0.164370
H20   H     H_    0.661094 0.057870 0.463728 0.077247
H21   H     H_    0.740165 0.991507 0.366392 0.187474
H22   H     H_    0.622226 0.585054 0.435033 0.178494
H23   H     H_    0.116433 0.230085 0.629066 -0.027242
H24   H     H_    0.575075 0.663822 0.529958 0.059624
H25   H     H_    0.595148 0.571795 0.567852 0.215974
H26   H     H_    0.377774 0.585057 0.564969 0.178493
H27   H     H_    0.424925 0.663823 0.470042 0.059623
H28   H     H_    0.404852 0.571796 0.432151 0.215975
H29   H     H_    0.122227 0.085048 0.435036 0.178501
H30   H     H_    0.075076 0.163821 0.529953 0.059626
H31   H     H_    0.095145 0.071798 0.567858 0.215966
H32   H     H_    0.877768 0.085029 0.564954 0.178518
H33   H     H_    0.924921 0.163814 0.470059 0.059626
H34   H     H_    0.883566 0.230081 0.370932 -0.027242
H35   H     H_    0.904858 0.071803 0.432125 0.215945
H36   H     H_    0.828006 0.082366 0.025749 0.082276
H37   H     H_    0.739507 0.092397 0.169387 0.083022
H38   H     H_    0.837498 0.135974 0.117200 0.259909
H39   H     H_    0.171995 0.082366 0.974250 0.082277
H40   H     H_    0.260494 0.092398 0.830612 0.083024
H41   H     H_    0.162503 0.135975 0.882799 0.259907
H42   H     H_    0.328005 0.582366 0.025750 0.082278
H43   H     H_    0.239505 0.592398 0.169388 0.083024
H44   H     H_    0.337497 0.635975 0.117201 0.259905
H45   H     H_    0.915184 0.576249 0.357796 0.147712
H46   H     H_    0.671995 0.582366 0.974250 0.082278
H47   H     H_    0.760494 0.592398 0.830612 0.083023
H48   H     H_    0.662503 0.635975 0.882799 0.259906
H49   H     H_    0.436015 0.675709 0.728498 0.102915
H50   H     H_    0.448776 0.780622 0.704756 0.160575
H51   H     H_    0.410990 0.721515 0.646726 0.157527
H52   H     H_    0.563988 0.675706 0.271502 0.102916
H53   H     H_    0.551223 0.780619 0.295243 0.160571
H54   H     H_    0.589011 0.721515 0.353274 0.157527
H55   H     H_    0.936013 0.175707 0.728498 0.102915
H56   H     H_    0.084816 0.576249 0.642203 0.147711
H57   H     H_    0.948777 0.280620 0.704756 0.160572
H58   H     H_    0.910989 0.221515 0.646725 0.157528
H59   H     H_    0.063984 0.175708 0.271502 0.102911
H60   H     H_    0.051223 0.280622 0.295244 0.160574
H61   H     H_    0.089009 0.221515 0.353275 0.157526
H62   H     H_    0.415184 0.076248 0.357796 0.147712
H63   H     H_    0.584816 0.076248 0.642204 0.147712
H64   H     H_    0.848920 0.454535 0.381984 0.192172
N1    N     N_R   0.908660 0.628630 0.995840 -0.138703
N2    N     N_R   0.096530 0.421430 0.063580 -0.164843
N3    N     N_R   0.403470 0.921430 0.936420 -0.164842
N4    N     N_R   0.596530 0.921430 0.063580 -0.164843
N5    N     N_R   0.927500 0.575670 0.211370 -0.093919
N6    N     N_R   0.072500 0.575670 0.788630 -0.093918
N7    N     N_R   0.427500 0.075670 0.211370 -0.093919
N8    N     N_R   0.572500 0.075670 0.788630 -0.093919
N9    N     N_R   0.908660 0.365680 0.995820 -0.167237
N10   N     N_R   0.091340 0.365680 0.004180 -0.167238
N11   N     N_R   0.408660 0.865680 0.995820 -0.167238
N12   N     N_R   0.091340 0.628630 0.004160 -0.138703
N13   N     N_R   0.591340 0.865680 0.004180 -0.167238
N14   N     N_R   0.922310 0.631420 0.151980 -0.157873
N15   N     N_R   0.077690 0.631420 0.848020 -0.157873
N16   N     N_R   0.422310 0.131420 0.151980 -0.157873
N17   N     N_R   0.577690 0.131420 0.848020 -0.157873
N18   N     N_R   0.927500 0.426330 0.211360 -0.104869
N19   N     N_R   0.072500 0.426330 0.788640 -0.104869
N20   N     N_R   0.427500 0.926330 0.211360 -0.104869
N21   N     N_R   0.572500 0.926330 0.788640 -0.104869
N22   N     N_R   0.903470 0.570760 0.936440 -0.085106
N23   N     N_R   0.408660 0.128630 0.995840 -0.138702
N24   N     N_R   0.096530 0.570760 0.063560 -0.085106
N25   N     N_R   0.403470 0.070760 0.936440 -0.085106
N26   N     N_R   0.596530 0.070760 0.063560 -0.085106
N27   N     N_R   0.591340 0.128630 0.004160 -0.138703
N28   N     N_R   0.922310 0.368460 0.151950 -0.128900
N29   N     N_R   0.077690 0.368460 0.848050 -0.128899
N30   N     N_R   0.422310 0.868460 0.151950 -0.128899
N31   N     N_R   0.577690 0.868460 0.848050 -0.128899
N32   N     N_R   0.903470 0.421430 0.936420 -0.164843
Ni1   Ni    Ni4+2 0.000000 0.630300 0.000000 0.359327
Ni2   Ni    Ni4+2 0.500000 0.130300 0.000000 0.359327
Ni3   Ni    Ni4+2 1.000000 0.369700 0.000000 0.345037
Ni4   Ni    Ni4+2 0.500000 0.869700 0.000000 0.345037
Ni5   Ni    Ni4+2 0.988090 0.497570 0.863760 0.210551
Ni6   Ni    Ni4+2 0.011910 0.497570 0.136240 0.210551
Ni7   Ni    Ni4+2 0.488090 0.997570 0.863760 0.210550
Ni8   Ni    Ni4+2 0.511910 0.997570 0.136240 0.210551
O1    O     O_3   0.723114 0.562015 0.561239 -0.569043
O2    O     O_3   0.234099 0.192737 0.920102 -0.608711
O3    O     O_3   0.265900 0.692737 0.079899 -0.608711
O4    O     O_3   0.734100 0.692737 0.920101 -0.608711
O5    O     O_3   0.324440 0.740629 0.810363 -0.558328
O6    O     O_3   0.675560 0.740630 0.189637 -0.558327
O7    O     O_3   0.824441 0.240629 0.810363 -0.558328
O8    O     O_3   0.175558 0.240629 0.189638 -0.558328
O9    O     O_3   0.276887 0.562016 0.438761 -0.569044
O10   O     O_3   0.223115 0.062015 0.561240 -0.569043
O11   O     O_3   0.776881 0.062014 0.438759 -0.569042
O12   O     O_3   0.701342 0.643270 0.457141 -0.662858
O13   O     O_3   0.298658 0.643271 0.542859 -0.662858
O14   O     O_3   0.201342 0.143269 0.457142 -0.662859
O15   O     O_3   0.798657 0.143267 0.542854 -0.662865
O16   O     O_3   0.765901 0.192736 0.079898 -0.608711

loop_
_geom_bond_atom_site_label_1
_geom_bond_atom_site_label_2
_ccdc_geom_bond_type
N6    N15   A    
C29   F29   S    
C12   C69   A    
C13   C79   A    
N29   Ni3   S    
C70   H63   S    
C73   F15   S    
C55   O2    S    
C87   C91   A    
N16   Ni2   S    
N15   Ni1   S    
C96   O10   S    
C5    O6    S    
N4    Ni8   S    
C17   N12   A    
C42   H12   S    
C95   O9    S    
C3    H47   S    
N12   Ni1   S    
C97   O11   S    
C47   N30   A    
C54   C60   D    
C10   C67   A    
C102  H37   S    
C63   C94   A    
C86   H6    S    
C8    C74   A    
C16   C21   A    
C57   C89   S    
N21   Ni7   S    
C100  H31   S    
C4    H51   S    
C53   O15   S    
C35   C37   A    
N2    N10   A    
C32   C61   S    
C57   O4    S    
C43   H23   S    
C84   N21   A    
C14   C36   A    
C93   H11   S    
C45   F5    S    
C43   C52   S    
C57   C59   D    
C104  H43   S    
C13   C70   A    
C68   H56   S    
C70   N8    A    
C96   H16   S    
C55   C62   D    
C29   C33   A    
C25   C30   A    
C103  O2    S    
N11   Ni4   S    
C100  H30   S    
C53   O11   S    
C97   H20   S    
C41   C49   S    
C37   C42   S    
C52   O14   S    
C24   C29   A    
C15   C37   A    
N28   Ni3   S    
C55   C91   S    
N9    N32   A    
C11   C77   A    
C18   C53   S    
C8    C58   S    
C9    C66   A    
C49   O12   S    
C10   C76   A    
C44   C53   S    
C104  H42   S    
C98   H22   S    
C87   N25   A    
C66   F13   S    
C12   C78   A    
C6    H55   S    
C16   C38   A    
C101  H33   S    
N31   Ni4   S    
C95   H13   S    
C32   C38   A    
C28   C91   A    
N13   Ni4   S    
C78   F20   S    
C3    H48   S    
C39   N27   A    
C26   F26   S    
C28   F23   S    
C42   C51   S    
C66   N4    A    
C81   N19   A    
C56   C90   S    
C79   F21   S    
C25   F25   S    
C26   C31   A    
C75   F17   S    
C27   F28   S    
C48   N31   A    
N3    N11   A    
C36   C41   S    
C15   C20   A    
C86   N24   A    
N1    N22   A    
N19   N29   A    
C100  O14   S    
N8    Ni7   S    
N18   N28   A    
C2    C64   A    
N2    Ni6   S    
C44   H34   S    
C44   F4    S    
C102  H36   S    
C81   H2    S    
C4    O5    S    
C96   H18   S    
C11   C20   S    
C69   N7    A    
C33   C40   A    
C64   F10   S    
C30   C34   A    
C46   C61   A    
C88   C92   A    
C6    O7    S    
N26   Ni8   S    
C31   F31   S    
C86   C90   A    
C78   N16   A    
C71   C94   A    
C41   H1    S    
C85   C89   A    
C71   N9    A    
C33   C50   S    
C7    O8    S    
C75   N13   A    
C50   C80   A    
C100  H29   S    
C9    C59   S    
C45   N28   A    
C97   H21   S    
C4    H49   S    
C7    H61   S    
C101  H32   S    
C102  O16   S    
N9    Ni3   S    
C54   C92   S    
C82   H3    S    
C77   F19   S    
N23   Ni2   S    
C99   H26   S    
N5    N14   A    
C73   N10   A    
C62   O8    S    
C96   H17   S    
C65   N3    A    
C14   C49   S    
C15   C51   S    
C10   C19   S    
N21   N31   A    
C103  H39   S    
C17   F12   S    
C82   N20   A    
C93   H10   S    
C95   H14   S    
C43   F3    S    
N10   Ni3   S    
N30   Ni4   S    
C42   F2    S    
C6    H57   S    
C2    C73   A    
N7    Ni8   S    
C23   F22   S    
C99   H27   S    
C48   F8    S    
C56   O3    S    
C98   H24   S    
C35   C72   S    
C23   C27   A    
C21   C23   A    
C68   N6    A    
C69   H62   S    
N25   Ni7   S    
C46   N29   A    
C52   O10   S    
C93   H9    S    
C83   C84   A    
N14   Ni1   S    
C95   H15   S    
C34   C83   S    
N18   Ni6   S    
C7    H59   S    
C51   O13   S    
C39   C92   A    
C6    H58   S    
C98   H25   S    
C103  H40   S    
C11   C68   A    
C77   N15   A    
C85   N22   A    
N8    N17   A    
N27   Ni2   S    
C64   N2    A    
C1    C89   A    
C71   F14   S    
C67   H45   S    
C27   C32   A    
C18   C22   A    
N3    Ni7   S    
C14   C19   A    
C58   O5    S    
C17   C90   A    
C16   C52   S    
C88   N26   A    
C87   H7    S    
C67   N5    A    
N17   Ni2   S    
C5    H54   S    
C49   O1    S    
N23   N25   A    
C80   N18   A    
C39   F27   S    
C102  H38   S    
C104  O3    S    
C74   F16   S    
C1    N1    A    
N22   Ni5   S    
C48   C83   A    
N20   N30   A    
C74   N11   A    
C63   N32   A    
C76   F18   S    
C30   F30   S    
N19   Ni5   S    
C46   F6    S    
C65   F11   S    
C5    H53   S    
C38   C43   S    
C99   O13   S    
C101  O15   S    
C93   O1    S    
C4    H50   S    
C98   O12   S    
C104  H44   S    
C20   C26   A    
C45   C50   A    
C28   N23   A    
C47   F7    S    
C12   C21   S    
C31   C35   A    
N7    N16   A    
C34   C36   A    
C56   C58   D    
C13   C22   S    
C101  H35   S    
C59   O6    S    
C22   C24   A    
C3    O4    S    
C97   H19   S    
N4    N13   A    
N5    Ni6   S    
C51   O9    S    
C3    H46   S    
N12   N24   A    
C47   C72   A    
C8    C65   A    
C79   N17   A    
N32   Ni5   S    
C19   C25   A    
C99   H28   S    
C63   F9    S    
C76   N14   A    
C85   H5    S    
C40   C44   S    
C18   C40   A    
C84   H4    S    
C60   O7    S    
N26   N27   A    
C1    F1    S    
C24   F24   S    
N20   Ni8   S    
C61   C81   A    
N6    Ni5   S    
C9    C75   A    
C5    H52   S    
C103  H41   S    
C7    H60   S    
N24   Ni6   S    
C88   H8    S    
C41   F32   S    
C72   C82   A    
C2    C62   S    
N1    Ni1   S    
C60   C94   S    
C54   O16   S    
C80   H64   S    
