data_mof_unit_5924.cif
_audit_creation_date              2012-12-10T17:04:27-0500
_audit_creation_method            fapswitch 2.2
_symmetry_space_group_name_H-M    P1
_symmetry_Int_Tables_number       1
_space_group_crystal_system       triclinic
_cell_length_a                    14.900163
_cell_length_b                    10.673443
_cell_length_c                    10.020018
_cell_angle_alpha                 90.290264
_cell_angle_beta                  89.750161
_cell_angle_gamma                 90.322947
_cell_volume                      1593.48327349

loop_
_atom_site_label
_atom_site_type_symbol
_atom_type_description
_atom_site_fract_x
_atom_site_fract_y
_atom_site_fract_z
_atom_type_partial_charge
C1    C     C_R   0.497594 0.262586 0.499478 0.865510
C2    C     C_R   0.185504 0.416135 0.567543 -0.331881
C3    C     C_R   0.231593 0.511187 0.502529 -0.140759
C4    C     C_R   0.327056 0.502864 0.500349 0.978584
C5    C     C_R   0.187874 0.613978 0.445329 0.306070
C6    C     C_2   0.539490 0.936850 0.389788 0.057046
C7    C     C_2   0.532939 0.866730 0.500373 -0.315802
C8    C     C_2   0.543634 0.070690 0.407803 -0.331977
C9    C     C_2   0.490785 0.130405 0.495666 0.242440
C10   C     C_2   0.555646 0.437277 0.924282 -0.119807
C11   C     C_2   0.552455 0.432330 0.074287 -0.128139
C12   C     C_R   0.905330 0.612160 0.451545 0.115931
C13   C     C_R   0.508601 0.736891 0.499806 0.968856
C14   C     C_R   0.672943 0.499739 0.499784 0.853400
C15   C     C_R   0.812562 0.604980 0.444874 -0.256511
C16   C     C_R   0.768219 0.502498 0.500048 -0.038489
C17   C     C_R   0.814148 0.405956 0.561809 -0.272435
C18   C     C_R   0.906984 0.409817 0.565927 0.129875
C19   C     C_R   0.953151 0.513539 0.510212 0.078421
C20   C     C_R   0.082645 0.854365 0.393785 0.176770
C21   C     C_R   0.125497 0.916314 0.500279 -0.095741
C22   C     C_R   0.160185 0.037207 0.483295 -0.076193
C23   C     C_R   0.954059 0.312115 0.625075 -0.219936
C24   C     C_R   0.151503 0.097679 0.360720 -0.089135
C25   C     C_R   0.107966 0.037361 0.254867 -0.133572
C26   C     C_R   0.073219 0.916336 0.271277 -0.119709
C27   C     C_R   0.542847 0.888333 0.250791 0.164741
C28   C     C_R   0.473722 0.916726 0.161237 -0.083002
C29   C     C_R   0.477831 0.873764 0.029236 -0.145230
C30   C     C_R   0.551209 0.803268 0.985647 -0.150084
C31   C     C_R   0.620558 0.775456 0.074017 -0.137306
C32   C     C_R   0.616726 0.818338 0.206021 -0.127620
C33   C     C_R   0.046993 0.315502 0.627128 -0.196731
C34   C     C_R   0.093218 0.416403 0.569721 0.134466
C35   C     C_R   0.046739 0.517854 0.512511 -0.009236
C36   C     C_R   0.093577 0.622310 0.457144 -0.017394
C37   C     C_R   0.043425 0.727878 0.413683 0.014768
C38   C     C_R   0.950078 0.718644 0.405861 -0.290012
Cl1   Cl    Cl    0.401164 0.062195 0.587390 -0.659544
Cl2   Cl    Cl    0.252984 0.721919 0.350538 -0.611176
H1    H     H_    0.774536 0.680403 0.400891 0.124813
H2    H     H_    0.082785 0.238597 0.672339 0.142813
H3    H     H_    0.222005 0.338927 0.611573 0.171807
H4    H     H_    0.911676 0.797690 0.370039 0.144819
H5    H     H_    0.132064 0.870814 0.596095 0.132814
H6    H     H_    0.193525 0.084183 0.565339 0.160759
H7    H     H_    0.178214 0.191409 0.347961 0.142222
H8    H     H_    0.100965 0.084510 0.160139 0.135228
H9    H     H_    0.039416 0.870698 0.188660 0.129693
H10   H     H_    0.416666 0.971568 0.193880 0.167729
H11   H     H_    0.424256 0.895381 0.960627 0.170564
H12   H     H_    0.542288 0.909279 0.598272 0.179335
H13   H     H_    0.554388 0.770354 0.883403 0.160898
H14   H     H_    0.677359 0.720911 0.040150 0.138797
H15   H     H_    0.671114 0.797446 0.273285 0.105219
H16   H     H_    0.590086 0.122493 0.344224 0.140783
H17   H     H_    0.606195 0.381335 0.873983 0.162515
H18   H     H_    0.450128 0.549565 0.898323 0.173147
H19   H     H_    0.597127 0.367365 0.123316 0.158721
H20   H     H_    0.461554 0.567290 0.103021 0.191977
H21   H     H_    0.777452 0.327861 0.605125 0.135326
H22   H     H_    0.919067 0.232863 0.668660 0.145137
N1    N     N_2   0.500970 0.501330 0.852150 -0.196590
N2    N     N_2   0.500990 0.501360 0.147810 -0.182462
O1    O     O_R   0.499990 0.319060 0.613040 -0.590379
O2    O     O_R   0.500010 0.319100 0.386900 -0.633830
O3    O     O_R   0.367830 0.499950 0.613080 -0.611072
O4    O     O_R   0.367860 0.499990 0.386940 -0.572793
O5    O     O_R   0.499990 0.680900 0.613100 -0.624990
O6    O     O_R   0.500010 0.680940 0.386960 -0.584781
O7    O     O_R   0.632140 0.500010 0.613060 -0.625309
O8    O     O_R   0.632170 0.500050 0.386920 -0.626273
Zn1   Zn    Zn3+2 0.499980 0.499970 0.650990 0.961898
Zn2   Zn    Zn3+2 0.500020 0.500030 0.349010 0.982006

loop_
_geom_bond_atom_site_label_1
_geom_bond_atom_site_label_2
_ccdc_geom_bond_type
O6    Zn2   S    
C4    O3    A    
C1    O1    A    
O5    Zn1   S    
C29   C30   A    
O3    Zn1   S    
C4    O4    A    
C14   O7    A    
C32   H15   S    
C31   C32   A    
C12   C15   A    
C7    C13   S    
C2    H3    S    
H20   N2    S    
C15   C16   A    
C8    H16   S    
C22   C24   A    
C2    C3    A    
C27   C32   A    
C3    C5    A    
O1    Zn1   S    
C19   C35   A    
C21   C22   A    
C24   C25   A    
C38   H4    S    
C20   C37   S    
C25   H8    S    
C2    C34   A    
C6    C7    D    
C20   C26   A    
C11   H19   S    
C33   H2    S    
C28   H10   S    
C12   C19   A    
C36   C37   A    
C22   H6    S    
C37   C38   A    
C33   C34   A    
C7    H12   S    
C17   C18   A    
C21   H5    S    
C31   H14   S    
C12   C38   A    
C30   C31   A    
C34   C35   A    
C30   H13   S    
C14   C16   S    
C5    Cl2   S    
C16   C17   A    
C10   C11   S    
O4    Zn2   S    
C18   C23   A    
O2    Zn2   S    
C5    C36   A    
C13   O6    A    
C9    Cl1   S    
C10   H17   S    
C1    C9    S    
C20   C21   A    
C15   H1    S    
C23   C33   A    
O8    Zn2   S    
C18   C19   A    
C29   H11   S    
C26   H9    S    
H18   N1    S    
O7    Zn1   S    
C13   O5    A    
N2    Zn2   S    
C28   C29   A    
C6    C8    S    
N1    Zn1   S    
C17   H21   S    
C25   C26   A    
C24   H7    S    
C14   O8    A    
C11   N2    D    
C10   N1    D    
C23   H22   S    
C3    C4    S    
C6    C27   S    
C8    C9    D    
C27   C28   A    
C35   C36   A    
C1    O2    A    
