data_mof_unit_13867.cif
_audit_creation_date              2012-12-11T15:41:17-0500
_audit_creation_method            fapswitch 2.2
_symmetry_space_group_name_H-M    P1
_symmetry_Int_Tables_number       1
_space_group_crystal_system       triclinic
_cell_length_a                    14.795211
_cell_length_b                    14.812481
_cell_length_c                    15.060477
_cell_angle_alpha                 108.921507
_cell_angle_beta                  110.163478
_cell_angle_gamma                 108.371187
_cell_volume                      2569.85948001

loop_
_atom_site_label
_atom_site_type_symbol
_atom_type_description
_atom_site_fract_x
_atom_site_fract_y
_atom_site_fract_z
_atom_type_partial_charge
C1    C     C_R   0.192199 0.988174 0.893671 0.323491
C2    C     C_R   0.756211 0.938300 0.031362 0.335124
C3    C     C_R   0.862168 0.300478 0.304925 -0.005838
C4    C     C_R   0.218090 0.673745 0.678412 -0.014957
C5    C     C_R   0.499670 0.044170 0.323905 -0.024459
C6    C     C_R   0.502871 0.066796 0.701255 -0.016061
C7    C     C_R   0.495282 0.327791 0.030642 0.001990
C8    C     C_R   0.501058 0.710958 0.089346 0.006142
C9    C     C_R   0.137428 0.297074 0.785906 0.304718
C10   C     C_R   0.830938 0.897492 0.429612 0.307127
C11   C     C_R   0.249650 0.345732 0.859946 -0.186096
C12   C     C_R   0.725935 0.808546 0.352048 -0.213588
C13   C     C_R   0.284694 0.354114 0.962879 0.049267
C14   C     C_R   0.710699 0.725437 0.260930 0.060016
C15   C     C_R   0.206858 0.305618 0.988766 -0.185951
C16   C     C_R   0.801178 0.732439 0.246795 -0.182080
C17   C     C_R   0.094895 0.254105 0.914458 -0.230879
C18   C     C_R   0.905614 0.820726 0.323088 -0.209033
C19   C     C_R   0.059790 0.253391 0.814992 0.094269
C20   C     C_R   0.921469 0.903070 0.414961 0.095221
C21   C     C_R   0.405158 0.543331 0.092509 -0.231226
C22   C     C_R   0.592968 0.526161 0.158901 -0.233942
C23   C     C_R   0.802242 0.204983 0.299067 0.311338
C24   C     C_R   0.240794 0.775089 0.685467 0.343405
C25   C     C_R   0.504274 0.634772 0.133995 0.042415
C26   C     C_R   0.493185 0.431146 0.078654 0.062915
C27   C     C_R   0.601211 0.628824 0.183012 0.065936
C28   C     C_R   0.396062 0.440427 0.050215 0.052495
C29   C     C_R   0.047597 0.454443 0.391534 -0.184116
C30   C     C_R   0.054586 0.501910 0.590305 -0.184461
C31   C     C_R   0.137229 0.546134 0.485104 -0.168453
C32   C     C_R   0.966333 0.412031 0.498252 -0.157751
C33   C     C_R   0.138657 0.570541 0.583666 0.162980
C34   C     C_R   0.962137 0.388705 0.398991 0.168601
C35   C     C_R   0.590296 0.069566 0.593649 -0.155014
C36   C     C_R   0.425639 0.084877 0.447429 -0.159974
C37   C     C_R   0.590459 0.065077 0.502007 -0.174401
C38   C     C_R   0.425838 0.089997 0.541177 -0.175197
C39   C     C_R   0.506714 0.069527 0.427219 0.150502
C40   C     C_R   0.507674 0.080523 0.612934 0.149671
C41   C     C_R   0.943836 0.811682 0.904495 0.305723
C42   C     C_R   0.855577 0.926443 0.824285 0.321196
C43   C     C_R   0.858580 0.823389 0.918146 -0.271161
C44   C     C_R   0.950636 0.929446 0.825420 -0.273695
C45   C     C_R   0.408050 0.966550 0.223556 0.079330
C46   C     C_R   0.592493 0.097544 0.794657 0.038589
C47   C     C_R   0.826812 0.896020 0.894063 0.060847
C48   C     C_R   0.004225 0.883162 0.877603 0.062119
C49   C     C_R   0.588546 0.315192 0.045352 0.082453
C50   C     C_R   0.409506 0.709112 0.017539 0.071457
C51   C     C_R   0.590800 0.066366 0.311652 -0.172485
C52   C     C_R   0.410750 0.006486 0.701122 -0.144280
C53   C     C_R   0.405998 0.223255 0.967122 -0.167499
C54   C     C_R   0.590365 0.797174 0.107188 -0.151935
C55   C     C_R   0.802569 0.300873 0.212019 -0.200734
C56   C     C_R   0.252837 0.686579 0.780992 -0.208702
C57   C     C_R   0.192368 0.901400 0.988542 -0.208035
C58   C     C_R   0.750955 0.027281 0.936900 -0.208265
C59   C     C_R   0.124181 0.923055 0.917946 0.035510
C60   C     C_R   0.777009 0.948313 0.949702 0.027355
H1    H     H_    0.310145 0.386211 0.841634 0.132764
H2    H     H_    0.656082 0.803024 0.363019 0.135526
H3    H     H_    0.232766 0.314115 0.068954 0.138486
H4    H     H_    0.790766 0.669463 0.176446 0.145077
H5    H     H_    0.035679 0.221022 0.937409 0.144468
H6    H     H_    0.974415 0.824246 0.310860 0.143851
H7    H     H_    0.330561 0.547908 0.074687 0.154625
H8    H     H_    0.666155 0.521770 0.199712 0.141933
H9    H     H_    0.043452 0.436350 0.314100 0.123722
H10   H     H_    0.052908 0.521581 0.665387 0.127288
H11   H     H_    0.202595 0.599908 0.480400 0.131330
H12   H     H_    0.898183 0.364574 0.504116 0.122471
H13   H     H_    0.650595 0.056360 0.645520 0.134319
H14   H     H_    0.360762 0.088450 0.389284 0.123945
H15   H     H_    0.651663 0.049678 0.486243 0.129698
H16   H     H_    0.361138 0.097476 0.555816 0.125028
H17   H     H_    0.817901 0.775679 0.947068 0.166893
H18   H     H_    0.979949 0.969457 0.785839 0.173294
H19   H     H_    0.674822 0.121387 0.374731 0.139216
H20   H     H_    0.328796 0.986892 0.647782 0.125024
H21   H     H_    0.321568 0.199810 0.942315 0.153091
H22   H     H_    0.672166 0.834857 0.172570 0.139801
H23   H     H_    0.833686 0.357160 0.185858 0.137956
H24   H     H_    0.243313 0.623140 0.803004 0.137566
H25   H     H_    0.166457 0.842971 0.013558 0.159161
H26   H     H_    0.765018 0.064247 0.889335 0.152206
N1    N     N_R   0.293810 0.002730 0.945950 -0.058351
N2    N     N_R   0.706190 0.997270 0.054050 -0.054259
N3    N     N_R   0.706160 0.152130 0.208910 -0.054714
N4    N     N_R   0.293840 0.847870 0.791090 -0.053003
N5    N     N_R   0.443140 0.945920 0.152090 -0.058215
N6    N     N_R   0.556860 0.054080 0.847910 -0.057529
N7    N     N_R   0.556830 0.208940 0.002760 -0.058124
N8    N     N_R   0.443170 0.791060 0.997240 -0.060218
N9    N     N_R   0.556790 0.002750 0.208910 -0.047389
N10   N     N_R   0.443210 0.997250 0.791090 -0.046393
N11   N     N_R   0.443180 0.152110 0.945950 -0.051086
N12   N     N_R   0.556820 0.847890 0.054050 -0.050042
N13   N     N_R   0.706170 0.208950 0.152090 -0.053330
N14   N     N_R   0.293830 0.791050 0.847910 -0.050956
N15   N     N_R   0.293800 0.945910 0.002760 -0.058628
N16   N     N_R   0.706200 0.054090 0.997240 -0.055421
Ni1   Ni    Ni4+2 0.369690 0.999990 0.869700 0.203670
Ni2   Ni    Ni4+2 0.630310 0.000010 0.130300 0.202253
Ni3   Ni    Ni4+2 0.369670 0.869670 0.000000 0.219368
Ni4   Ni    Ni4+2 0.630330 0.130330 0.000000 0.221522
C61   C     C_3   0.157116 0.002190 0.794958 -1.087509
H27   H     H_    0.086116 0.925261 0.723340 0.262855
H28   H     H_    0.137726 0.070268 0.809272 0.255675
H29   H     H_    0.224574 0.023238 0.776207 0.260189
C62   C     C_3   0.813505 0.905045 0.107855 -1.063237
H30   H     H_    0.767429 0.815997 0.075450 0.252729
H31   H     H_    0.898251 0.928684 0.121975 0.259832
H32   H     H_    0.822719 0.949404 0.188083 0.259144
C63   C     C_3   0.102315 0.299927 0.680719 -1.012751
H33   H     H_    0.049290 0.215797 0.611729 0.261065
H34   H     H_    0.055554 0.345683 0.676663 0.250771
H35   H     H_    0.173904 0.340203 0.672304 0.254210
C64   C     C_3   0.845185 0.984924 0.526922 -1.045797
H36   H     H_    0.873212 0.062588 0.524864 0.260041
H37   H     H_    0.767050 0.965375 0.528429 0.252576
H38   H     H_    0.906834 0.994674 0.602110 0.263226
C65   C     C_3   0.960910 0.718784 0.911522 -1.019207
H39   H     H_    0.008968 0.699648 0.872763 0.253217
H40   H     H_    0.001151 0.737461 0.997251 0.256160
H41   H     H_    0.880208 0.643914 0.866454 0.259079
C66   C     C_3   0.784305 0.945978 0.741563 -1.076272
H42   H     H_    0.700371 0.917910 0.730665 0.258493
H43   H     H_    0.823590 0.033271 0.764286 0.255909
H44   H     H_    0.773867 0.897578 0.661519 0.271073
C67   C     C_3   0.849412 0.150462 0.355879 -1.072883
H45   H     H_    0.925603 0.157916 0.353735 0.268820
H46   H     H_    0.868925 0.188034 0.441337 0.247659
H47   H     H_    0.790044 0.062649 0.315323 0.254785
C68   C     C_3   0.183238 0.793068 0.594564 -1.057464
H48   H     H_    0.225755 0.794542 0.546684 0.250819
H49   H     H_    0.097102 0.726457 0.540258 0.264066
H50   H     H_    0.178583 0.868991 0.625681 0.256039
C69   C     C_1   0.303689 0.896014 0.206208 0.011313
N17   N     N_1   0.220673 0.839480 0.194006 -0.092758
C70   C     C_1   0.697653 0.192624 0.846534 0.017817
N18   N     N_1   0.782025 0.268849 0.888174 -0.077243
C71   C     C_1   0.690886 0.393967 0.066176 -0.003923
N19   N     N_1   0.772478 0.457426 0.081922 -0.094618
C72   C     C_1   0.300025 0.663140 0.001602 -0.012222
N20   N     N_1   0.211777 0.626953 0.988253 -0.084977
C73   C     C_1   0.945372 0.218392 0.749221 0.039244
N21   N     N_1   0.853909 0.191957 0.696856 -0.094001
C74   C     C_1   0.031469 0.990939 0.494199 0.038032
N22   N     N_1   0.119810 0.060974 0.557745 -0.089809

loop_
_geom_bond_atom_site_label_1
_geom_bond_atom_site_label_2
_ccdc_geom_bond_type
C1    N1    A    
C68   H50   S    
C38   C40   A    
N8    Ni3   S    
N7    N11   A    
C61   H28   S    
N5    Ni3   S    
C3    C23   A    
C62   H30   S    
C45   C69   S    
C67   H47   S    
C72   N20   T    
C52   N10   A    
C65   H39   S    
C32   H12   S    
C38   H16   S    
N14   Ni3   S    
C7    C26   S    
N3    N13   A    
C35   C37   A    
C1    C59   A    
C43   H17   S    
C4    C24   A    
C2    C60   A    
C65   H40   S    
C46   N6    A    
N8    N12   A    
C58   C60   A    
C63   H33   S    
N6    N10   A    
C20   C74   S    
C53   H21   S    
C10   C64   S    
N2    Ni2   S    
C47   C60   S    
N1    N15   A    
C3    C55   A    
C9    C19   A    
C35   H13   S    
C73   N21   T    
C10   C20   A    
C63   H34   S    
C61   H27   S    
C23   N3    A    
C13   C28   S    
C2    N2    A    
C58   N16   A    
C14   C27   S    
C18   C20   A    
C31   H11   S    
C37   H15   S    
C4    C56   A    
C8    C25   S    
C41   C43   A    
C42   C44   A    
C58   H26   S    
N4    N14   A    
C30   H10   S    
C56   H24   S    
C46   C70   S    
C29   H9    S    
C64   H37   S    
N15   Ni3   S    
C2    C62   S    
C9    C63   S    
C68   H48   S    
C7    C49   A    
C8    C54   A    
C50   N8    A    
C65   H41   S    
C3    C34   S    
C53   N11   A    
C5    C45   A    
C29   C34   A    
C19   C73   S    
C32   C34   A    
C44   H18   S    
C66   H43   S    
C11   H1    S    
N7    Ni4   S    
C12   H2    S    
C69   N17   T    
C63   H35   S    
C31   C33   A    
C23   C67   S    
C62   H31   S    
C16   C18   A    
C9    C11   A    
C22   H8    S    
N11   Ni1   S    
C10   C12   A    
C42   C66   S    
C1    C61   S    
N1    Ni1   S    
C24   C68   S    
N6    Ni4   S    
C21   C28   A    
C12   C14   A    
C22   C27   A    
C13   C15   A    
N3    Ni2   S    
C61   H29   S    
C14   C16   A    
C25   C27   A    
C7    C53   A    
C55   H23   S    
C66   H42   S    
C8    C50   A    
C54   H22   S    
N9    Ni2   S    
C50   C72   S    
C48   C59   S    
C64   H38   S    
C68   H49   S    
N13   Ni4   S    
C21   C25   A    
C4    C33   S    
C36   H14   S    
C15   H3    S    
C6    C46   A    
C30   C33   A    
C17   H5    S    
C36   C39   A    
C54   N12   A    
C67   H46   S    
C24   N4    A    
N2    N16   A    
C64   H36   S    
C15   C17   A    
C18   H6    S    
C57   N15   A    
C26   C28   A    
C49   N7    A    
C41   C65   S    
C5    C39   S    
C35   C40   A    
C66   H44   S    
C37   C39   A    
C52   H20   S    
C74   N22   T    
C30   C32   A    
C11   C13   A    
N12   Ni2   S    
C49   C71   S    
C36   C38   A    
C17   C19   A    
C41   C48   A    
C57   H25   S    
N16   Ni4   S    
C62   H32   S    
C6    C40   S    
C42   C47   A    
C67   H45   S    
C45   N5    A    
C51   H19   S    
N4    Ni1   S    
C57   C59   A    
N5    N9    A    
C44   C48   A    
C29   C31   A    
C22   C26   A    
N10   Ni1   S    
C55   N13   A    
C56   N14   A    
C5    C51   A    
C16   H4    S    
C6    C52   A    
C70   N18   T    
C43   C47   A    
C21   H7    S    
C71   N19   T    
C51   N9    A    
