data_mof_unit_36693.cif
_audit_creation_date              2012-12-10T18:43:05-0500
_audit_creation_method            fapswitch 2.2
_symmetry_space_group_name_H-M    P1
_symmetry_Int_Tables_number       1
_space_group_crystal_system       triclinic
_cell_length_a                    8.777972
_cell_length_b                    19.45114
_cell_length_c                    18.167033
_cell_angle_alpha                 90.038389
_cell_angle_beta                  96.634333
_cell_angle_gamma                 90.375506
_cell_volume                      3081.02725396

loop_
_atom_site_label
_atom_site_type_symbol
_atom_type_description
_atom_site_fract_x
_atom_site_fract_y
_atom_site_fract_z
_atom_type_partial_charge
C1    C     C_R   0.499943 0.367557 0.500004 0.840849
C2    C     C_R   0.500052 0.632443 0.499996 0.850721
C3    C     C_R   0.596382 0.964525 0.553425 -0.172653
C4    C     C_R   0.403295 0.035476 0.446587 -0.171448
C5    C     C_R   0.596312 0.036110 0.553462 -0.169688
C6    C     C_R   0.403364 0.963890 0.446550 -0.171843
C7    C     C_R   0.499773 0.072121 0.500041 0.099048
C8    C     C_R   0.499907 0.927880 0.499970 0.098988
C9    C     C_R   0.432275 0.447238 0.717305 0.153672
C10   C     C_R   0.567980 0.552698 0.282711 0.167208
C11   C     C_R   0.430883 0.446289 0.794498 -0.263227
C12   C     C_R   0.569423 0.553635 0.205519 -0.265733
C13   C     C_R   0.500974 0.499842 0.838561 0.098605
C14   C     C_R   0.499167 0.500126 0.161443 0.099484
C15   C     C_R   0.571716 0.553208 0.802376 -0.273345
C16   C     C_R   0.428235 0.446809 0.197619 -0.273094
C17   C     C_R   0.570124 0.552247 0.724985 0.088286
C18   C     C_R   0.429758 0.447786 0.275007 0.097908
C19   C     C_R   0.627856 0.524470 0.968627 -0.177045
C20   C     C_R   0.372298 0.475495 0.031371 -0.176220
C21   C     C_R   0.627387 0.524526 0.045946 -0.171967
C22   C     C_R   0.372773 0.475433 0.954054 -0.171866
C23   C     C_R   0.204618 0.501323 0.482149 0.895207
C24   C     C_R   0.795363 0.498511 0.517856 0.886015
C25   C     C_R   0.499599 0.500043 0.078656 0.118961
C26   C     C_R   0.500557 0.499919 0.921345 0.118523
C27   C     C_2   0.043705 0.514788 0.475870 0.107592
C28   C     C_2   0.956249 0.484946 0.524134 0.071349
C29   C     C_R   0.498772 0.744243 0.433165 -0.128087
C30   C     C_R   0.501071 0.255764 0.566835 -0.112973
C31   C     C_R   0.498635 0.815826 0.433171 -0.171152
C32   C     C_R   0.501108 0.184181 0.566831 -0.159741
C33   C     C_R   0.499930 0.852203 0.499962 0.104921
C34   C     C_R   0.499786 0.147798 0.500042 0.102187
C35   C     C_R   0.501254 0.815933 0.566760 -0.161011
C36   C     C_R   0.498517 0.184063 0.433243 -0.160205
C37   C     C_R   0.501219 0.744352 0.566794 -0.180900
C38   C     C_R   0.498650 0.255644 0.433207 -0.178110
C39   C     C_R   0.500015 0.707923 0.499990 -0.002015
C40   C     C_R   0.499898 0.292078 0.500010 0.001484
Cu1   Cu    Cu3+1 0.499960 0.500000 0.573360 1.008044
Cu2   Cu    Cu3+1 0.500040 0.500000 0.426640 1.030201
H1    H     H_    0.626196 0.596005 0.833415 0.131535
H2    H     H_    0.373651 0.404037 0.166578 0.131285
H3    H     H_    0.625428 0.593518 0.698091 0.123707
H4    H     H_    0.374317 0.406552 0.301893 0.120773
H5    H     H_    0.498214 0.717436 0.380859 0.149214
H6    H     H_    0.501659 0.282577 0.619140 0.146129
H7    H     H_    0.500429 0.842962 0.618852 0.129310
H8    H     H_    0.499321 0.157028 0.381153 0.129280
H9    H     H_    0.501840 0.717632 0.619112 0.146241
H10   H     H_    0.498072 0.282361 0.380889 0.145753
H11   H     H_    0.673293 0.063349 0.594560 0.136185
H12   H     H_    0.326388 0.936651 0.405450 0.133112
H13   H     H_    0.377216 0.403305 0.819472 0.138136
H14   H     H_    0.623262 0.596579 0.180561 0.135107
N1    N     N_R   0.499980 0.500020 0.683620 -0.188245
N2    N     N_R   0.500020 0.499980 0.316380 -0.183036
O1    O     O_R   0.499930 0.400180 0.561970 -0.588582
O2    O     O_R   0.500070 0.599820 0.438030 -0.572862
O3    O     O_R   0.500010 0.400190 0.438070 -0.616293
O4    O     O_R   0.499990 0.599810 0.561930 -0.615164
O5    O     O_R   0.274810 0.500000 0.547650 -0.546601
O6    O     O_R   0.725190 0.500000 0.452350 -0.541249
O7    O     O_R   0.274880 0.500000 0.423750 -0.552057
O8    O     O_R   0.725120 0.500000 0.576250 -0.585053
S1    S     S_3+6 0.981183 0.582190 0.413132 -0.020779
O9    O     O_2   0.912353 0.550720 0.341260 -0.307673
O10   O     O_2   0.864776 0.626873 0.444159 -0.336266
O11   O     O_3   0.132221 0.631364 0.397005 -0.541823
H15   H     H_    0.090519 0.665053 0.359187 0.367503
S2    S     S_3+6 0.018865 0.417372 0.586692 -0.010016
O12   O     O_2   0.136196 0.373077 0.555903 -0.301985
O13   O     O_2   0.087865 0.448464 0.658778 -0.320210
O14   O     O_3   0.868881 0.367124 0.602241 -0.528821
H16   H     H_    0.835107 0.384064 0.649129 0.362499
H17   H     H_    0.729519 0.542638 0.945966 0.133167
H18   H     H_    0.270623 0.457334 0.054026 0.133904
H19   H     H_    0.728713 0.542740 0.080213 0.139638
H20   H     H_    0.271456 0.457216 0.919783 0.139725
H21   H     H_    0.499424 0.842783 0.381071 0.128788
H22   H     H_    0.500277 0.157228 0.618931 0.129435
H23   H     H_    0.673408 0.937791 0.594502 0.133089
H24   H     H_    0.326276 0.062211 0.405507 0.132948
H25   H     H_    0.378933 0.405424 0.684388 0.169891
H26   H     H_    0.621494 0.594468 0.315641 0.163428

loop_
_geom_bond_atom_site_label_1
_geom_bond_atom_site_label_2
_ccdc_geom_bond_type
C38   C40   A    
Cu1   Cu2   S    
Cu2   N2    S    
C36   H8    S    
C29   H5    S    
C5    H11   S    
C35   C37   A    
C17   H3    S    
C1    O1    A    
C37   H9    S    
C2    O2    A    
C38   H10   S    
C20   C25   A    
C19   H17   S    
C19   C26   A    
C1    C40   S    
C9    H25   S    
C2    C39   S    
C18   N2    A    
C35   H7    S    
Cu2   O7    S    
C31   C33   A    
O11   H15   S    
C23   C27   S    
C16   H2    S    
C34   C36   A    
C24   O8    A    
C23   O5    A    
C24   O6    A    
C29   C39   A    
C28   S2    S    
Cu1   O4    S    
C6    H12   S    
C4    C7    A    
C18   H4    S    
C15   H1    S    
S1    O9    D    
Cu1   O1    S    
S2    O13   D    
C3    C8    A    
Cu2   O2    S    
C5    C7    A    
C6    C8    A    
S1    O10   D    
C32   C34   A    
O14   H16   S    
C4    H24   S    
C21   H19   S    
C30   C40   A    
C16   C18   A    
C9    C11   A    
Cu2   O3    S    
C12   H14   S    
C10   C12   A    
C4    C6    A    
C20   C22   A    
C13   C15   A    
C3    H23   S    
C7    C34   S    
C14   C16   A    
C13   C26   S    
Cu1   O5    S    
Cu2   O6    S    
C11   H13   S    
C30   H6    S    
C15   C17   A    
C21   C25   A    
C10   H26   S    
C10   N2    A    
C24   C28   S    
C12   C14   A    
S2    O12   D    
C3    C5    A    
C1    O3    A    
Cu1   O8    S    
C32   H22   S    
C31   H21   S    
C20   H18   S    
S1    O11   S    
C23   O7    A    
C36   C38   A    
C22   H20   S    
C37   C39   A    
C30   C32   A    
C11   C13   A    
S2    O14   S    
C33   C35   A    
C9    N1    A    
C8    C33   S    
C14   C25   S    
C27   S1    S    
Cu1   N1    S    
C29   C31   A    
C22   C26   A    
C27   C28   D    
C2    O4    A    
C17   N1    A    
C19   C21   A    
