data_mof_unit_17917.cif
_audit_creation_date              2012-10-26T20:40:11-0400
_audit_creation_method            fapswitch 2.2
_symmetry_space_group_name_H-M    P1
_symmetry_Int_Tables_number       1
_space_group_crystal_system       triclinic
_cell_length_a                    15.034798
_cell_length_b                    10.770654
_cell_length_c                    9.662639
_cell_angle_alpha                 90.430508
_cell_angle_beta                  90.214838
_cell_angle_gamma                 93.835089
_cell_volume                      1561.15352529

loop_
_atom_site_label
_atom_site_type_symbol
_atom_type_description
_atom_site_fract_x
_atom_site_fract_y
_atom_site_fract_z
_atom_type_partial_charge
C1    C     C_R   0.495286 0.262628 0.499600 0.541255
C2    C     C_R   0.180884 0.384898 0.514253 -0.146951
C3    C     C_R   0.233545 0.496105 0.499803 0.000486
C4    C     C_R   0.329359 0.495573 0.499844 0.534991
C5    C     C_R   0.195106 0.609501 0.487442 -0.136616
C6    C     C_R   0.360843 0.118288 0.663232 -0.112746
C7    C     C_R   0.300541 0.048697 0.745651 -0.131266
C8    C     C_R   0.301634 0.919773 0.748288 -0.127190
C9    C     C_R   0.362910 0.859613 0.668321 -0.111859
C10   C     C_R   0.425979 0.928324 0.585859 0.021865
C11   C     C_R   0.425251 0.059700 0.583997 0.028820
C12   C     C_R   0.916089 0.620513 0.490198 0.014458
C13   C     C_R   0.486819 0.128023 0.498373 0.003879
C14   C     C_R   0.541599 0.067191 0.407860 -0.165094
C15   C     C_R   0.541043 0.939337 0.407735 -0.151029
C16   C     C_R   0.495607 0.736673 0.500360 0.531068
C17   C     C_R   0.487305 0.869879 0.500122 0.002672
C18   C     C_R   0.610558 0.677466 0.145010 -0.084076
C19   C     C_R   0.655313 0.773711 0.073774 -0.177958
C20   C     C_R   0.655312 0.773611 0.931712 -0.169626
C21   C     C_R   0.609797 0.677640 0.858996 -0.077837
C22   C     C_R   0.554189 0.587013 0.926630 0.151976
C23   C     C_R   0.941032 0.279635 0.524834 -0.133518
C24   C     C_R   0.554393 0.586906 0.075630 0.146691
C25   C     C_R   0.447562 0.416324 0.070776 0.079206
C26   C     C_R   0.448111 0.417230 0.923653 -0.005291
C27   C     C_R   0.671282 0.506512 0.500258 0.540449
C28   C     C_R   0.822145 0.623012 0.488783 -0.033540
C29   C     C_R   0.768783 0.510141 0.500843 -0.004742
C30   C     C_R   0.808634 0.397060 0.513265 -0.138465
C31   C     C_R   0.901283 0.393375 0.512848 0.009454
C32   C     C_R   0.955155 0.505141 0.500920 0.046378
C33   C     C_R   0.782452 0.744865 0.481206 0.018648
C34   C     C_R   0.033749 0.276319 0.525186 -0.138360
C35   C     C_R   0.788106 0.812480 0.357662 -0.126049
C36   C     C_R   0.773209 0.939349 0.357723 -0.142240
C37   C     C_R   0.750822 0.998624 0.480314 -0.105623
C38   C     C_R   0.744830 0.931999 0.603467 -0.111768
C39   C     C_R   0.762308 0.806025 0.604273 -0.105035
C40   C     C_R   0.387941 0.319608 0.135449 0.068129
C41   C     C_R   0.299002 0.342623 0.163773 -0.076728
C42   C     C_R   0.240056 0.247254 0.213078 -0.129488
C43   C     C_R   0.268931 0.127789 0.231377 -0.118751
C44   C     C_R   0.356231 0.102837 0.197366 -0.110925
C45   C     C_R   0.087944 0.386719 0.513497 0.011739
C46   C     C_R   0.415229 0.197915 0.147541 -0.077252
C47   C     C_R   0.048586 0.501624 0.501104 0.060844
C48   C     C_R   0.102853 0.613210 0.489475 0.015952
C49   C     C_R   0.064319 0.726978 0.481304 -0.144596
C50   C     C_R   0.972303 0.730990 0.483056 -0.135331
Cu1   Cu    Cu3+1 0.499990 0.499990 0.640660 0.912964
Cu2   Cu    Cu3+1 0.500010 0.500010 0.359340 0.933260
H1    H     H_    0.354521 0.217517 0.659727 0.124428
H2    H     H_    0.766887 0.311665 0.523177 0.099526
H3    H     H_    0.405630 0.349719 0.866404 0.115781
H4    H     H_    0.900428 0.193214 0.534288 0.113575
H5    H     H_    0.063061 0.187525 0.534627 0.106423
H6    H     H_    0.212306 0.297642 0.524542 0.099422
H7    H     H_    0.237280 0.694732 0.477459 0.099835
H8    H     H_    0.105449 0.813313 0.474417 0.107452
H9    H     H_    0.946363 0.822062 0.479134 0.135168
H10   H     H_    0.586890 0.119169 0.339195 0.123575
H11   H     H_    0.809878 0.768639 0.263596 0.115512
H12   H     H_    0.251783 0.094905 0.805951 0.114476
H13   H     H_    0.780364 0.992392 0.263300 0.103397
H14   H     H_    0.738916 0.096418 0.480036 0.102619
H15   H     H_    0.730116 0.979727 0.698621 0.104427
H16   H     H_    0.766488 0.757573 0.701192 0.101244
H17   H     H_    0.275346 0.434206 0.147374 0.118072
H18   H     H_    0.171789 0.265758 0.236145 0.117711
H19   H     H_    0.223309 0.054175 0.269929 0.108156
H20   H     H_    0.378073 0.009722 0.208966 0.123962
H21   H     H_    0.482293 0.177065 0.119198 0.107041
H22   H     H_    0.253686 0.865884 0.810627 0.116779
H23   H     H_    0.358277 0.759193 0.669552 0.149405
H24   H     H_    0.585386 0.894505 0.338227 0.135952
H25   H     H_    0.622341 0.677832 0.253561 0.184675
H26   H     H_    0.692075 0.848047 0.128028 0.114400
H27   H     H_    0.692948 0.847238 0.878640 0.110547
H28   H     H_    0.620389 0.677604 0.750528 0.185002
N1    N     N_R   0.500860 0.501210 0.147910 -0.249481
N2    N     N_R   0.500890 0.501290 0.852040 -0.254874
O1    O     O_R   0.499990 0.319640 0.618810 -0.505977
O2    O     O_R   0.500000 0.319660 0.381240 -0.492893
O3    O     O_R   0.370250 0.499960 0.618800 -0.514136
O4    O     O_R   0.370260 0.499980 0.381230 -0.492778
O5    O     O_R   0.500000 0.680340 0.618760 -0.527025
O6    O     O_R   0.500010 0.680360 0.381190 -0.522743
O7    O     O_R   0.629740 0.500020 0.618770 -0.510406
O8    O     O_R   0.629750 0.500040 0.381200 -0.513485

loop_
_geom_bond_atom_site_label_1
_geom_bond_atom_site_label_2
_ccdc_geom_bond_type
C27   C29   S    
C39   H16   S    
Cu2   O8    S    
C19   C20   A    
C43   C44   A    
C26   H3    S    
Cu1   O3    S    
C23   H4    S    
C1    O2    A    
C40   C46   A    
C30   H2    S    
C33   C39   A    
C49   H8    S    
C12   C28   A    
C18   C24   A    
C22   N2    A    
C28   C29   A    
C25   C40   S    
C30   C31   A    
C4    O4    A    
C10   C17   A    
C14   H10   S    
C42   H18   S    
C27   O8    A    
C18   C19   A    
C41   C42   A    
Cu2   O2    S    
C31   C32   A    
C8    C9    A    
C16   O5    A    
C44   H20   S    
C29   C30   A    
C9    C10   A    
C15   H24   S    
C26   N2    A    
C13   C14   A    
C12   C32   A    
C25   N1    A    
C44   C46   A    
C45   C47   A    
C2    C45   A    
C5    C48   A    
C5    H7    S    
Cu1   Cu2   S    
Cu2   O6    S    
Cu1   O5    S    
C6    C11   A    
C36   H13   S    
C16   C17   S    
C4    O3    A    
C25   C26   A    
C35   C36   A    
C23   C31   A    
C19   H26   S    
C24   N1    A    
C37   C38   A    
C34   H5    S    
C47   C48   A    
C23   C34   A    
C37   H14   S    
C8    H22   S    
C34   C45   A    
C38   H15   S    
Cu1   N2    S    
C40   C41   A    
C28   C33   S    
C32   C47   A    
C22   C24   A    
C1    C13   S    
C42   C43   A    
C6    H1    S    
C3    C4    S    
Cu1   O1    S    
C41   H17   S    
C15   C17   A    
C48   C49   A    
C43   H19   S    
C20   H27   S    
C3    C5    A    
C12   C50   A    
C2    H6    S    
C6    C7    A    
C1    O1    A    
Cu2   O4    S    
C2    C3    A    
Cu1   O7    S    
C11   C13   A    
C38   C39   A    
C18   H25   S    
C21   H28   S    
C33   C35   A    
C27   O7    A    
Cu2   N1    S    
C7    H12   S    
C7    C8    A    
C10   C11   A    
C20   C21   A    
C36   C37   A    
C49   C50   A    
C16   O6    A    
C50   H9    S    
C14   C15   A    
C35   H11   S    
C9    H23   S    
C21   C22   A    
C46   H21   S    
