data_mof_unit_32185.cif
_audit_creation_date              2012-12-10T16:38:39-0500
_audit_creation_method            fapswitch 2.2
_symmetry_space_group_name_H-M    P1
_symmetry_Int_Tables_number       1
_space_group_crystal_system       triclinic
_cell_length_a                    10.905034
_cell_length_b                    10.907753
_cell_length_c                    17.689426
_cell_angle_alpha                 98.225677
_cell_angle_beta                  72.894557
_cell_angle_gamma                 98.356445
_cell_volume                      1978.48864367

loop_
_atom_site_label
_atom_site_type_symbol
_atom_type_description
_atom_site_fract_x
_atom_site_fract_y
_atom_site_fract_z
_atom_type_partial_charge
C1    C     C_R   0.158453 0.479534 0.517486 0.597442
C2    C     C_R   0.562467 0.348472 0.918154 0.234356
C3    C     C_R   0.630378 0.292775 0.958349 0.056761
C4    C     C_R   0.843148 0.520830 0.483268 0.491815
C5    C     C_R   0.601565 0.315643 0.042599 -0.046385
C6    C     C_R   0.536582 0.420277 0.080759 -0.007682
C7    C     C_R   0.629264 0.236467 0.091267 0.052381
C8    C     C_R   0.631813 0.283367 0.169355 0.241892
C9    C     C_R   0.552347 0.475693 0.155427 -0.025907
C10   C     C_2   0.980679 0.530832 0.480241 0.217794
C11   C     C_2   0.022023 0.466333 0.526961 0.049202
C12   C     C_R   0.282295 0.632517 0.847514 -0.002563
C13   C     C_2   0.531212 0.964995 0.470790 -0.006019
C14   C     C_2   0.453368 0.039635 0.528478 0.022310
C15   C     C_R   0.467101 0.169753 0.518744 0.511574
C16   C     C_R   0.528335 0.832874 0.481387 0.531236
C17   C     C_R   0.563770 0.436572 0.287694 0.485182
C18   C     C_R   0.436227 0.564370 0.713016 0.483433
C19   C     C_R   0.400603 0.585366 0.801487 0.021374
C20   C     C_R   0.593013 0.403059 0.201441 0.022029
C21   C     C_R   0.243732 0.628114 0.929825 -0.128871
C22   C     C_3   0.631243 0.096312 0.067611 -0.241610
C23   C     C_R   0.481821 0.547594 0.841489 0.002076
C24   C     C_3   0.516000 0.021273 0.120229 -0.405687
C25   C     C_3   0.937169 0.373832 0.583851 -0.297835
C26   C     C_3   0.009517 0.303278 0.623131 -0.464347
C27   C     C_3   0.619921 0.021255 0.395402 -0.280820
C28   C     C_3   0.692419 0.933147 0.326935 -0.409644
C29   C     C_3   0.359963 0.998688 0.606595 -0.262166
C30   C     C_3   0.290169 0.102227 0.664106 -0.447723
C31   C     C_3   0.546422 0.616088 0.179871 -0.265606
C32   C     C_3   0.645699 0.692765 0.119071 -0.442704
C33   C     C_3   0.744921 0.224511 0.908708 -0.240376
C34   C     C_R   0.426877 0.517407 0.920886 0.028298
C35   C     C_3   0.847044 0.310363 0.855410 -0.424247
C36   C     C_3   0.195660 0.692469 0.813523 -0.247881
C37   C     C_3   0.104031 0.594873 0.780491 -0.408593
C38   C     C_3   0.628639 0.566352 0.805163 -0.246240
C39   C     C_3   0.698394 0.648066 0.861082 -0.459144
C40   C     C_R   0.313250 0.570133 0.966348 0.016057
C41   C     C_R   0.484961 0.444905 0.958982 0.007011
C42   C     C_R   0.459196 0.466550 0.042452 0.001346
C43   C     C_R   0.345423 0.518550 0.086482 -0.127523
C44   C     C_R   0.271092 0.566352 0.048575 -0.137583
H1    H     H_    0.182746 0.603987 0.083953 0.110860
H2    H     H_    0.076459 0.244763 0.577513 0.167404
H3    H     H_    0.064246 0.369125 0.658397 0.132559
H4    H     H_    0.939108 0.240997 0.663860 0.144238
H5    H     H_    0.867305 0.424994 0.632669 0.166782
H6    H     H_    0.884342 0.301655 0.550464 0.177096
H7    H     H_    0.769881 0.896420 0.343256 0.179988
H8    H     H_    0.624627 0.856116 0.309102 0.162262
H9    H     H_    0.739532 0.985501 0.274572 0.152917
H10   H     H_    0.559998 0.067673 0.369405 0.178067
H11   H     H_    0.692119 0.093897 0.412952 0.139164
H12   H     H_    0.156083 0.666793 0.965646 0.103953
H13   H     H_    0.360203 0.172838 0.685382 0.177499
H14   H     H_    0.234162 0.147813 0.634937 0.142910
H15   H     H_    0.221862 0.061353 0.716696 0.126174
H16   H     H_    0.283117 0.928328 0.592472 0.179331
H17   H     H_    0.413924 0.957519 0.639370 0.165978
H18   H     H_    0.743241 0.662992 0.107877 0.155266
H19   H     H_    0.619810 0.682206 0.062160 0.156727
H20   H     H_    0.648807 0.792919 0.142388 0.133067
H21   H     H_    0.449871 0.645192 0.189293 0.138685
H22   H     H_    0.567801 0.645959 0.237366 0.166579
H23   H     H_    0.308470 0.514373 0.150008 0.125828
H24   H     H_    0.692864 0.259184 0.259346 0.319927
H25   H     H_    0.810643 0.338427 0.808864 0.188810
H26   H     H_    0.875733 0.394877 0.892054 0.137804
H27   H     H_    0.933702 0.261198 0.825328 0.122906
H28   H     H_    0.795664 0.191459 0.946493 0.120621
H29   H     H_    0.711728 0.142680 0.871688 0.171286
H30   H     H_    0.051389 0.640216 0.749043 0.137607
H31   H     H_    0.157149 0.522274 0.738487 0.169017
H32   H     H_    0.032746 0.549526 0.830027 0.127264
H33   H     H_    0.135380 0.755132 0.860554 0.116012
H34   H     H_    0.523769 0.025863 0.181697 0.203859
H35   H     H_    0.252624 0.755328 0.768633 0.173881
H36   H     H_    0.651155 0.734530 0.885354 0.153470
H37   H     H_    0.699829 0.597492 0.910818 0.153419
H38   H     H_    0.800195 0.674451 0.827749 0.127448
H39   H     H_    0.671007 0.477324 0.785372 0.196906
H40   H     H_    0.653089 0.615940 0.751155 0.148695
H41   H     H_    0.480752 0.308600 0.832384 0.328269
H42   H     H_    0.424472 0.056544 0.122043 0.153471
H43   H     H_    0.512323 0.921850 0.095236 0.120112
H44   H     H_    0.722870 0.066974 0.070765 0.163507
H45   H     H_    0.623060 0.068946 0.006490 0.120086
H46   H     H_    0.027247 0.648941 0.400253 0.339057
O1    O     O_3   0.500000 0.500000 0.500000 -0.431224
O2    O     O_R   0.470800 0.371790 0.332500 -0.521185
O3    O     O_R   0.380610 0.619380 0.674980 -0.560341
O4    O     O_R   0.632640 0.524780 0.317540 -0.559929
O5    O     O_R   0.515950 0.484050 0.674980 -0.545897
O6    O     O_3   0.071212 0.606825 0.429243 -0.719564
O7    O     O_3   0.671802 0.208836 0.212747 -0.734715
O8    O     O_3   0.562173 0.295117 0.842467 -0.734263
O9    O     O_R   0.535460 0.243030 0.556410 -0.543087
O10   O     O_R   0.437420 0.784080 0.535340 -0.561114
O11   O     O_R   0.223560 0.397520 0.472140 -0.533280
O12   O     O_R   0.803560 0.575360 0.436110 -0.546483
O13   O     O_R   0.209690 0.568800 0.556400 -0.538633
O14   O     O_R   0.763190 0.458310 0.535350 -0.578708
O15   O     O_R   0.414000 0.207090 0.472140 -0.553424
O16   O     O_R   0.613120 0.765800 0.436110 -0.541755
Zn1   Zn    Zn3+2 0.577310 0.422690 0.565550 0.902198
Zn2   Zn    Zn3+2 0.403760 0.371330 0.445150 0.941256
Zn3   Zn    Zn3+2 0.634990 0.589920 0.423760 0.921537
Zn4   Zn    Zn3+2 0.383940 0.616050 0.565540 0.915429

loop_
_geom_bond_atom_site_label_1
_geom_bond_atom_site_label_2
_ccdc_geom_bond_type
C31   H22   S    
C37   H30   S    
O10   Zn4   S    
C38   H39   S    
C41   C42   A    
C1    C11   S    
C43   C44   A    
C6    C9    A    
C27   H10   S    
C7    C8    A    
C2    O8    S    
C17   O2    A    
C8    C20   A    
O13   Zn4   S    
C34   C40   A    
O1    Zn4   S    
C36   C37   S    
C36   H33   S    
C38   C39   S    
C28   H7    S    
C27   H11   S    
C3    C33   S    
C2    C41   A    
C30   H13   S    
C30   H14   S    
C17   C20   S    
C18   C19   S    
H24   O7    S    
H41   O8    S    
C33   H28   S    
C25   H6    S    
O2    Zn2   S    
C35   H26   S    
C4    O12   A    
C22   H44   S    
C12   C36   S    
C1    O13   A    
C16   O16   A    
O3    Zn4   S    
O11   Zn2   S    
C37   H31   S    
C35   H27   S    
C13   C14   D    
C18   O5    A    
C34   C41   A    
O15   Zn2   S    
C29   H17   S    
O1    Zn1   S    
C32   H20   S    
C5    C7    A    
C26   H2    S    
C16   O10   A    
C25   C26   S    
C12   C21   A    
C19   C23   A    
C8    O7    S    
C29   C30   S    
C9    C20   A    
C31   C32   S    
C29   H16   S    
C10   O6    S    
C23   C34   A    
C30   H15   S    
C39   H37   S    
O5    Zn1   S    
C26   H3    S    
C24   H34   S    
C37   H32   S    
C22   C24   S    
C42   C43   A    
C14   C29   S    
C4    C10   S    
C7    C22   S    
C1    O11   A    
C44   H1    S    
C33   H29   S    
C31   H21   S    
C38   H40   S    
O1    Zn2   S    
C39   H38   S    
C15   O9    A    
C3    C5    A    
C36   H35   S    
C21   H12   S    
C28   H9    S    
H46   O6    S    
C26   H4    S    
C32   H19   S    
C23   C38   S    
O9    Zn1   S    
O4    Zn3   S    
C39   H36   S    
C15   O15   A    
C2    C3    A    
C32   H18   S    
C28   H8    S    
O1    Zn3   S    
C5    C6    A    
C21   C40   A    
C4    O14   A    
C12   C19   A    
C33   C35   S    
C22   H45   S    
C24   H43   S    
C25   H5    S    
C10   C11   D    
C9    C31   S    
C40   C44   A    
C35   H25   S    
C43   H23   S    
C6    C42   A    
C13   C16   S    
C27   C28   S    
C18   O3    A    
C11   C25   S    
C14   C15   S    
C13   C27   S    
O12   Zn3   S    
C17   O4    A    
C24   H42   S    
O14   Zn1   S    
O16   Zn3   S    
