data_mof_unit_46166.cif
_audit_creation_date              2012-12-10T19:13:00-0500
_audit_creation_method            fapswitch 2.2
_symmetry_space_group_name_H-M    P1
_symmetry_Int_Tables_number       1
_space_group_crystal_system       triclinic
_cell_length_a                    8.732217
_cell_length_b                    15.998159
_cell_length_c                    14.773854
_cell_angle_alpha                 89.694486
_cell_angle_beta                  98.018382
_cell_angle_gamma                 89.831795
_cell_volume                      2043.67733928

loop_
_atom_site_label
_atom_site_type_symbol
_atom_type_description
_atom_site_fract_x
_atom_site_fract_y
_atom_site_fract_z
_atom_type_partial_charge
C1    C     C_R   0.500390 0.340897 0.500234 0.827668
C2    C     C_R   0.499610 0.659103 0.499766 0.827669
C3    C     C_R   0.502844 0.500646 0.903251 -0.022293
C4    C     C_R   0.497153 0.499357 0.096749 -0.022285
C5    C     C_R   0.376800 0.466946 0.940805 -0.196196
C6    C     C_R   0.623198 0.533058 0.059195 -0.196201
C7    C     C_1   0.500946 0.500208 0.802721 0.103400
C8    C     C_1   0.499053 0.499793 0.197279 0.103401
C9    C     C_R   0.203144 0.500003 0.476771 0.883338
C10   C     C_R   0.796856 0.499997 0.523228 0.883338
C11   C     C_2   0.037644 0.499974 0.463721 -0.369997
C12   C     C_2   0.962356 0.500026 0.536279 -0.369997
C13   C     C_R   0.591124 0.956250 0.572724 0.097584
C14   C     C_R   0.408882 0.043749 0.427275 0.097583
C15   C     C_R   0.501739 0.912821 0.501111 0.076440
C16   C     C_R   0.498267 0.087178 0.498887 0.076439
C17   C     C_R   0.412231 0.955907 0.429695 -0.204309
C18   C     C_R   0.587775 0.044092 0.570303 -0.204309
C19   C     C_1   0.500045 0.823115 0.499655 -0.075581
C20   C     C_1   0.499958 0.176885 0.500344 -0.075582
C21   C     C_1   0.500462 0.251873 0.500665 -0.178806
C22   C     C_1   0.499540 0.748126 0.499334 -0.178806
C23   C     C_R   0.628368 0.534335 0.963249 0.119476
C24   C     C_R   0.371626 0.465672 0.036750 0.119475
Cu1   Cu    Cu3+1 0.500040 0.500000 0.589220 0.966336
Cu2   Cu    Cu3+1 0.499960 0.500000 0.410780 0.966336
H1    H     H_    0.654287 0.080228 0.623552 0.139774
H2    H     H_    0.345718 0.919772 0.376446 0.139775
N1    N     N_1   0.500050 0.499980 0.276720 -0.156436
N2    N     N_1   0.499950 0.500020 0.723280 -0.156437
O1    O     O_R   0.500070 0.380310 0.575330 -0.571712
O2    O     O_R   0.499930 0.619690 0.424670 -0.571713
O3    O     O_R   0.500000 0.380310 0.424640 -0.574709
O4    O     O_R   0.500000 0.619690 0.575360 -0.574710
O5    O     O_R   0.274870 0.500000 0.557960 -0.572388
O6    O     O_R   0.725130 0.500000 0.442040 -0.572388
O7    O     O_R   0.274790 0.500000 0.407270 -0.585112
O8    O     O_R   0.725210 0.500000 0.592730 -0.585111
H3    H     H_    0.977545 0.499903 0.394109 0.175843
H4    H     H_    0.022455 0.500097 0.605891 0.175843
C25   C     C_3   0.687132 0.906973 0.649378 -0.390686
C26   C     C_3   0.780730 0.959075 0.724719 -0.367994
C27   C     C_3   0.871307 0.902829 0.797244 -0.842612
H5    H     H_    0.791192 0.862395 0.829915 0.252824
H6    H     H_    0.953893 0.862838 0.766087 0.253494
H7    H     H_    0.937628 0.941973 0.850795 0.242558
H8    H     H_    0.864132 0.999382 0.694490 0.221694
H9    H     H_    0.701338 0.999075 0.758466 0.220582
H10   H     H_    0.607643 0.865831 0.681841 0.204883
H11   H     H_    0.768923 0.866253 0.618302 0.202865
C28   C     C_3   0.312869 0.093026 0.350623 -0.390680
C29   C     C_3   0.219304 0.040924 0.275268 -0.368001
C30   C     C_3   0.128732 0.097170 0.202741 -0.842608
H12   H     H_    0.046115 0.137146 0.233892 0.253495
H13   H     H_    0.208847 0.137619 0.170089 0.252826
H14   H     H_    0.062445 0.058026 0.149178 0.242556
H15   H     H_    0.298720 0.000935 0.241526 0.220586
H16   H     H_    0.135901 0.000607 0.305482 0.221690
H17   H     H_    0.231057 0.133732 0.381699 0.202860
H18   H     H_    0.392351 0.134182 0.318172 0.204886
H19   H     H_    0.717358 0.558281 0.106271 0.130655
H20   H     H_    0.282641 0.441720 0.893728 0.130658
C31   C     C_3   0.765041 0.570587 0.922459 -0.396177
C32   C     C_3   0.894856 0.608503 0.990812 -0.378663
C33   C     C_3   0.025513 0.641861 0.942149 -0.829232
H21   H     H_    0.075757 0.590849 0.904762 0.251439
H22   H     H_    0.981827 0.692223 0.893114 0.253266
H23   H     H_    0.118213 0.667875 0.993243 0.245175
H24   H     H_    0.847989 0.660944 0.027838 0.221342
H25   H     H_    0.943680 0.560233 0.041039 0.224119
H26   H     H_    0.815404 0.520085 0.884262 0.197248
H27   H     H_    0.720525 0.620197 0.872524 0.200898
C34   C     C_3   0.234946 0.429428 0.077540 -0.396180
C35   C     C_3   0.105093 0.391552 0.009182 -0.378671
C36   C     C_3   0.974405 0.358227 0.057840 -0.829218
H28   H     H_    0.018043 0.307847 0.106865 0.253266
H29   H     H_    0.924217 0.409250 0.095240 0.251432
H30   H     H_    0.881677 0.332247 0.006743 0.245182
H31   H     H_    0.056316 0.439840 0.958963 0.224119
H32   H     H_    0.151908 0.339101 0.972147 0.221336
H33   H     H_    0.279443 0.379800 0.127456 0.200890
H34   H     H_    0.184619 0.479928 0.115757 0.197257

loop_
_geom_bond_atom_site_label_1
_geom_bond_atom_site_label_2
_ccdc_geom_bond_type
Cu1   O1    S    
C1    C21   S    
C25   C26   S    
C25   H11   S    
C3    C23   A    
C4    C8    S    
C13   C25   S    
C1    O3    A    
C30   H12   S    
C15   C19   S    
C13   C18   A    
C8    N1    T    
C6    H19   S    
C3    C7    S    
C4    C24   A    
C24   C34   S    
C1    O1    A    
C2    O2    A    
C34   C35   S    
C34   H33   S    
C33   H22   S    
C2    C22   S    
C32   H25   S    
Cu1   O4    S    
C9    C11   S    
C2    O4    A    
C23   C31   S    
C7    N2    T    
C35   H32   S    
C14   C17   A    
C10   C12   S    
C25   H10   S    
C36   H30   S    
C30   H13   S    
C35   C36   S    
C28   C29   S    
C19   C22   T    
C4    C6    A    
Cu2   O2    S    
Cu1   Cu2   S    
C12   H4    S    
C36   H28   S    
Cu1   O8    S    
C27   H6    S    
Cu2   O3    S    
C14   C28   S    
C16   C20   S    
C33   H23   S    
C9    O7    A    
C26   H9    S    
C32   H24   S    
C20   C21   T    
C11   H3    S    
C36   H29   S    
C29   H16   S    
Cu1   O5    S    
Cu2   O6    S    
C31   H26   S    
C35   H31   S    
C13   C15   A    
C27   H5    S    
C14   C16   A    
C28   H17   S    
C26   C27   S    
C34   H34   S    
C29   C30   S    
C30   H14   S    
Cu1   N2    S    
C15   C17   A    
C17   H2    S    
C18   H1    S    
C3    C5    A    
C11   C12   D    
Cu2   O7    S    
C10   O8    A    
C32   C33   S    
C5    C24   A    
C6    C23   A    
C5    H20   S    
C26   H8    S    
C27   H7    S    
C29   H15   S    
C31   C32   S    
C31   H27   S    
Cu2   N1    S    
C16   C18   A    
C33   H21   S    
C9    O5    A    
C10   O6    A    
C28   H18   S    
