data_mof_unit_45343.cif
_audit_creation_date              2012-12-10T16:56:31-0500
_audit_creation_method            fapswitch 2.2
_symmetry_space_group_name_H-M    P1
_symmetry_Int_Tables_number       1
_space_group_crystal_system       triclinic
_cell_length_a                    7.755936
_cell_length_b                    8.654934
_cell_length_c                    15.704035
_cell_angle_alpha                 91.006167
_cell_angle_beta                  85.568592
_cell_angle_gamma                 93.84059
_cell_volume                      1048.57359781

loop_
_atom_site_label
_atom_site_type_symbol
_atom_type_description
_atom_site_fract_x
_atom_site_fract_y
_atom_site_fract_z
_atom_type_partial_charge
Br1   Br    Br    0.132138 0.618712 0.083505 -0.471786
Br2   Br    Br    0.867926 0.381879 0.916627 -0.478651
C1    C     C_R   0.544730 0.793023 0.488781 0.921149
C2    C     C_3   0.519017 0.355425 0.026452 -0.240322
C3    C     C_1   0.504729 0.499885 0.750806 -0.130362
C4    C     C_1   0.495290 0.500312 0.249210 -0.113706
C5    C     C_3   0.368924 0.403950 0.975065 -0.199688
C6    C     C_3   0.631076 0.596626 0.024982 -0.196352
C7    C     C_3   0.502125 0.500150 0.917087 0.051371
C8    C     C_3   0.497881 0.500422 0.082951 0.049953
C9    C     C_1   0.504480 0.499955 0.826141 0.048341
C10   C     C_1   0.495540 0.500460 0.173884 0.050946
C11   C     C_2   0.750561 0.011849 0.448254 0.502596
C12   C     C_R   0.454178 0.205504 0.496362 0.932816
C13   C     C_2   0.244797 0.982568 0.474238 0.491448
C14   C     C_R   0.501703 0.500090 0.662005 0.911440
C15   C     C_R   0.498285 0.499858 0.337989 0.883973
C16   C     C_2   0.568009 0.954140 0.471062 -0.302577
C17   C     C_2   0.428340 0.043091 0.481276 -0.276602
C18   C     C_3   0.349349 0.548457 0.033005 0.360268
C19   C     C_3   0.650652 0.452120 0.967043 0.360099
C20   C     C_3   0.480984 0.645155 0.973589 -0.242315
H1    H     H_    0.464339 0.763115 0.950155 0.186532
H2    H     H_    0.535661 0.237467 0.049893 0.187981
H3    H     H_    0.738270 0.674751 0.047230 0.215070
H4    H     H_    0.261724 0.325820 0.952829 0.213481
H5    H     H_    0.013694 0.381677 0.436950 0.207293
H6    H     H_    0.986300 0.618316 0.563044 0.210815
H7    H     H_    0.824111 0.076980 0.494364 0.136130
H8    H     H_    0.212945 0.901195 0.423491 0.105488
N1    N     N_2   0.950320 0.457950 0.477300 -0.163152
N2    N     N_2   0.049680 0.542050 0.522700 -0.161317
O1    O     O_R   0.389250 0.738570 0.505570 -0.633445
O2    O     O_2   0.129803 0.020310 0.526385 -0.578979
O3    O     O_R   0.610750 0.261430 0.494430 -0.653379
O4    O     O_R   0.678390 0.711630 0.491020 -0.605614
O5    O     O_R   0.321610 0.288370 0.508980 -0.581255
O6    O     O_R   0.355460 0.513480 0.630490 -0.594724
O7    O     O_R   0.644540 0.486520 0.369510 -0.595957
O8    O     O_R   0.644600 0.486540 0.615950 -0.614898
O9    O     O_R   0.355400 0.513460 0.384050 -0.632013
O10   O     O_2   0.820549 0.981396 0.378245 -0.556285
Zn1   Zn    Zn3+2 0.306940 0.517990 0.509710 0.999749
Zn2   Zn    Zn3+2 0.693060 0.482010 0.490290 0.996442

loop_
_geom_bond_atom_site_label_1
_geom_bond_atom_site_label_2
_ccdc_geom_bond_type
O5    Zn1   S    
C6    C20   S    
O7    Zn2   S    
O3    Zn2   S    
C7    C9    S    
C13   O2    D    
N1    N2    D    
H6    N2    S    
Br2   C19   S    
C6    C19   S    
O6    Zn1   S    
C12   O5    A    
C13   C17   S    
C6    H3    S    
O9    Zn1   S    
C7    C19   S    
C5    H4    S    
C8    C10   S    
C1    O4    A    
C14   O8    A    
C2    C5    S    
C11   C16   S    
C11   H7    S    
C11   O10   D    
N2    Zn1   S    
C2    C19   S    
C3    C9    T    
C4    C10   T    
C2    H2    S    
C15   O9    A    
C7    C20   S    
O4    Zn2   S    
N1    Zn2   S    
C1    O1    A    
C2    C8    S    
O1    Zn1   S    
O8    Zn2   S    
C1    C16   S    
C6    C8    S    
C16   C17   D    
C13   H8    S    
C8    C18   S    
C12   O3    A    
C5    C7    S    
C4    C15   S    
C15   O7    A    
C20   H1    S    
Br1   C18   S    
C14   O6    A    
H5    N1    S    
C12   C17   S    
C5    C18   S    
C18   C20   S    
C3    C14   S    
