data_mof_unit_39405.cif
_audit_creation_date              2012-12-10T18:13:50-0500
_audit_creation_method            fapswitch 2.2
_symmetry_space_group_name_H-M    P1
_symmetry_Int_Tables_number       1
_space_group_crystal_system       triclinic
_cell_length_a                    10.890848
_cell_length_b                    9.639479
_cell_length_c                    23.47267
_cell_angle_alpha                 90.494514
_cell_angle_beta                  88.07402
_cell_angle_gamma                 89.708062
_cell_volume                      2462.69063499

loop_
_atom_site_label
_atom_site_type_symbol
_atom_type_description
_atom_site_fract_x
_atom_site_fract_y
_atom_site_fract_z
_atom_type_partial_charge
C1    C     C_R   0.261378 0.500347 0.498974 0.794777
C2    C     C_R   0.321656 0.607614 0.970899 -0.209501
C3    C     C_R   0.313953 0.604204 0.030363 -0.038858
C4    C     C_R   0.417763 0.560628 0.060973 -0.035307
C5    C     C_R   0.522634 0.508188 0.030212 -0.028010
C6    C     C_R   0.622805 0.455633 0.059751 -0.053611
C7    C     C_R   0.725293 0.401453 0.029401 -0.119998
C8    C     C_R   0.731391 0.398908 0.969697 -0.036802
C9    C     C_R   0.423213 0.570805 0.120984 0.568951
C10   C     C_R   0.617266 0.454813 0.119490 0.556572
C11   C     C_R   0.608332 0.571507 0.241252 -0.055804
C12   C     C_R   0.500602 0.499915 0.391600 0.796763
C13   C     C_R   0.603985 0.566800 0.300665 -0.189549
C14   C     C_R   0.505738 0.501521 0.329464 -0.030816
C15   C     C_R   0.410373 0.444339 0.298629 -0.156681
C16   C     C_R   0.415618 0.446827 0.239296 -0.057607
C17   C     C_R   0.514664 0.510242 0.210158 0.304821
C18   C     C_R   0.520601 0.388504 0.762328 -0.069268
C19   C     C_R   0.512287 0.383252 0.703383 -0.133729
C20   C     C_R   0.516688 0.505090 0.671316 -0.077317
C21   C     C_R   0.537633 0.632030 0.699358 -0.163126
C22   C     C_R   0.547060 0.638745 0.758827 0.041545
C23   C     C_R   0.740141 0.499543 0.499119 0.719538
C24   C     C_R   0.535818 0.515429 0.790436 0.257746
C25   C     C_3   0.077497 0.627501 0.464260 -0.217821
C26   C     C_3   0.069176 0.512108 0.561027 -0.185341
C27   C     C_3   0.934877 0.636913 0.471221 -0.162674
C28   C     C_3   0.927568 0.486888 0.561987 -0.248587
C29   C     C_3   0.079116 0.366517 0.469486 -0.393062
C30   C     C_3   0.124467 0.500761 0.498374 -0.130564
C31   C     C_3   0.880197 0.498702 0.499390 -0.150886
C32   C     C_3   0.937245 0.369975 0.462420 -0.027450
C33   C     C_3   0.615027 0.080478 0.523116 -0.189304
C34   C     C_3   0.605365 0.918937 0.531491 -0.214086
C35   C     C_3   0.397928 0.084482 0.539148 -0.132842
C36   C     C_3   0.387560 0.919368 0.531718 -0.179813
C37   C     C_3   0.485084 0.083395 0.441078 -0.031807
C38   C     C_3   0.497949 0.913799 0.440464 -0.044038
C39   C     C_R   0.503861 0.500896 0.608773 0.841110
C40   C     C_R   0.635891 0.469655 0.878847 0.517001
C41   C     C_R   0.431818 0.561446 0.880912 0.542796
C42   C     C_R   0.426932 0.560780 0.940526 -0.007634
C43   C     C_R   0.527676 0.508510 0.969897 -0.005563
C44   C     C_R   0.633137 0.457243 0.939033 -0.093207
Cu1   Cu    Cu3+1 0.499860 0.642410 0.500030 0.958594
Cu2   Cu    Cu3+1 0.499860 0.357590 0.500030 0.987105
H1    H     H_    0.548583 0.725885 0.674918 0.170412
H2    H     H_    0.119440 0.722302 0.482782 0.183076
H3    H     H_    0.086680 0.619799 0.575779 0.249736
H4    H     H_    0.894340 0.647872 0.428685 0.200576
H5    H     H_    0.909651 0.381098 0.577115 0.197318
H6    H     H_    0.677304 0.613484 0.324175 0.159791
H7    H     H_    0.330319 0.401538 0.320247 0.195577
N1    N     N_R   0.535237 0.517332 0.851591 -0.476272
N2    N     N_R   0.519035 0.512799 0.148834 -0.472555
N3    N     N_3   0.500250 0.143650 0.501250 -0.201478
N4    N     N_3   0.500250 0.856350 0.501250 -0.193128
O1    O     O_R   0.317570 0.620260 0.500030 -0.599811
O2    O     O_R   0.317570 0.379740 0.500030 -0.599006
O3    O     O_R   0.499840 0.620290 0.417900 -0.594081
O4    O     O_R   0.499840 0.379710 0.417900 -0.529999
O5    O     O_R   0.682190 0.620260 0.500010 -0.567362
O6    O     O_R   0.682190 0.379740 0.500010 -0.548950
O7    O     O_R   0.499920 0.620230 0.582140 -0.607203
O8    O     O_R   0.499920 0.379770 0.582140 -0.573501
O9    O     O_2   0.738373 0.438503 0.847486 -0.530368
O10   O     O_2   0.333913 0.605910 0.852209 -0.495828
O11   O     O_2   0.336693 0.642680 0.151404 -0.470959
O12   O     O_2   0.709157 0.395751 0.148094 -0.506162
H8    H     H_    0.242457 0.642958 0.948135 0.193805
H9    H     H_    0.502336 0.283598 0.683332 0.179478
C45   C     C_2   0.569543 0.773526 0.787562 0.450156
H10   H     H_    0.582253 0.778238 0.833172 0.074795
O13   O     O_2   0.574499 0.881314 0.760626 -0.545615
C46   C     C_2   0.120422 0.627318 0.402053 0.407500
H11   H     H_    0.184045 0.549186 0.385226 0.065447
O14   O     O_2   0.088482 0.720013 0.370573 -0.458272
C47   C     C_2   0.129622 0.415163 0.602017 0.487744
H12   H     H_    0.120159 0.303843 0.596984 0.120880
O15   O     O_2   0.188233 0.461236 0.641309 -0.455614
C48   C     C_2   0.904433 0.772166 0.501873 0.467035
H13   H     H_    0.871381 0.776515 0.545526 0.092670
O16   O     O_2   0.923245 0.881914 0.477564 -0.506607
C49   C     C_2   0.857122 0.571840 0.607182 0.331830
H14   H     H_    0.757986 0.564819 0.610584 0.060898
O17   O     O_2   0.909442 0.645095 0.641370 -0.475418
H15   H     H_    0.129670 0.347824 0.428239 0.203378
H16   H     H_    0.107212 0.277401 0.496091 0.184130
C50   C     C_2   0.906114 0.386750 0.399788 0.357885
H17   H     H_    0.824821 0.444514 0.388452 0.087038
O18   O     O_2   0.965822 0.327895 0.361670 -0.497958
C51   C     C_2   0.893649 0.224986 0.478446 0.432341
H18   H     H_    0.874339 0.150658 0.444990 0.178805
O19   O     O_2   0.894655 0.181989 0.527163 -0.584709
H19   H     H_    0.642064 0.132812 0.563050 0.164657
H20   H     H_    0.598692 0.895842 0.577736 0.110751
C52   C     C_2   0.191941 0.637191 0.057069 0.520866
H21   H     H_    0.137335 0.721153 0.040375 0.057011
O20   O     O_2   0.147293 0.564610 0.094686 -0.460086
H22   H     H_    0.692699 0.096234 0.493571 0.224299
H23   H     H_    0.691972 0.870800 0.518073 0.222355
C53   C     C_2   0.407734 0.124938 0.601444 0.431721
H24   H     H_    0.486423 0.093131 0.625261 0.035009
O21   O     O_2   0.323460 0.185885 0.626636 -0.528998
C54   C     C_2   0.353075 0.847776 0.587189 0.547302
H25   H     H_    0.415213 0.848160 0.622121 0.046860
O22   O     O_2   0.252275 0.794951 0.594497 -0.528369
C55   C     C_2   0.357563 0.128966 0.419895 0.432601
H26   H     H_    0.273640 0.095902 0.441576 0.049900
O23   O     O_2   0.345404 0.191567 0.375489 -0.552869
C56   C     C_2   0.390104 0.853066 0.407388 0.314157
H27   H     H_    0.319468 0.791940 0.427885 0.125746
O24   O     O_2   0.380932 0.873676 0.356336 -0.514562
C57   C     C_2   0.579772 0.138093 0.396166 0.449480
H28   H     H_    0.564657 0.118278 0.351298 0.107945
O25   O     O_2   0.671731 0.201757 0.408012 -0.584970
C58   C     C_2   0.611363 0.864939 0.403916 0.451330
H29   H     H_    0.612552 0.879430 0.358046 0.078612
O26   O     O_2   0.700573 0.808877 0.423234 -0.543806
H30   H     H_    0.308954 0.130689 0.527752 0.146179
H31   H     H_    0.305245 0.903880 0.506088 0.116214
H32   H     H_    0.800539 0.357155 0.052399 0.226331
C59   C     C_2   0.837980 0.325559 0.941884 0.466438
H33   H     H_    0.827349 0.265138 0.903249 0.128895
O27   O     O_2   0.938850 0.328228 0.963091 -0.513427
H34   H     H_    0.684346 0.622713 0.219391 0.170851
H35   H     H_    0.342023 0.400531 0.215881 0.179889
H36   H     H_    0.513708 0.293507 0.786510 0.163587

loop_
_geom_bond_atom_site_label_1
_geom_bond_atom_site_label_2
_ccdc_geom_bond_type
Cu1   O3    S    
Cu2   O2    S    
C28   C49   S    
C41   C42   A    
C19   H9    S    
C19   C20   A    
C46   H11   S    
C35   C53   S    
C52   H21   S    
C59   H33   S    
C41   O10   S    
Cu1   Cu2   S    
C39   O7    A    
C54   O22   D    
Cu1   N4    S    
C29   C30   S    
C18   C24   A    
C15   H7    S    
C34   H20   S    
C29   C32   S    
C1    O2    A    
C5    C6    A    
C28   H5    S    
C47   O15   D    
C59   O27   D    
C24   N1    S    
C15   C16   A    
C38   N4    S    
Cu1   O5    S    
C55   H26   S    
C18   C19   A    
C38   C56   S    
C51   H18   S    
C29   H16   S    
C52   O20   D    
C37   N3    S    
C38   C58   S    
C23   O5    A    
C32   C50   S    
C16   C17   A    
C34   N4    S    
C9    N2    A    
C50   O18   D    
C17   N2    S    
C27   H4    S    
C18   H36   S    
C33   N3    S    
C23   O6    A    
C5    C43   A    
C40   O9    S    
C21   C22   A    
C39   O8    A    
C35   H30   S    
C1    O1    A    
C33   H19   S    
C22   C45   S    
C48   O16   D    
C57   H28   S    
Cu1   O1    S    
C34   H23   S    
Cu2   O4    S    
C27   C31   S    
C27   C48   S    
C11   H34   S    
C49   H14   S    
Cu2   O8    S    
C45   O13   D    
C36   N4    S    
C26   H3    S    
C20   C39   S    
C47   H12   S    
C45   H10   S    
C37   C57   S    
C48   H13   S    
C25   C46   S    
C35   C36   S    
C23   C31   S    
C43   C44   A    
C6    C10   A    
C37   C38   S    
C13   H6    S    
C3    C52   S    
C31   C32   S    
C51   O19   D    
C33   C34   S    
C56   O24   D    
C26   C47   S    
C53   O21   D    
C10   N2    A    
C46   O14   D    
C25   H2    S    
C37   C55   S    
C12   C14   S    
C26   C30   S    
C40   N1    A    
C22   C24   A    
C42   C43   A    
C7    H32   S    
C3    C4    A    
C25   C30   S    
C11   C17   A    
C56   H27   S    
C36   C54   S    
C28   C31   S    
C8    C44   A    
C49   O17   D    
C4    C5    A    
C35   N3    S    
C57   O25   D    
C8    C59   S    
C6    C7    A    
C25   C27   S    
C54   H25   S    
Cu1   O7    S    
C26   C28   S    
Cu2   O6    S    
C33   H22   S    
C58   O26   D    
C36   H31   S    
C50   H17   S    
C9    O11   S    
C2    H8    S    
C58   H29   S    
C12   O4    A    
C11   C13   A    
C32   C51   S    
C2    C42   A    
C1    C30   S    
C55   O23   D    
C2    C3    A    
C53   H24   S    
C16   H35   S    
C41   N1    A    
C29   H15   S    
C7    C8    A    
C12   O3    A    
C10   O12   S    
C40   C44   A    
C20   C21   A    
Cu2   N3    S    
C14   C15   A    
C4    C9    A    
C13   C14   A    
C21   H1    S    
