data_mof_unit_26925.cif
_audit_creation_date              2012-12-10T17:30:28-0500
_audit_creation_method            fapswitch 2.2
_symmetry_space_group_name_H-M    P1
_symmetry_Int_Tables_number       1
_space_group_crystal_system       triclinic
_cell_length_a                    12.156031
_cell_length_b                    12.821007
_cell_length_c                    14.921558
_cell_angle_alpha                 92.546133
_cell_angle_beta                  86.104038
_cell_angle_gamma                 95.232888
_cell_volume                      2308.80785512

loop_
_atom_site_label
_atom_site_type_symbol
_atom_type_description
_atom_site_fract_x
_atom_site_fract_y
_atom_site_fract_z
_atom_type_partial_charge
C1    C     C_R   0.523552 0.700368 0.491874 0.894799
C2    C     C_R   0.354559 0.129251 0.529930 0.129520
C3    C     C_R   0.443906 0.865932 0.471338 0.109037
C4    C     C_R   0.556096 0.134060 0.528632 0.109023
C5    C     C_R   0.447839 0.970930 0.499982 0.005976
C6    C     C_R   0.552160 0.029063 0.499982 0.005973
C7    C     C_R   0.955961 0.458811 0.385951 0.127797
C8    C     C_R   0.044039 0.541192 0.614049 0.127802
C9    C     C_R   0.840771 0.440613 0.404936 0.259389
C10   C     C_R   0.159230 0.559388 0.595064 0.259353
C11   C     C_R   0.857903 0.524255 0.549313 0.246894
C12   C     C_R   0.476448 0.299630 0.508123 0.894794
C13   C     C_R   0.142097 0.475747 0.450686 0.246882
C14   C     C_R   0.974856 0.515471 0.541996 -0.061005
C15   C     C_R   0.025143 0.484531 0.458004 -0.061008
C16   C     C_R   0.499737 0.500076 0.672306 0.911745
C17   C     C_R   0.500259 0.499908 0.327694 0.911726
C18   C     C_R   0.479845 0.401865 0.184528 0.087255
C19   C     C_R   0.520052 0.598070 0.815500 0.087284
C20   C     C_R   0.500893 0.497884 0.232116 -0.090604
C21   C     C_R   0.499077 0.502059 0.767885 -0.090640
C22   C     C_R   0.528239 0.592209 0.188817 0.113271
C23   C     C_R   0.501345 0.691705 0.962808 0.602615
C24   C     C_R   0.471663 0.407726 0.811166 0.113311
C25   C     C_R   0.507621 0.595191 0.097925 0.052524
C26   C     C_R   0.492176 0.404725 0.902081 0.052433
C27   C     C_R   0.499748 0.499197 0.046967 -0.118223
C28   C     C_R   0.500037 0.500714 0.953046 -0.118213
C29   C     C_R   0.491631 0.401757 0.089970 -0.035159
C30   C     C_R   0.508159 0.598159 0.910051 -0.035152
C31   C     C_R   0.494848 0.689957 0.056230 0.046210
C32   C     C_R   0.504846 0.309940 0.943788 0.046257
C33   C     C_3   0.449183 0.301226 0.234455 -0.776157
C34   C     C_R   0.498340 0.308196 0.037212 0.602586
C35   C     C_3   0.550776 0.698722 0.765607 -0.776213
C36   C     C_3   0.998981 0.466976 0.288430 -0.899119
C37   C     C_3   0.001016 0.533040 0.711570 -0.899121
C38   C     C_3   0.593530 0.682243 0.236817 -0.902778
C39   C     C_3   0.406418 0.317703 0.763114 -0.902733
C40   C     C_3   0.459286 0.786971 0.107895 -0.765829
C41   C     C_3   0.540305 0.212885 0.892122 -0.765502
C42   C     C_3   0.652803 0.182407 0.580768 -0.816402
C43   C     C_3   0.347210 0.817580 0.419192 -0.816389
C44   C     C_3   0.248009 0.182985 0.539791 -0.840872
C45   C     C_R   0.460327 0.186902 0.522968 -0.163736
C46   C     C_3   0.751985 0.817004 0.460159 -0.840882
C47   C     C_3   0.750918 0.044791 0.431585 -0.907032
C48   C     C_3   0.249073 0.955200 0.568363 -0.907023
C49   C     C_3   0.191240 0.405167 0.378225 -0.820462
C50   C     C_3   0.808762 0.594843 0.621769 -0.820500
C51   C     C_3   0.225768 0.623333 0.663119 -0.805967
C52   C     C_3   0.774234 0.376668 0.336880 -0.806045
C53   C     C_R   0.539673 0.813092 0.477012 -0.163755
C54   C     C_R   0.649219 0.980817 0.470706 0.220611
C55   C     C_R   0.350779 0.019175 0.529255 0.220601
C56   C     C_R   0.645439 0.870741 0.470037 0.129510
F1    F     F_    0.492120 0.784806 0.925103 -0.680397
F2    F     F_    0.507439 0.215071 0.074915 -0.680465
H1    H     H_    0.421809 0.314457 0.305959 0.194315
H2    H     H_    0.928083 0.474736 0.718360 0.247146
H3    H     H_    0.063144 0.502274 0.752208 0.242392
H4    H     H_    0.981880 0.610737 0.741148 0.247249
H5    H     H_    0.631440 0.742257 0.190263 0.256589
H6    H     H_    0.540512 0.719141 0.290102 0.228175
H7    H     H_    0.664314 0.652631 0.268035 0.248174
H8    H     H_    0.368249 0.257810 0.809685 0.256499
H9    H     H_    0.335800 0.347343 0.731685 0.248195
H10   H     H_    0.459547 0.280656 0.709991 0.228229
H11   H     H_    0.427842 0.770632 0.177755 0.225917
H12   H     H_    0.378520 0.255286 0.203674 0.264902
H13   H     H_    0.528895 0.849361 0.107768 0.257524
H14   H     H_    0.389207 0.817021 0.075856 0.264801
H15   H     H_    0.470492 0.150681 0.891961 0.257276
H16   H     H_    0.572146 0.229333 0.822359 0.225836
H17   H     H_    0.610092 0.182504 0.924343 0.264993
H18   H     H_    0.623952 0.237344 0.634984 0.228665
H19   H     H_    0.692092 0.121059 0.614350 0.232503
H20   H     H_    0.716587 0.225814 0.536619 0.256344
H21   H     H_    0.376076 0.762652 0.364975 0.228666
H22   H     H_    0.283425 0.774164 0.463333 0.256344
H23   H     H_    0.521747 0.254389 0.232993 0.276596
H24   H     H_    0.307918 0.878926 0.385611 0.232518
H25   H     H_    0.172279 0.129103 0.550157 0.232897
H26   H     H_    0.249736 0.240114 0.597909 0.252279
H27   H     H_    0.237124 0.222166 0.476981 0.241060
H28   H     H_    0.827712 0.870883 0.449775 0.232900
H29   H     H_    0.762888 0.777826 0.522967 0.241066
H30   H     H_    0.750238 0.759869 0.402046 0.252303
H31   H     H_    0.783857 0.005443 0.368919 0.245792
H32   H     H_    0.730816 0.122295 0.410382 0.246168
H33   H     H_    0.815833 0.055216 0.480880 0.240649
H34   H     H_    0.578298 0.685501 0.694132 0.194356
H35   H     H_    0.216120 0.994545 0.631026 0.245792
H36   H     H_    0.184168 0.944776 0.519060 0.240647
H37   H     H_    0.269171 0.877695 0.589567 0.246177
H38   H     H_    0.218676 0.448620 0.316959 0.246591
H39   H     H_    0.131815 0.337097 0.362204 0.211208
H40   H     H_    0.262415 0.370081 0.401024 0.269439
H41   H     H_    0.781325 0.551397 0.683038 0.246585
H42   H     H_    0.737588 0.629928 0.598967 0.269429
H43   H     H_    0.868187 0.662914 0.637784 0.211209
H44   H     H_    0.178577 0.688655 0.691621 0.209274
H45   H     H_    0.478198 0.745535 0.766975 0.276615
H46   H     H_    0.243029 0.574441 0.719169 0.244328
H47   H     H_    0.303236 0.661433 0.632961 0.270471
H48   H     H_    0.821424 0.311346 0.308380 0.209264
H49   H     H_    0.696765 0.338569 0.367037 0.270474
H50   H     H_    0.756974 0.425559 0.280830 0.244313
H51   H     H_    0.621358 0.744686 0.796488 0.264837
H52   H     H_    0.071917 0.525277 0.281644 0.247151
H53   H     H_    0.018113 0.389281 0.258843 0.247249
H54   H     H_    0.936854 0.497753 0.247799 0.242381
N1    N     N_R   0.207800 0.519350 0.516680 -0.124252
N2    N     N_R   0.792200 0.480650 0.483320 -0.124247
O1    O     O_R   0.421700 0.658830 0.504450 -0.617903
O2    O     O_R   0.578300 0.341170 0.495550 -0.617903
O3    O     O_R   0.609310 0.646410 0.493750 -0.631336
O4    O     O_R   0.390690 0.353590 0.506250 -0.631361
O5    O     O_R   0.406180 0.506230 0.637500 -0.619815
O6    O     O_R   0.593820 0.493770 0.362500 -0.619774
O7    O     O_R   0.593800 0.493820 0.626800 -0.626481
O8    O     O_R   0.406200 0.506180 0.373200 -0.626485
Zn1   Zn    Zn3+2 0.374730 0.508290 0.507150 0.914497
Zn2   Zn    Zn3+2 0.625270 0.491710 0.492850 0.914513

loop_
_geom_bond_atom_site_label_1
_geom_bond_atom_site_label_2
_ccdc_geom_bond_type
C25   C31   A    
C48   C55   S    
C26   C32   A    
C16   C21   S    
C40   H13   S    
C27   C29   A    
C39   H10   S    
C44   H25   S    
C24   C39   S    
C37   H4    S    
C51   H44   S    
C3    C43   S    
C50   H41   S    
C48   H36   S    
C9    N2    A    
C19   C21   A    
O3    Zn2   S    
C24   C26   A    
C38   H5    S    
C35   H45   S    
C2    C55   A    
C5    C6    A    
C11   C14   A    
C43   H21   S    
C22   C38   S    
C17   C20   S    
C31   C40   S    
C7    C9    A    
C7    C36   S    
C11   N2    A    
C1    C53   S    
O7    Zn2   S    
C17   O6    A    
C41   H16   S    
C52   H49   S    
C2    C44   S    
C22   C25   A    
C36   H54   S    
C32   C41   S    
C40   H14   S    
C38   H6    S    
C35   H51   S    
N2    Zn2   S    
C35   H34   S    
C7    C15   A    
C49   H40   S    
C52   H48   S    
C33   H1    S    
C47   H31   S    
C9    C52   S    
C39   H9    S    
C6    C54   A    
C10   C51   S    
C26   C28   A    
C46   H30   S    
C4    C45   A    
C2    C45   A    
C54   C56   A    
O1    Zn1   S    
C48   H35   S    
C23   C30   A    
C4    C6    A    
C40   H11   S    
C16   O5    A    
C3    C5    A    
C51   H46   S    
C41   H15   S    
C29   C34   A    
C32   C34   A    
C16   O7    A    
C41   H17   S    
N1    Zn1   S    
C38   H7    S    
C51   H47   S    
C36   H53   S    
C18   C29   A    
C1    O3    A    
C10   N1    A    
C33   H12   S    
C50   H43   S    
C47   C54   S    
C13   C49   S    
C20   C22   A    
C42   H20   S    
C13   C15   A    
C36   H52   S    
C48   H37   S    
C39   H8    S    
C12   O4    A    
C8    C37   S    
C44   H27   S    
C46   H29   S    
C53   C56   A    
C23   F1    S    
C8    C14   A    
O2    Zn2   S    
C47   H33   S    
C5    C55   A    
C12   C45   S    
C44   H26   S    
C37   H3    S    
O5    Zn1   S    
C25   C27   A    
C42   H18   S    
C28   C30   A    
C43   H22   S    
C11   C50   S    
C19   C35   S    
C3    C53   A    
C4    C42   S    
C47   H32   S    
C18   C20   A    
O4    Zn1   S    
C49   H38   S    
C18   C33   S    
C50   H42   S    
C37   H2    S    
C49   H39   S    
C17   O8    A    
C52   H50   S    
C42   H19   S    
C8    C10   A    
C21   C24   A    
C46   C56   S    
C27   C28   A    
C34   F2    S    
C43   H24   S    
C14   C15   A    
C1    O1    A    
C46   H28   S    
O8    Zn1   S    
C19   C30   A    
C33   H23   S    
C13   N1    A    
O6    Zn2   S    
C23   C31   A    
C12   O2    A    
