data_mof_unit_8151.cif
_audit_creation_date              2012-12-10T17:58:45-0500
_audit_creation_method            fapswitch 2.2
_symmetry_space_group_name_H-M    P1
_symmetry_Int_Tables_number       1
_space_group_crystal_system       triclinic
_cell_length_a                    16.115292
_cell_length_b                    14.489654
_cell_length_c                    9.793435
_cell_angle_alpha                 88.007466
_cell_angle_beta                  90.043641
_cell_angle_gamma                 89.865998
_cell_volume                      2285.42634053

loop_
_atom_site_label
_atom_site_type_symbol
_atom_type_description
_atom_site_fract_x
_atom_site_fract_y
_atom_site_fract_z
_atom_type_partial_charge
C1    C     C_R   0.118263 0.380984 0.501009 0.749467
C2    C     C_R   0.990866 0.580627 0.923787 0.138628
C3    C     C_R   0.007472 0.580299 0.067595 0.125454
C4    C     C_R   0.010433 0.419717 0.932162 0.131521
C5    C     C_R   0.492458 0.919162 0.076399 0.140592
C6    C     C_R   0.490003 0.080407 0.923718 0.138089
C7    C     C_R   0.507470 0.080189 0.067274 0.125333
C8    C     C_R   0.509314 0.919836 0.932603 0.125541
C9    C     C_R   0.770581 0.299331 0.381575 -0.184232
C10   C     C_R   0.224079 0.707390 0.623893 -0.183335
C11   C     C_R   0.204770 0.739047 0.382122 -0.206150
C12   C     C_R   0.879850 0.616463 0.498502 0.755931
C13   C     C_R   0.780230 0.280794 0.627144 -0.186568
C14   C     C_R   0.195953 0.250519 0.611593 -0.208557
C15   C     C_R   0.787391 0.728133 0.374947 -0.189121
C16   C     C_R   0.763852 0.691748 0.614457 -0.188336
C17   C     C_R   0.235068 0.306506 0.385114 -0.183492
C18   C     C_R   0.265404 0.805948 0.384380 -0.188897
C19   C     C_R   0.718345 0.214406 0.625730 -0.182448
C20   C     C_R   0.711023 0.231470 0.379775 -0.198182
C21   C     C_R   0.286044 0.773613 0.625684 -0.189011
C22   C     C_R   0.702809 0.758429 0.616770 -0.207270
C23   C     C_R   0.879608 0.383790 0.501379 0.750559
C24   C     C_R   0.297339 0.240637 0.382630 -0.186889
C25   C     C_R   0.259041 0.185689 0.609937 -0.183651
C26   C     C_R   0.725478 0.794540 0.376949 -0.184846
C27   C     C_R   0.184005 0.688248 0.500777 -0.009285
C28   C     C_R   0.809235 0.320818 0.503986 -0.004877
C29   C     C_R   0.809544 0.679442 0.495479 -0.001389
C30   C     C_R   0.184585 0.312682 0.500745 -0.011284
C31   C     C_R   0.684128 0.188077 0.500990 -0.008791
C32   C     C_R   0.309610 0.820384 0.504343 -0.002644
C33   C     C_R   0.311443 0.181947 0.496611 -0.002328
C34   C     C_R   0.118365 0.619004 0.499327 0.750827
C35   C     C_R   0.683854 0.811573 0.499328 -0.008686
C36   C     C_3   0.960321 0.327702 0.137525 -0.360635
C37   C     C_3   0.019318 0.270175 0.231066 -0.266967
C38   C     C_3   0.009786 0.166164 0.215943 -0.928180
C39   C     C_3   0.948065 0.668186 0.865821 -0.336284
C40   C     C_3   0.999085 0.734262 0.771621 -0.286374
C41   C     C_3   0.958235 0.829448 0.756832 -0.907873
C42   C     C_3   0.052201 0.664760 0.116722 -0.355659
C43   C     C_3   0.999087 0.731060 0.200762 -0.284953
C44   C     C_3   0.023286 0.832338 0.176668 -0.918889
C45   C     C_R   0.618297 0.880934 0.500743 0.750729
C46   C     C_3   0.050501 0.332775 0.878901 -0.368170
C47   C     C_3   0.992331 0.272531 0.793721 -0.280592
C48   C     C_3   0.003420 0.168756 0.822239 -0.938945
C49   C     C_3   0.449743 0.831651 0.133761 -0.339848
C50   C     C_3   0.500490 0.765473 0.228674 -0.285702
C51   C     C_3   0.459322 0.670721 0.244454 -0.910550
C52   C     C_3   0.445711 0.167066 0.866045 -0.326045
C53   C     C_3   0.496412 0.234590 0.773590 -0.287107
C54   C     C_3   0.454606 0.329323 0.760941 -0.906827
C55   C     C_3   0.555413 0.162856 0.113946 -0.349064
C56   C     C_R   0.380585 0.117432 0.498680 0.753468
C57   C     C_3   0.505193 0.232778 0.195891 -0.288305
C58   C     C_3   0.536839 0.331633 0.174469 -0.912915
C59   C     C_3   0.553188 0.834909 0.882608 -0.357289
C60   C     C_3   0.498998 0.769911 0.798273 -0.282391
C61   C     C_3   0.520428 0.667901 0.824209 -0.924144
C62   C     C_R   0.379833 0.883509 0.501438 0.755460
C63   C     C_R   0.618466 0.118874 0.499408 0.752880
C64   C     C_R   0.994447 0.418850 0.076319 0.143495
Cu1   Cu    Cu3+1 1.000000 0.500000 0.640660 0.920204
Cu2   Cu    Cu3+1 1.000000 0.500000 0.359340 0.919985
Cu3   Cu    Cu3+1 0.500000 1.000000 0.640660 0.920022
Cu4   Cu    Cu3+1 0.500000 1.000000 0.359340 0.920927
H1    H     H_    0.784994 0.335299 0.286611 0.134112
H2    H     H_    0.697892 0.183644 0.722245 0.144392
H3    H     H_    0.686382 0.214843 0.282867 0.144735
H4    H     H_    0.314822 0.787917 0.721804 0.133878
H5    H     H_    0.670270 0.766130 0.710133 0.149967
H6    H     H_    0.334479 0.236591 0.292314 0.130830
H7    H     H_    0.265669 0.137518 0.696196 0.135925
H8    H     H_    0.710699 0.832594 0.282866 0.147003
H9    H     H_    0.943271 0.146148 0.218402 0.262205
H10   H     H_    0.038735 0.144773 0.119515 0.260435
H11   H     H_    0.042340 0.128935 0.301461 0.254682
H12   H     H_    0.208082 0.671092 0.718759 0.146734
H13   H     H_    0.084951 0.288455 0.209181 0.219326
H14   H     H_    0.004542 0.282655 0.339022 0.239992
H15   H     H_    0.900043 0.339297 0.183518 0.189543
H16   H     H_    0.939829 0.283183 0.054490 0.183069
H17   H     H_    0.895235 0.823331 0.711961 0.268149
H18   H     H_    0.953018 0.862151 0.857048 0.253954
H19   H     H_    0.996137 0.874944 0.687996 0.249978
H20   H     H_    0.063313 0.742140 0.809875 0.197450
H21   H     H_    0.002519 0.709517 0.667327 0.252736
H22   H     H_    0.887727 0.650388 0.823139 0.194549
H23   H     H_    0.174074 0.729230 0.287527 0.148788
H24   H     H_    0.926689 0.709857 0.951351 0.171514
H25   H     H_    0.088565 0.844311 0.206650 0.257382
H26   H     H_    0.015611 0.853420 0.067635 0.259694
H27   H     H_    0.982642 0.876634 0.238519 0.251852
H28   H     H_    0.933305 0.724263 0.172321 0.197915
H29   H     H_    0.004514 0.715444 0.311393 0.242188
H30   H     H_    0.109846 0.640662 0.164866 0.193053
H31   H     H_    0.077790 0.704615 0.028089 0.170079
H32   H     H_    0.070001 0.149455 0.829688 0.256293
H33   H     H_    0.971140 0.147378 0.917928 0.259437
H34   H     H_    0.804406 0.300768 0.724364 0.134922
H35   H     H_    0.974860 0.130201 0.738189 0.255067
H36   H     H_    0.927144 0.289851 0.816480 0.210688
H37   H     H_    0.003295 0.284769 0.683430 0.239056
H38   H     H_    0.109442 0.351996 0.830107 0.193243
H39   H     H_    0.074874 0.289330 0.965365 0.183329
H40   H     H_    0.396433 0.677619 0.289359 0.267990
H41   H     H_    0.453761 0.637517 0.144736 0.252819
H42   H     H_    0.497178 0.625185 0.313700 0.250165
H43   H     H_    0.564703 0.756894 0.190617 0.198724
H44   H     H_    0.503781 0.790604 0.332713 0.253422
H45   H     H_    0.155437 0.249624 0.697963 0.151315
H46   H     H_    0.389390 0.849864 0.175892 0.195044
H47   H     H_    0.428651 0.790000 0.048050 0.172986
H48   H     H_    0.391500 0.322828 0.716558 0.268835
H49   H     H_    0.449618 0.360848 0.862240 0.254770
H50   H     H_    0.491855 0.375889 0.692679 0.249230
H51   H     H_    0.560237 0.243306 0.812801 0.194466
H52   H     H_    0.501208 0.210547 0.668890 0.249881
H53   H     H_    0.385363 0.148822 0.822436 0.195623
H54   H     H_    0.423376 0.207579 0.951870 0.166233
H55   H     H_    0.602350 0.337346 0.207325 0.259589
H56   H     H_    0.817324 0.715289 0.279384 0.133980
H57   H     H_    0.532101 0.353955 0.065249 0.259360
H58   H     H_    0.498660 0.379018 0.235437 0.249259
H59   H     H_    0.439938 0.232048 0.163127 0.192960
H60   H     H_    0.506531 0.215811 0.306508 0.241316
H61   H     H_    0.611753 0.136308 0.163135 0.193256
H62   H     H_    0.582638 0.200104 0.024339 0.165828
H63   H     H_    0.585623 0.653298 0.796217 0.256804
H64   H     H_    0.511342 0.647766 0.933167 0.260100
H65   H     H_    0.479179 0.624758 0.761840 0.252115
H66   H     H_    0.433154 0.779404 0.824835 0.200121
H67   H     H_    0.774033 0.649222 0.705559 0.136002
H68   H     H_    0.505653 0.784452 0.687586 0.241315
H69   H     H_    0.610998 0.858236 0.834478 0.193115
H70   H     H_    0.578548 0.794289 0.970948 0.170901
H71   H     H_    0.226722 0.352702 0.296766 0.143460
H72   H     H_    0.276431 0.846881 0.292208 0.136713
N1    N     N_R   0.000000 0.500000 0.852070 -0.188811
N2    N     N_R   0.000000 0.500000 0.147930 -0.188732
N3    N     N_R   0.500000 1.000000 0.852070 -0.189565
N4    N     N_R   0.500000 1.000000 0.147930 -0.190668
O1    O     O_R   0.090170 0.409820 0.618740 -0.586800
O2    O     O_R   0.409830 0.090180 0.381260 -0.585154
O3    O     O_R   0.409830 0.090180 0.618740 -0.590950
O4    O     O_R   0.590170 0.909820 0.381260 -0.590749
O5    O     O_R   0.409830 0.909820 0.381260 -0.589800
O6    O     O_R   0.590170 0.090180 0.618740 -0.589499
O7    O     O_R   0.590170 0.090180 0.381260 -0.590099
O8    O     O_R   0.409830 0.909820 0.618740 -0.590494
O9    O     O_R   0.909830 0.590180 0.381260 -0.588152
O10   O     O_R   0.909830 0.590180 0.618740 -0.590697
O11   O     O_R   0.090170 0.409820 0.381260 -0.590521
O12   O     O_R   0.909830 0.409820 0.381260 -0.590973
O13   O     O_R   0.090170 0.590180 0.618740 -0.589126
O14   O     O_R   0.090170 0.590180 0.381260 -0.589269
O15   O     O_R   0.909830 0.409820 0.618740 -0.592787
O16   O     O_R   0.590170 0.909820 0.618740 -0.588135

loop_
_geom_bond_atom_site_label_1
_geom_bond_atom_site_label_2
_ccdc_geom_bond_type
C10   C27   A    
C3    C42   S    
C62   O5    A    
C12   C29   S    
C45   O4    A    
C1    O1    A    
C7    C55   S    
C12   O9    A    
Cu1   O15   S    
C19   C31   A    
C57   H60   S    
C53   H52   S    
C61   H65   S    
C11   C18   A    
C4    C46   S    
C53   C54   S    
C22   C35   A    
C3    N2    A    
C58   H55   S    
C37   C38   S    
C62   O8    A    
C36   C37   S    
C9    H1    S    
C42   H30   S    
C8    C59   S    
Cu2   O11   S    
C38   H11   S    
C59   H69   S    
C36   H15   S    
C1    O11   A    
C1    C30   S    
C44   H25   S    
C61   H64   S    
C52   H54   S    
C2    C39   S    
C51   H40   S    
C47   H37   S    
C23   O15   A    
C26   H8    S    
C20   H3    S    
Cu3   O16   S    
Cu4   O5    S    
C40   H21   S    
C60   H68   S    
C39   H22   S    
Cu4   O4    S    
C33   C56   S    
C49   H46   S    
Cu3   N3    S    
C59   C60   S    
C51   H41   S    
C23   O12   A    
Cu3   O6    S    
C17   C30   A    
C37   H13   S    
C27   C34   S    
C45   O16   A    
C14   C30   A    
C48   H32   S    
C7    N4    A    
C15   C29   A    
C10   C21   A    
C41   H19   S    
C21   C32   A    
C17   C24   A    
C15   H56   S    
C13   C19   A    
C21   H4    S    
Cu3   Cu4   S    
C31   C63   S    
Cu1   O13   S    
C4    N1    A    
C10   H12   S    
C15   C26   A    
C38   H10   S    
C59   H70   S    
C55   H61   S    
C16   C29   A    
C48   H35   S    
C54   H48   S    
C60   C61   S    
C25   H7    S    
C43   C44   S    
C63   O6    A    
Cu1   O10   S    
C41   H18   S    
C5    C8    A    
Cu1   N1    S    
C52   H53   S    
C9    C20   A    
C47   C48   S    
C11   C27   A    
C55   H62   S    
C46   H39   S    
C50   H44   S    
C50   C51   S    
C13   C28   A    
C23   C28   S    
C18   H72   S    
C63   O7    A    
C34   O14   A    
C40   C41   S    
C49   H47   S    
C58   H58   S    
C51   H42   S    
C54   H50   S    
Cu3   O3    S    
C37   H14   S    
C18   C32   A    
C42   C43   S    
Cu1   O1    S    
C35   C45   S    
C60   H66   S    
C39   H24   S    
Cu2   O14   S    
Cu4   O2    S    
C52   C53   S    
C2    N1    A    
C46   C47   S    
C16   C22   A    
C47   H36   S    
Cu3   O8    S    
C43   H29   S    
C12   O10   A    
C5    N4    A    
C57   H59   S    
Cu2   O9    S    
C53   H51   S    
C6    C7    A    
Cu2   N2    S    
C38   H9    S    
C14   H45   S    
C41   H17   S    
C4    C64   A    
C24   C33   A    
C40   H20   S    
C56   O3    A    
C55   C57   S    
C2    C3    A    
C13   H34   S    
C32   C62   S    
Cu4   O7    S    
C42   H31   S    
Cu2   O12   S    
C24   H6    S    
C57   C58   S    
C64   N2    A    
C36   H16   S    
C48   H33   S    
C46   H38   S    
C50   H43   S    
Cu4   N4    S    
C8    N3    A    
Cu1   Cu2   S    
C14   C25   A    
C56   O2    A    
C5    C49   S    
C44   H26   S    
C61   H63   S    
C39   C40   S    
C34   O13   A    
C11   H23   S    
C26   C35   A    
C58   H57   S    
C49   C50   S    
C54   H49   S    
C44   H27   S    
C43   H28   S    
C19   H2    S    
C17   H71   S    
C22   H5    S    
C6    C52   S    
C6    N3    A    
C36   C64   S    
C16   H67   S    
C9    C28   A    
C25   C33   A    
C20   C31   A    
