data_mof_unit_43122.cif
_audit_creation_date              2013-03-05T16:10:46-0500
_audit_creation_method            fapswitch 2.2
_symmetry_space_group_name_H-M    P1
_symmetry_Int_Tables_number       1
_space_group_crystal_system       triclinic
_cell_length_a                    22.412257
_cell_length_b                    7.086305
_cell_length_c                    19.444186
_cell_angle_alpha                 89.742847
_cell_angle_beta                  99.462968
_cell_angle_gamma                 90.020524
_cell_volume                      3046.0734242

loop_
_atom_site_label
_atom_site_type_symbol
_atom_site_description
_atom_site_fract_x
_atom_site_fract_y
_atom_site_fract_z
_atom_type_partial_charge
O1    O     O_R   0.443980 0.494320 0.557430 -0.583234
O2    O     O_R   0.556020 0.994320 0.442570 -0.574111
O3    O     O_R   0.441210 0.822520 0.414610 -0.594528
O4    O     O_R   0.558790 0.322520 0.585390 -0.605642
C1    C     C_R   0.426604 0.655883 0.388969 1.032912
C2    C     C_R   0.573563 0.154771 0.610846 1.031198
O5    O     O_R   0.436920 0.823940 0.555180 -0.568186
O6    O     O_R   0.563080 0.323940 0.444820 -0.574070
O7    O     O_R   0.551700 0.995760 0.584140 -0.576410
O8    O     O_R   0.448300 0.495760 0.415860 -0.594294
C3    C     C_R   0.421553 0.654986 0.574813 0.950637
C4    C     C_R   0.578343 0.155596 0.425077 0.944840
O9    O     O_3   0.537660 0.661290 0.509340 -0.269556
O10   O     O_3   0.462340 0.161290 0.490660 -0.276301
V1    V     V_3+5 0.493010 0.935560 0.498270 1.250071
V2    V     V_3+5 0.506990 0.435560 0.501730 1.233483
C5    C     C_R   0.743962 0.963771 0.197293 0.241012
C6    C     C_R   0.249814 0.457620 0.796784 0.254798
C7    C     C_R   0.790399 0.101128 0.200721 -0.228859
C8    C     C_R   0.202942 0.593163 0.790941 -0.232279
C9    C     C_R   0.793263 0.248465 0.250297 0.357706
C10   C     C_R   0.200309 0.738292 0.739939 0.356788
C11   C     C_R   0.750929 0.253502 0.296419 -0.202586
C12   C     C_R   0.245508 0.747172 0.697385 -0.226506
H1    H     H_    0.752876 0.366912 0.333938 0.207077
H2    H     H_    0.244252 0.859140 0.659024 0.212866
C13   C     C_R   0.705259 0.117750 0.293890 -0.105373
C14   C     C_R   0.291573 0.611947 0.702201 -0.097366
C15   C     C_R   0.701435 0.972133 0.244001 0.224168
C16   C     C_R   0.293324 0.463661 0.751382 0.226137
C17   C     C_1   0.836854 0.083935 0.156198 0.263394
C18   C     C_1   0.158978 0.582768 0.838712 0.261371
C19   C     C_1   0.660962 0.134589 0.340929 0.210740
C20   C     C_1   0.337356 0.629993 0.656976 0.215108
C21   C     C_1   0.623627 0.146160 0.379621 -0.219202
C22   C     C_1   0.375585 0.643553 0.619423 -0.217764
C23   C     C_1   0.875525 0.071779 0.119227 -0.207876
C24   C     C_1   0.122223 0.572708 0.878115 -0.226253
C25   C     C_R   0.629071 0.084306 0.802323 -0.274203
C26   C     C_R   0.369209 0.686627 0.195999 -0.283239
H3    H     H_    0.707628 0.010396 0.914556 0.188666
H4    H     H_    0.290506 0.639360 0.081110 0.181731
H5    H     H_    0.609516 0.066576 0.849381 0.168231
H6    H     H_    0.388013 0.703708 0.148417 0.167282
C27   C     C_R   0.614818 0.141961 0.678133 -0.319559
C28   C     C_R   0.385385 0.651974 0.321485 -0.309813
C29   C     C_R   0.910181 0.103364 0.762308 0.518801
C30   C     C_R   0.090759 0.563811 0.238630 0.514876
C31   C     C_R   0.874688 0.090468 0.696555 -0.309748
C32   C     C_R   0.125520 0.609120 0.302532 -0.306536
C33   C     C_R   0.812082 0.064764 0.688552 0.313282
C34   C     C_R   0.187024 0.651828 0.308266 0.315705
C35   C     C_R   0.782475 0.071126 0.748112 -0.099245
C36   C     C_R   0.217079 0.627133 0.249677 -0.099453
C37   C     C_R   0.819540 0.054250 0.815763 -0.150749
C38   C     C_R   0.180566 0.594654 0.182604 -0.147084
C39   C     C_R   0.717806 0.089896 0.743268 0.153590
C40   C     C_R   0.281817 0.637644 0.254834 0.152574
C41   C     C_R   0.691791 0.068781 0.804588 0.030700
C42   C     C_R   0.306974 0.655682 0.192964 0.034520
C43   C     C_R   0.728106 0.030813 0.868254 -0.310823
C44   C     C_R   0.270562 0.633677 0.128264 -0.313179
C45   C     C_R   0.790823 0.016772 0.874268 0.569232
C46   C     C_R   0.209485 0.586357 0.122956 0.584046
C47   C     C_R   0.677900 0.136898 0.680647 -0.207375
C48   C     C_R   0.322940 0.621930 0.318690 -0.203693
C49   C     C_R   0.590638 0.121217 0.739690 0.586082
C50   C     C_R   0.408041 0.693678 0.260119 0.583437
C51   C     C_R   0.883961 0.072310 0.822131 -0.353324
C52   C     C_R   0.116492 0.571034 0.177611 -0.355906
H7    H     H_    0.694273 0.172898 0.633220 0.171494
H8    H     H_    0.307719 0.582786 0.366635 0.166483
H9    H     H_    0.896926 0.089170 0.651130 0.203640
H10   H     H_    0.103113 0.623415 0.347540 0.202644
O11   O     O_R   0.051730 0.724670 0.084120 -0.593579
O12   O     O_R   0.948270 0.224670 0.915880 -0.610614
O13   O     O_R   0.063080 0.393540 0.944820 -0.592255
O14   O     O_R   0.936920 0.893540 0.055180 -0.580890
C53   C     C_R   0.077609 0.562359 0.924256 1.004459
C54   C     C_R   0.921837 0.061947 0.075142 0.995026
O15   O     O_R   0.058800 0.395030 0.085390 -0.605038
O16   O     O_R   0.941200 0.895030 0.914610 -0.590609
O17   O     O_R   0.943980 0.223310 0.057440 -0.582266
O18   O     O_R   0.056020 0.723310 0.942560 -0.567311
C55   C     C_R   0.073989 0.563325 0.110465 1.147463
C56   C     C_R   0.925960 0.063973 0.889608 1.141037
O19   O     O_3   0.962360 0.556290 0.990650 -0.302806
O20   O     O_3   0.037640 0.056290 0.009350 -0.289425
V3    V     V_3+5 0.006980 0.281990 0.001730 1.198246
V4    V     V_3+5 0.993020 0.781990 0.998270 1.218632
N1    N     N_R   0.653329 0.836174 0.239096 0.251874
O21   O     O_R   0.642638 0.746960 0.294432 -0.377007
O22   O     O_R   0.619531 0.802733 0.179330 -0.333443
N2    N     N_R   0.337544 0.315685 0.753503 0.237216
O23   O     O_R   0.346959 0.236015 0.696069 -0.396368
O24   O     O_R   0.366833 0.254370 0.812700 -0.338341
N3    N     N_R   0.781809 0.002891 0.621595 0.230963
O25   O     O_R   0.747614 0.853456 0.617180 -0.387112
O26   O     O_R   0.796052 0.075227 0.564820 -0.371930
N4    N     N_R   0.215253 0.744552 0.370768 0.229871
O27   O     O_R   0.203532 0.690065 0.431152 -0.375533
O28   O     O_R   0.244092 0.902555 0.366513 -0.393482
O29   O     O_3   0.823372 0.964336 0.938130 -0.667780
C57   C     C_3   0.815735 0.768054 0.947051 -0.047782
H11   H     H_    0.833333 0.686458 0.905845 0.104650
H12   H     H_    0.767679 0.730332 0.947881 0.143562
H13   H     H_    0.841617 0.724009 0.998064 0.194780
O30   O     O_3   0.178754 0.531493 0.058655 -0.673117
C58   C     C_3   0.195203 0.343191 0.046891 -0.134377
H14   H     H_    0.181323 0.245979 0.086550 0.125717
H15   H     H_    0.244523 0.329065 0.046046 0.162219
H16   H     H_    0.171691 0.297692 0.995064 0.195692
N5    N     N_R   0.740621 0.813224 0.147415 0.274219
O31   O     O_R   0.733223 0.639627 0.166411 -0.318222
O32   O     O_R   0.743282 0.849678 0.082341 -0.394723
N6    N     N_R   0.252582 0.311343 0.848369 0.262903
O33   O     O_R   0.211064 0.181451 0.842231 -0.364439
O34   O     O_R   0.288913 0.329593 0.907415 -0.362569
N7    N     N_R   0.838561 0.394386 0.254652 0.245713
O35   O     O_R   0.856047 0.481525 0.313287 -0.364541
O36   O     O_R   0.857420 0.456109 0.198850 -0.376466
N8    N     N_R   0.152613 0.877611 0.730319 0.268361
O37   O     O_R   0.160189 0.037317 0.699549 -0.346575
O38   O     O_R   0.099427 0.839516 0.745362 -0.371007
O39   O     O_3   0.528891 0.130669 0.738370 -0.619991
C59   C     C_3   0.514285 0.317073 0.754578 -0.089043
H17   H     H_    0.464525 0.329132 0.749526 0.219892
H18   H     H_    0.529087 0.421255 0.717755 0.100003
H19   H     H_    0.534043 0.352828 0.809266 0.134701
O40   O     O_3   0.469341 0.723878 0.262564 -0.611659
C60   C     C_3   0.478792 0.917135 0.250391 -0.058565
H20   H     H_    0.528161 0.944339 0.258460 0.193344
H21   H     H_    0.459262 0.008053 0.287691 0.095810
H22   H     H_    0.460094 0.957437 0.195752 0.129821
O41   O     O_3   0.972416 0.117461 0.768023 -0.602357
C61   C     C_3   0.987364 0.305026 0.753320 -0.036178
H23   H     H_    0.969738 0.406595 0.788689 0.090686
H24   H     H_    0.970614 0.342536 0.697900 0.136973
H25   H     H_    0.037364 0.318522 0.762171 0.183048
O42   O     O_3   0.029274 0.534788 0.234730 -0.611703
C62   C     C_3   0.020127 0.345475 0.253080 -0.067456
H26   H     H_    0.040214 0.316478 0.308347 0.139750
H27   H     H_    0.038612 0.245728 0.217765 0.097921
H28   H     H_    0.970832 0.319008 0.247588 0.195011

loop_
_geom_bond_atom_site_label_1
_geom_bond_atom_site_label_2
_geom_bond_distance
_ccdc_geom_bond_type
C33   N3    1.435983 S    
C59   H17   1.106656 S    
C26   C42   1.403552 A    
C2    C27   1.475182 S    
C13   C15   1.412347 A    
C5    C15   1.421959 A    
O30   C58   1.414065 S    
C35   C37   1.440168 A    
O1    C3    1.312574 A    
H3    C43   1.084802 S    
C60   H22   1.112143 S    
C7    C17   1.464841 S    
C2    O7    1.304076 A    
C57   H12   1.112310 S    
N3    O25   1.301795 A    
C5    N5    1.438616 S    
O41   C61   1.410095 S    
C29   C31   1.393665 A    
O14   V4    1.973898 S    
O5    C3    1.317803 A    
O13   V3    1.969556 S    
C30   C52   1.402641 A    
C3    C22   1.453793 S    
C7    C9    1.418467 A    
C12   H2    1.083745 S    
C28   C48   1.407781 A    
C32   H10   1.083350 S    
C8    C18   1.462688 S    
C53   O18   1.312362 A    
O14   C54   1.317833 A    
C39   C41   1.418061 A    
C24   C53   1.450667 S    
C40   C42   1.415300 A    
N6    O33   1.300461 A    
C49   O39   1.381558 S    
C42   C44   1.391770 A    
C43   C45   1.394744 A    
C29   C51   1.403277 A    
C44   C46   1.396589 A    
O11   V4    1.988703 S    
C5    C7    1.418483 A    
O19   V4    1.737819 S    
C40   C48   1.423385 A    
C48   H8    1.079151 S    
C14   C16   1.413810 A    
C31   C33   1.398011 A    
C37   C45   1.420137 A    
C27   C49   1.399849 A    
C32   C34   1.397703 A    
C38   C46   1.420024 A    
C46   O30   1.381938 S    
C6    C16   1.419441 A    
C11   C13   1.399525 A    
H4    C44   1.084658 S    
C20   C22   1.217197 T    
O12   V3    1.991566 S    
O15   V3    2.006607 S    
O5    V1    1.969591 S    
O2    C4    1.313079 A    
O6    V2    1.973935 S    
O18   V4    1.961472 S    
C54   O17   1.313200 A    
C57   H11   1.113583 S    
N3    O26   1.301547 A    
C34   C36   1.427013 A    
C10   N8    1.444209 S    
N7    O36   1.301410 A    
O17   V3    1.959191 S    
C23   C54   1.452640 S    
C36   C38   1.440540 A    
C41   C43   1.390379 A    
C30   O42   1.382959 S    
O42   C62   1.410172 S    
C61   H24   1.112325 S    
C58   H16   1.106947 S    
C6    N6    1.433401 S    
N1    O21   1.301298 A    
C35   C39   1.443052 A    
C25   H5    1.084385 S    
C59   H19   1.112889 S    
O3    C1    1.304395 A    
O16   C56   1.314046 A    
C34   N4    1.436330 S    
C13   C19   1.461535 S    
C17   C23   1.216904 T    
C33   C35   1.427128 A    
C61   H25   1.109571 S    
O4    V2    2.000904 S    
N2    O24   1.300705 A    
C28   C50   1.401747 A    
N1    O22   1.301270 A    
O6    C4    1.317225 A    
C25   C41   1.403463 A    
N4    O28   1.301718 A    
O13   C53   1.317310 A    
O1    V2    1.961645 S    
C4    C21   1.453021 S    
C50   O40   1.383472 S    
O2    V1    1.959364 S    
C37   C51   1.434398 A    
C45   O29   1.382153 S    
O20   V4    2.180886 S    
C18   C24   1.215586 T    
C9    C11   1.409220 A    
C27   C47   1.407051 A    
O39   C59   1.410411 S    
C10   C12   1.410632 A    
C62   H28   1.108355 S    
O4    C2    1.307206 A    
C8    C10   1.419941 A    
N8    O38   1.301158 A    
C60   H20   1.108640 S    
O12   C56   1.314745 A    
C15   N1    1.437363 S    
O3    V1    2.006409 S    
O11   C55   1.315162 A    
N5    O31   1.301205 A    
C36   C40   1.439775 A    
C59   H18   1.113967 S    
C29   O41   1.384538 S    
C25   C49   1.394964 A    
C12   C14   1.400368 A    
C39   C47   1.425465 A    
C61   H23   1.114021 S    
C60   H21   1.114218 S    
N7    O35   1.301515 A    
C1    C28   1.475719 S    
C38   C52   1.433124 A    
O16   V4    2.001104 S    
C62   H27   1.113943 S    
O40   C60   1.410577 S    
O7    V1    1.995950 S    
C1    O8    1.307210 A    
C9    N7    1.441821 S    
C47   H7    1.076682 S    
C62   H26   1.112960 S    
C31   H9    1.083278 S    
C58   H15   1.112743 S    
C30   C32   1.392485 A    
N4    O27   1.301510 A    
C19   C21   1.216746 T    
N6    O34   1.300670 A    
C6    C8    1.414035 A    
C11   H1    1.083862 S    
N2    O23   1.301401 A    
C14   C20   1.462227 S    
C26   H6    1.084159 S    
O20   V3    1.737048 S    
C16   N2    1.438893 S    
C26   C50   1.399319 A    
O9    V2    1.738094 S    
O29   C57   1.414726 S    
O19   V3    2.179800 S    
O10   V1    1.737326 S    
O8    V2    1.992948 S    
N8    O37   1.301837 A    
C58   H14   1.113519 S    
C52   C55   1.485458 S    
C57   H13   1.107224 S    
O15   C55   1.313864 A    
C51   C56   1.484659 S    
N5    O32   1.301224 A    
