data_mof_unit_29897.cif
_audit_creation_date              2012-10-26T19:42:14-0400
_audit_creation_method            fapswitch 2.2
_symmetry_space_group_name_H-M    P1
_symmetry_Int_Tables_number       1
_space_group_crystal_system       triclinic
_cell_length_a                    9.603021
_cell_length_b                    10.777638
_cell_length_c                    17.353514
_cell_angle_alpha                 92.627264
_cell_angle_beta                  86.04692
_cell_angle_gamma                 90.021585
_cell_volume                      1789.88851265

loop_
_atom_site_label
_atom_site_type_symbol
_atom_type_description
_atom_site_fract_x
_atom_site_fract_y
_atom_site_fract_z
_atom_type_partial_charge
C1    C     C_R   0.499628 0.737423 0.502787 0.543986
C2    C     C_R   0.527555 0.500983 0.265647 0.022201
C3    C     C_R   0.336398 0.880069 0.625277 -0.131936
C4    C     C_R   0.481826 0.497409 0.649608 0.527371
C5    C     C_R   0.257074 0.949308 0.682233 -0.096192
C6    C     C_R   0.257012 0.078423 0.682135 0.106881
C7    C     C_R   0.336398 0.138896 0.624997 -0.078365
C8    C     C_R   0.415611 0.070584 0.565739 0.008182
C9    C     C_R   0.415629 0.939356 0.565886 0.022011
C10   C     C_R   0.499098 0.871647 0.508075 0.014349
C11   C     C_R   0.585224 0.932526 0.453915 -0.126291
C12   C     C_R   0.344648 0.500461 0.776687 -0.110291
C13   C     C_R   0.585175 0.060502 0.453759 -0.128947
C14   C     C_R   0.499023 0.129536 0.507774 0.017116
C15   C     C_R   0.868763 0.335084 0.397054 -0.158025
C16   C     C_R   0.499685 0.262914 0.502323 0.525288
C17   C     C_R   0.947083 0.254443 0.346677 -0.134878
C18   C     C_R   0.090629 0.254254 0.346681 0.376296
C19   C     C_R   0.156650 0.334777 0.397110 -0.012075
C20   C     C_R   0.081035 0.418821 0.449421 0.116485
C21   C     C_R   0.931501 0.418922 0.449413 0.148149
C22   C     C_R   0.920165 0.577055 0.548221 0.013654
C23   C     C_R   0.418154 0.522770 0.145474 -0.048562
C24   C     C_R   0.068034 0.577019 0.548207 0.019961
C25   C     C_R   0.518091 0.500598 0.350201 0.562738
C26   C     C_R   0.472681 0.485127 0.733259 0.013052
C27   C     C_R   0.592349 0.453042 0.769931 -0.118199
C28   C     C_R   0.585047 0.439224 0.849130 -0.095447
C29   C     C_R   0.458219 0.459266 0.893067 0.047818
C30   C     C_R   0.337550 0.487193 0.856277 -0.084457
C31   C     C_R   0.408734 0.525637 0.225640 0.393730
C32   C     C_R   0.655797 0.476147 0.223932 -0.178294
C33   C     C_R   0.664574 0.473195 0.143502 -0.121723
C34   C     C_R   0.545339 0.493980 0.103911 -0.015176
C35   C     C_2   0.449589 0.454757 0.977517 -0.120760
C36   C     C_2   0.556959 0.488838 0.019194 -0.124441
Cu1   Cu    Cu3+1 0.359340 0.500010 0.500010 0.975824
Cu2   Cu    Cu3+1 0.640660 0.499990 0.499990 0.941320
F1    F     F_    0.283639 0.554374 0.263501 -0.608822
F2    F     F_    0.167065 0.175341 0.297415 -0.608915
H1    H     H_    0.691670 0.437467 0.737414 0.143436
H2    H     H_    0.895555 0.191596 0.307355 0.148802
H3    H     H_    0.267002 0.326983 0.392452 0.199823
H4    H     H_    0.118312 0.640190 0.587748 0.106549
H5    H     H_    0.748968 0.457564 0.253301 0.151972
H6    H     H_    0.656524 0.514427 0.990952 0.127758
H7    H     H_    0.238597 0.501556 0.889405 0.121560
H8    H     H_    0.325982 0.545178 0.116333 0.138036
H9    H     H_    0.250589 0.523710 0.749386 0.134364
H10   H     H_    0.350101 0.429244 0.005910 0.132841
H11   H     H_    0.678615 0.412313 0.875541 0.120796
H12   H     H_    0.763949 0.452726 0.112108 0.138636
H13   H     H_    0.650466 0.880440 0.410338 0.142920
H14   H     H_    0.336852 0.780314 0.629436 0.126318
H15   H     H_    0.197016 0.902322 0.727197 0.137459
H16   H     H_    0.337014 0.239175 0.628779 0.160652
H17   H     H_    0.650364 0.105927 0.410062 0.117936
H18   H     H_    0.860137 0.640265 0.587766 0.118117
H19   H     H_    0.759601 0.327466 0.392242 0.184198
I1    I     I_    0.139594 0.183032 0.769544 -0.415772
N1    N     N_R   0.852190 0.498790 0.499250 -0.232211
N2    N     N_R   0.148060 0.498710 0.499220 -0.238391
O1    O     O_R   0.381190 0.680360 0.500010 -0.490589
O2    O     O_R   0.618760 0.680340 0.500000 -0.500686
O3    O     O_R   0.367440 0.500030 0.613600 -0.524183
O4    O     O_R   0.605010 0.500010 0.613590 -0.507479
O5    O     O_R   0.381240 0.319660 0.500000 -0.537257
O6    O     O_R   0.618810 0.319640 0.499990 -0.517712
O7    O     O_R   0.394990 0.499990 0.386410 -0.446764
O8    O     O_R   0.632560 0.499970 0.386400 -0.535743

loop_
_geom_bond_atom_site_label_1
_geom_bond_atom_site_label_2
_ccdc_geom_bond_type
C17   C18   A    
C22   H18   S    
C4    C26   S    
Cu2   O8    S    
C36   H6    S    
C6    C7    A    
C3    C9    A    
Cu1   O7    S    
C9    C10   A    
C27   H1    S    
C34   C36   S    
C19   C20   A    
C11   H13   S    
Cu1   O1    S    
C3    C5    A    
Cu2   N1    S    
C32   C33   A    
C23   C34   A    
C35   H10   S    
C12   H9    S    
C7    C8    A    
C16   O5    A    
C13   C14   A    
C23   H8    S    
C22   N1    A    
C4    O4    A    
C11   C13   A    
C6    I1    S    
C26   C27   A    
C29   C30   A    
C7    H16   S    
C16   O6    A    
C1    O1    A    
C22   C24   A    
Cu1   O3    S    
C28   C29   A    
C28   H11   S    
Cu1   Cu2   S    
C19   H3    S    
C33   C34   A    
C2    C25   S    
Cu2   O2    S    
C20   N2    A    
C5    C6    A    
C24   H4    S    
C3    H14   S    
C14   C16   S    
C13   H17   S    
C10   C11   A    
Cu2   O6    S    
C29   C35   S    
C1    O2    A    
Cu1   O5    S    
C30   H7    S    
C15   C21   A    
C25   O7    A    
C20   C21   A    
C2    C32   A    
C18   C19   A    
C32   H5    S    
C12   C26   A    
C27   C28   A    
C15   C17   A    
Cu1   N2    S    
C4    O3    A    
C8    C9    A    
C18   F2    S    
C25   O8    A    
C8    C14   A    
C12   C30   A    
C17   H2    S    
C24   N2    A    
C15   H19   S    
C5    H15   S    
C21   N1    A    
C1    C10   S    
Cu2   O4    S    
C31   F1    S    
C2    C31   A    
C33   H12   S    
C35   C36   D    
C23   C31   A    
