data_mof_unit_57385.cif
_audit_creation_date              2012-12-10T18:31:50-0500
_audit_creation_method            fapswitch 2.2
_symmetry_space_group_name_H-M    P1
_symmetry_Int_Tables_number       1
_space_group_crystal_system       triclinic
_cell_length_a                    10.760033
_cell_length_b                    14.888438
_cell_length_c                    15.42855
_cell_angle_alpha                 81.440796
_cell_angle_beta                  90.31097
_cell_angle_gamma                 102.998328
_cell_volume                      2380.49118922

loop_
_atom_site_label
_atom_site_type_symbol
_atom_type_description
_atom_site_fract_x
_atom_site_fract_y
_atom_site_fract_z
_atom_type_partial_charge
C1    C     C_R   0.482340 0.441292 0.662163 0.860975
C2    C     C_3   0.122850 0.504915 0.500460 -0.193851
C3    C     C_3   0.060854 0.458614 0.420012 0.165349
C4    C     C_3   0.105713 0.611010 0.490474 -0.140643
C5    C     C_R   0.461892 0.404991 0.755347 -0.137451
C6    C     C_R   0.529745 0.595810 0.245183 -0.090890
C7    C     C_R   0.341277 0.294070 0.872967 -0.008929
C8    C     C_R   0.375428 0.320246 0.783962 -0.222771
C9    C     C_R   0.515284 0.462249 0.816016 0.002597
C10   C     C_R   0.456698 0.448651 0.899271 0.066473
C11   C     C_R   0.382015 0.358715 0.931613 0.084266
C12   C     C_R   0.741913 0.502288 0.495018 0.885672
C13   C     C_R   0.475995 0.520227 0.952536 0.027967
C14   C     C_R   0.450477 0.495459 0.043344 0.004731
C15   C     C_R   0.398201 0.400582 0.077191 -0.190845
C16   C     C_R   0.355835 0.335213 0.021797 -0.200521
C17   C     C_R   0.512832 0.615966 0.916639 0.381657
C18   C     C_R   0.568653 0.681582 0.971261 -0.129883
C19   C     C_R   0.566056 0.653225 0.063435 -0.020675
C20   C     C_R   0.486469 0.564948 0.097965 -0.066446
C21   C     C_R   0.635892 0.708400 0.123612 0.027017
C22   C     C_R   0.621266 0.676226 0.213544 -0.295176
C23   C     C_R   0.518141 0.558685 0.338034 0.938771
C24   C     C_R   0.451985 0.547113 0.187698 0.412141
C25   C     C_R   0.718104 0.844905 0.620714 0.422901
C26   C     C_R   0.669856 0.752638 0.608232 -0.120569
C27   C     C_R   0.519162 0.796682 0.508041 0.011060
C28   C     C_R   0.568621 0.891735 0.511375 -0.138206
C29   C     C_R   0.668433 0.916041 0.570633 0.006837
C30   C     C_R   0.517155 0.962346 0.460954 -0.046611
C31   C     C_R   0.548445 0.052849 0.483493 -0.030477
C32   C     C_R   0.663936 0.078965 0.526750 0.297129
C33   C     C_R   0.718603 0.010774 0.576026 0.358605
C34   C     C_R   0.258802 0.501115 0.499986 0.967501
C35   C     C_R   0.443955 0.948505 0.385219 -0.117611
C36   C     C_R   0.375611 0.014924 0.348397 0.428206
C37   C     C_R   0.389499 0.100176 0.382042 0.005063
C38   C     C_R   0.473651 0.117851 0.452444 -0.157277
C39   C     C_R   0.325915 0.170734 0.345742 -0.091397
C40   C     C_R   0.350334 0.255146 0.377975 -0.165773
C41   C     C_R   0.478740 0.200686 0.489787 0.648128
C42   C     C_3   0.904680 0.436005 0.579534 0.770556
C43   C     C_3   0.053972 0.444854 0.588180 -0.250622
C44   C     C_3   0.922998 0.473606 0.406484 -0.244344
C45   C     C_3   0.959465 0.608622 0.502044 0.293582
C46   C     C_3   0.879530 0.504883 0.494345 -0.188102
H1    H     H_    0.308595 0.265044 0.050569 0.173192
H2    H     H_    0.680851 0.714180 0.259211 0.193335
H3    H     H_    0.335102 0.274706 0.737301 0.190059
H4    H     H_    0.389457 0.374762 0.146547 0.196433
H5    H     H_    0.308603 0.311563 0.347875 0.198783
H6    H     H_    0.710586 0.697150 0.641073 0.179061
H7    H     H_    0.437250 0.772247 0.470354 0.145324
H8    H     H_    0.057093 0.382350 0.436192 0.113309
N1    N     N_R   0.573860 0.731700 0.552730 -0.119773
N2    N     N_R   0.426060 0.268290 0.447230 -0.128037
O1    O     O_R   0.462770 0.383110 0.605620 -0.571632
O2    O     O_R   0.510160 0.531900 0.639510 -0.591405
O3    O     O_R   0.661510 0.425600 0.483070 -0.557340
O4    O     O_R   0.708900 0.574390 0.516960 -0.593308
O5    O     O_R   0.489840 0.468100 0.360490 -0.587355
O6    O     O_R   0.537230 0.616890 0.394380 -0.628655
O7    O     O_R   0.291100 0.425610 0.483040 -0.606355
O8    O     O_R   0.338490 0.574400 0.516930 -0.639162
Zn1   Zn    Zn3+2 0.468350 0.400660 0.477370 1.043440
Zn2   Zn    Zn3+2 0.531650 0.599340 0.522630 0.992057
O9    O     O_3   0.838874 0.343323 0.574605 -0.709425
H9    H     H_    0.883829 0.318000 0.531993 0.324214
C47   C     C_1   0.161016 0.662187 0.403953 0.244773
N3    N     N_1   0.203958 0.702071 0.336740 -0.150900
C48   C     C_1   0.916321 0.542670 0.327780 0.233889
N4    N     N_1   0.910765 0.595506 0.265500 -0.180586
O10   O     O_3   0.137868 0.491152 0.343105 -0.705298
H10   H     H_    0.107391 0.446797 0.301313 0.352409
O11   O     O_3   0.339210 0.487403 0.220530 -0.767444
H11   H     H_    0.276234 0.485556 0.173251 0.341052
C49   C     C_1   0.622495 0.776919 0.931604 0.183664
N5    N     N_1   0.664920 0.852889 0.899115 -0.130716
C50   C     C_1   0.259099 0.203312 0.901067 0.191799
N6    N     N_1   0.193263 0.130623 0.923533 -0.143289
C51   C     C_1   0.640633 0.524074 0.797477 0.260085
N7    N     N_1   0.740702 0.572942 0.783241 -0.148426
O12   O     O_3   0.855775 0.460075 0.655755 -0.684244
H12   H     H_    0.762059 0.434711 0.660111 0.349938
O13   O     O_3   0.488713 0.642295 0.829179 -0.760921
H13   H     H_    0.498952 0.710585 0.815330 0.347722
C52   C     C_1   0.732995 0.792467 0.097375 0.222415
N8    N     N_1   0.811257 0.859750 0.077206 -0.145620
O14   O     O_3   0.821006 0.036036 0.628787 -0.673571
H14   H     H_    0.823247 0.098979 0.643434 0.361449
O15   O     O_3   0.529979 0.214459 0.570087 -0.668959
H15   H     H_    0.515541 0.153010 0.608052 0.315624
O16   O     O_3   0.298438 0.998986 0.277640 -0.755371
H16   H     H_    0.271417 0.931129 0.276017 0.349367
O17   O     O_3   0.814227 0.866090 0.679199 -0.670501
H17   H     H_    0.835652 0.807681 0.708343 0.332132
C53   C     C_1   0.103059 0.487833 0.666057 0.355697
N9    N     N_1   0.141251 0.520344 0.727379 -0.137865
O18   O     O_3   0.730319 0.170437 0.510559 -0.705929
H18   H     H_    0.822486 0.170790 0.507692 0.334164
C54   C     C_1   0.463180 0.879958 0.331968 0.177013
N10   N     N_1   0.479029 0.825824 0.289027 -0.166329
C55   C     C_1   0.239319 0.162434 0.273879 0.309204
N11   N     N_1   0.169878 0.156313 0.216377 -0.171346
C56   C     C_1   0.084982 0.351433 0.606408 0.134737
N12   N     N_1   0.109019 0.278751 0.620660 -0.166223
C57   C     C_1   0.841443 0.386981 0.382711 0.189900
N13   N     N_1   0.777938 0.319932 0.362783 -0.129075
C58   C     C_1   0.920482 0.682540 0.437198 0.139589
N14   N     N_1   0.890318 0.739987 0.388072 -0.186040
O19   O     O_3   0.932877 0.627717 0.586737 -0.703922
H19   H     H_    0.957936 0.695916 0.588608 0.335304
C59   C     C_1   0.177407 0.667932 0.554122 0.226639
N15   N     N_1   0.232695 0.712681 0.603326 -0.170869

loop_
_geom_bond_atom_site_label_1
_geom_bond_atom_site_label_2
_ccdc_geom_bond_type
C22   H2    S    
C52   N8    T    
C21   C52   S    
O16   H16   S    
O10   H10   S    
O17   H17   S    
C26   N1    A    
O7    Zn1   S    
C53   N9    T    
C7    C8    A    
C49   N5    T    
C7    C11   A    
C54   N10   T    
C30   C35   A    
C1    C5    S    
C28   C29   A    
C19   C21   A    
C26   H6    S    
C42   C46   S    
C30   C31   A    
C3    H8    S    
C45   C58   S    
N2    Zn1   S    
C6    C22   A    
C29   C33   A    
C44   C48   S    
C18   C19   A    
C43   C56   S    
C15   H4    S    
C20   C24   A    
C12   O3    A    
C36   O16   S    
O2    Zn2   S    
C23   O6    A    
O19   H19   S    
C40   N2    A    
C57   N13   T    
C9    C10   A    
C2    C34   S    
O4    Zn2   S    
C21   C22   A    
C1    O2    A    
C16   H1    S    
C4    C47   S    
C44   C46   S    
C51   N7    T    
C4    C45   S    
C31   C38   A    
C25   C29   A    
C3    C44   S    
O6    Zn2   S    
O9    H9    S    
C14   C20   A    
C4    C59   S    
C38   C41   A    
C12   C46   S    
O15   H15   S    
C33   O14   S    
C25   C26   A    
O13   H13   S    
C35   C36   A    
O8    Zn2   S    
C2    C4    S    
O11   H11   S    
C41   N2    A    
C5    C9    A    
C37   C38   A    
C1    O1    A    
C11   C16   A    
O12   H12   S    
C2    C43   S    
C6    C24   A    
C34   O8    A    
C17   C18   A    
C41   O15   S    
C25   O17   S    
C42   O9    S    
C17   O13   S    
C42   C43   S    
C32   O18   S    
C39   C40   A    
N1    Zn2   S    
C7    C50   S    
C59   N15   T    
C44   C57   S    
C36   C37   A    
C31   C32   A    
C42   O12   S    
C43   C53   S    
O1    Zn1   S    
C35   C54   S    
C10   C13   A    
C5    C8    A    
C27   H7    S    
C24   O11   S    
C39   C55   S    
C40   H5    S    
C56   N12   T    
O18   H18   S    
C13   C17   A    
C32   C33   A    
C19   C20   A    
C28   C30   A    
C2    C3    S    
C48   N4    T    
C37   C39   A    
C45   O19   S    
O3    Zn1   S    
C18   C49   S    
C6    C23   S    
C34   O7    A    
C27   N1    A    
O5    Zn1   S    
C47   N3    T    
C3    O10   S    
C10   C11   A    
C50   N6    T    
C12   O4    A    
C45   C46   S    
C23   O5    A    
C58   N14   T    
C55   N11   T    
C14   C15   A    
O14   H14   S    
C13   C14   A    
C8    H3    S    
C15   C16   A    
C9    C51   S    
C27   C28   A    
