data_mof_unit_23675.cif
_audit_creation_date              2013-03-05T16:34:53-0500
_audit_creation_method            fapswitch 2.2
_symmetry_space_group_name_H-M    P1
_symmetry_Int_Tables_number       1
_space_group_crystal_system       triclinic
_cell_length_a                    15.080535
_cell_length_b                    9.253174
_cell_length_c                    7.771753
_cell_angle_alpha                 89.996748
_cell_angle_beta                  89.993877
_cell_angle_gamma                 88.872022
_cell_volume                      1084.28212401

loop_
_atom_site_label
_atom_site_type_symbol
_atom_site_description
_atom_site_fract_x
_atom_site_fract_y
_atom_site_fract_z
_atom_type_partial_charge
O1    O     O_R   0.500000 0.288390 0.642760 -0.568100
O2    O     O_R   0.500000 0.711610 0.357240 -0.603395
O3    O     O_R   0.500000 0.711610 0.642760 -0.567658
O4    O     O_R   0.500000 0.288390 0.357240 -0.603562
C1    C     C_R   0.499495 0.219736 0.500036 0.860429
C2    C     C_R   0.500565 0.780262 0.500033 0.859805
O5    O     O_R   0.370260 0.500000 0.642800 -0.572820
O6    O     O_R   0.629740 0.500000 0.357200 -0.612160
O7    O     O_R   0.629740 0.500000 0.642800 -0.572571
O8    O     O_R   0.370260 0.500000 0.357200 -0.611767
C3    C     C_R   0.328581 0.504755 0.499757 0.917076
C4    C     C_R   0.671417 0.495194 0.499740 0.916589
Cu1   Cu    Cu3+1 0.500000 0.500000 0.669080 1.029770
Cu2   Cu    Cu3+1 0.500000 0.500000 0.330920 0.973881
N1    N     N_1   0.500000 0.500000 0.076820 -0.065927
N2    N     N_1   0.500000 0.500000 0.923180 -0.060038
C5    C     C_R   0.810442 0.628102 0.507321 0.391823
C6    C     C_R   0.189570 0.371751 0.506195 0.391969
C7    C     C_R   0.816125 0.365193 0.477591 0.392812
C8    C     C_R   0.183851 0.634810 0.478656 0.391677
C9    C     C_R   0.767690 0.495461 0.497645 -0.279055
C10   C     C_R   0.232308 0.504467 0.497698 -0.279103
C11   C     C_R   0.909391 0.366997 0.485223 -0.145222
C12   C     C_R   0.090593 0.632838 0.485961 -0.145473
C13   C     C_R   0.903826 0.630382 0.514763 -0.152078
C14   C     C_R   0.096189 0.369396 0.513941 -0.152100
C15   C     C_R   0.953080 0.499121 0.505494 -0.158116
C16   C     C_R   0.046912 0.500644 0.505504 -0.157808
C17   C     C_R   0.960974 0.239748 0.467614 0.484526
C18   C     C_R   0.039009 0.760046 0.468461 0.485619
C19   C     C_R   0.949933 0.760903 0.518322 0.392295
C20   C     C_R   0.050120 0.238856 0.517099 0.391690
C21   C     C_1   0.499845 0.065038 0.500036 -0.168169
C22   C     C_1   0.500226 0.934961 0.500033 -0.169222
O9    O     O_3   0.929145 0.123455 0.377681 -0.453343
C23   C     C_3   0.941986 0.151002 0.200322 -0.288792
H1    H     H_    0.013666 0.158483 0.168587 0.138380
H2    H     H_    0.907119 0.251972 0.157969 0.126511
H3    H     H_    0.913837 0.061313 0.124740 0.148453
O10   O     O_3   0.070572 0.875964 0.377430 -0.454083
C24   C     C_3   0.058130 0.846968 0.200259 -0.292426
H4    H     H_    0.986522 0.838405 0.168178 0.138058
H5    H     H_    0.093587 0.746136 0.159108 0.127740
H6    H     H_    0.086003 0.936436 0.123884 0.148475
O11   O     O_3   0.907652 0.891051 0.552695 -0.462448
C25   C     C_3   0.898396 0.904827 0.732792 -0.168514
H7    H     H_    0.962553 0.886792 0.801199 0.074053
H8    H     H_    0.848500 0.829015 0.783684 0.158999
H9    H     H_    0.874641 0.016330 0.762281 0.179855
O12   O     O_3   0.092483 0.108683 0.550990 -0.462415
C26   C     C_3   0.102094 0.094681 0.730996 -0.166431
H10   H     H_    0.038105 0.112870 0.799965 0.073965
H11   H     H_    0.152200 0.170252 0.781566 0.158489
H12   H     H_    0.125767 0.983067 0.760147 0.180378
O13   O     O_3   0.759738 0.754640 0.507894 -0.550558
C27   C     C_3   0.747018 0.800937 0.336296 -0.216671
H13   H     H_    0.721616 0.714070 0.251756 0.136088
H14   H     H_    0.809411 0.843095 0.281200 0.177183
H15   H     H_    0.696613 0.889743 0.335886 0.176001
O14   O     O_3   0.240291 0.245217 0.505001 -0.550239
C28   C     C_3   0.252644 0.200295 0.332761 -0.217985
H16   H     H_    0.277019 0.288208 0.248483 0.136282
H17   H     H_    0.190326 0.157266 0.278385 0.176562
H18   H     H_    0.303710 0.112477 0.330707 0.174736
O15   O     O_3   0.772619 0.234628 0.469615 -0.543160
C29   C     C_3   0.734226 0.215941 0.304976 -0.216643
H19   H     H_    0.746197 0.304762 0.211048 0.122922
H20   H     H_    0.661926 0.203503 0.319600 0.167018
H21   H     H_    0.760435 0.114302 0.247694 0.177926
O16   O     O_3   0.227293 0.765525 0.472358 -0.543721
C30   C     C_3   0.265988 0.785577 0.308186 -0.213656
H22   H     H_    0.255489 0.696366 0.214003 0.122490
H23   H     H_    0.338064 0.800381 0.323766 0.165538
H24   H     H_    0.238759 0.886445 0.250692 0.179365

loop_
_geom_bond_atom_site_label_1
_geom_bond_atom_site_label_2
_geom_bond_distance
_ccdc_geom_bond_type
C13   C19   1.405681 A    
C30   H24   1.106493 S    
C7    C11   1.408186 A    
O13   C27   1.412662 S    
C14   C20   1.405474 A    
O16   C30   1.416671 S    
O7    C4    1.277469 A    
C11   C15   1.409023 A    
C13   C15   1.413012 A    
C24   H4    1.112657 S    
C5    O13   1.385792 S    
C3    C10   1.452001 S    
C29   H20   1.104492 S    
O9    C23   1.415725 S    
O3    Cu1   1.968708 S    
C27   H15   1.108360 S    
C18   C19   1.397917 A    
O6    C4    1.274066 A    
O3    C2    1.278338 A    
C5    C13   1.410042 A    
C26   H12   1.109456 S    
C23   H2    1.112834 S    
C21   C22   1.203523 T    
C18   O10   1.377499 S    
C30   H22   1.116920 S    
C6    C10   1.399635 A    
Cu1   Cu2   2.628097 S    
C28   H18   1.108596 S    
O5    C3    1.277461 A    
C24   H5    1.113137 S    
C25   H9    1.109436 S    
C8    O16   1.387712 S    
O2    C2    1.278849 A    
C2    C22   1.431370 S    
O1    C1    1.278383 A    
O4    C1    1.278801 A    
C11   C17   1.405054 A    
C6    O14   1.385919 S    
C23   H1    1.112205 S    
C7    C9    1.405744 A    
C8    C10   1.405650 A    
C7    O15   1.387497 S    
C17   C20   1.398201 A    
C12   C18   1.404678 A    
C1    C21   1.431351 S    
C27   H14   1.111393 S    
O4    Cu2   1.968709 S    
C28   H16   1.112447 S    
O2    Cu2   1.968731 S    
C24   H6    1.108138 S    
C25   H8    1.111495 S    
C29   H21   1.106470 S    
O1    Cu1   1.968732 S    
O8    C3    1.274064 A    
C5    C9    1.399598 A    
N1    N2    1.194053 T    
C17   O9    1.377449 S    
C12   C16   1.408875 A    
O5    Cu1   1.967203 S    
C29   H19   1.116559 S    
C27   H13   1.112094 S    
C28   H17   1.111382 S    
O15   C29   1.416495 S    
C19   O11   1.377684 S    
Cu1   N2    1.974802 S    
C15   C16   1.415381 A    
C30   H23   1.104884 S    
O7    Cu1   1.967158 S    
C25   H7    1.113707 S    
O10   C24   1.416047 S    
O6    Cu2   1.967202 S    
Cu2   N1    1.974802 S    
O12   C26   1.412152 S    
O11   C25   1.412118 S    
C14   C16   1.412766 A    
C4    C9    1.451983 S    
C8    C12   1.407992 A    
C23   H3    1.108138 S    
C20   O12   1.377700 S    
C26   H10   1.113703 S    
O8    Cu2   1.967160 S    
O14   C28   1.412904 S    
C26   H11   1.111450 S    
C6    C14   1.410117 A    
