data_mof_unit_25101.cif
_audit_creation_date              2013-03-05T15:47:51-0500
_audit_creation_method            fapswitch 2.2
_symmetry_space_group_name_H-M    P1
_symmetry_Int_Tables_number       1
_space_group_crystal_system       triclinic
_cell_length_a                    10.254001
_cell_length_b                    10.416557
_cell_length_c                    15.766013
_cell_angle_alpha                 91.640789
_cell_angle_beta                  81.449449
_cell_angle_gamma                 93.879793
_cell_volume                      1661.16139086

loop_
_atom_site_label
_atom_site_type_symbol
_atom_site_description
_atom_site_fract_x
_atom_site_fract_y
_atom_site_fract_z
_atom_type_partial_charge
O1    O     O_R   0.431050 0.692470 0.506940 -0.566021
O2    O     O_R   0.651130 0.659650 0.484820 -0.576576
C1    C     C_R   0.553546 0.734950 0.495650 0.783624
O3    O     O_R   0.389910 0.516410 0.633920 -0.602506
O4    O     O_R   0.609990 0.483590 0.611800 -0.544549
C2    C     C_R   0.500242 0.503170 0.661612 0.946040
Zn1   Zn    Zn3+2 0.353060 0.521920 0.514770 1.119889
Zn2   Zn    Zn3+2 0.646940 0.478080 0.485230 1.139790
O5    O     O_R   0.348870 0.340350 0.515180 -0.580983
O6    O     O_R   0.568950 0.307530 0.493060 -0.562309
O7    O     O_R   0.390010 0.516410 0.388200 -0.560207
O8    O     O_R   0.610090 0.483590 0.366080 -0.592761
C3    C     C_R   0.446888 0.265633 0.510785 0.962731
C4    C     C_R   0.499757 0.498059 0.338738 0.847747
C5    C     C_3   0.440159 0.629906 0.964836 0.200555
C6    C     C_3   0.658475 0.517862 0.935548 0.479539
C7    C     C_3   0.649087 0.507034 0.036411 0.165926
H1    H     H_    0.505927 0.706731 0.082166 0.100070
H2    H     H_    0.511263 0.712639 0.945788 0.161901
H3    H     H_    0.684899 0.604264 0.057744 0.177516
C8    C     C_1   0.500005 0.494252 0.250354 -0.106599
C9    C     C_3   0.507726 0.509401 0.917094 -0.205861
C10   C     C_3   0.438704 0.625130 0.063894 -0.028899
C11   C     C_3   0.500665 0.496991 0.084285 -0.203346
C12   C     C_3   0.413942 0.381691 0.051490 0.216429
C13   C     C_3   0.440190 0.377078 0.952668 0.222271
C14   C     C_1   0.500913 0.492820 0.175285 0.129446
C15   C     C_1   0.500837 0.511379 0.825993 0.100882
C16   C     C_1   0.499512 0.508139 0.750701 -0.105232
H4    H     H_    0.511790 0.302117 0.934499 0.151769
H5    H     H_    0.308298 0.400625 0.069626 0.166531
C17   C     C_2   0.577815 0.874335 0.504036 0.274725
C18   C     C_2   0.511115 0.933221 0.572911 0.348407
H6    H     H_    0.344067 0.073730 0.509478 0.186314
C19   C     C_2   0.424684 0.130450 0.532911 -0.450888
C20   C     C_2   0.512976 0.073928 0.573029 0.212766
N1    N     N_2   0.842720 0.448890 0.465540 -0.043029
C21   C     C_2   0.924237 0.492965 0.517861 0.341395
N2    N     N_2   0.157250 0.551040 0.534500 -0.051620
C22   C     C_2   0.070138 0.472282 0.502999 0.304914
O9    O     O_3   0.325167 0.674379 0.937315 -0.618664
C23   C     C_3   0.212238 0.588488 0.944824 0.256422
H7    H     H_    0.204836 0.522041 0.998603 0.183723
H8    H     H_    0.210609 0.534152 0.883337 0.201054
C24   C     C_3   0.090317 0.666425 0.960379 -0.735256
H9    H     H_    0.096593 0.740852 0.910760 0.228748
H10   H     H_    0.999988 0.602399 0.958489 0.277863
H11   H     H_    0.082290 0.715122 0.024249 0.291011
N3    N     N_R   0.308920 0.650136 0.113604 0.240323
O10   O     O_R   0.244666 0.568320 0.168026 -0.372436
O11   O     O_R   0.268325 0.765865 0.114060 -0.375352
O12   O     O_3   0.439804 0.261492 0.083737 -0.679020
C25   C     C_3   0.333976 0.212330 0.144352 0.094212
H12   H     H_    0.246268 0.184935 0.112244 0.168532
H13   H     H_    0.306908 0.284060 0.196649 0.203754
C26   C     C_3   0.375378 0.093140 0.184243 -0.745918
H14   H     H_    0.461174 0.118747 0.218302 0.227773
H15   H     H_    0.292203 0.052079 0.230873 0.251765
H16   H     H_    0.403394 0.019639 0.133562 0.272624
N4    N     N_R   0.611017 0.145813 0.614656 0.228326
O13   O     O_R   0.573986 0.232531 0.672479 -0.413561
O14   O     O_R   0.728306 0.103548 0.610888 -0.283509
O15   O     O_3   0.435641 0.859475 0.637582 -0.600862
C27   C     C_3   0.400011 0.931758 0.713673 0.084665
H17   H     H_    0.326600 0.001944 0.704106 0.171616
H18   H     H_    0.488543 0.982495 0.735553 0.169603
C28   C     C_3   0.338269 0.841059 0.783983 -0.711506
H19   H     H_    0.408923 0.767690 0.791552 0.262286
H20   H     H_    0.315862 0.895607 0.845395 0.213542
H21   H     H_    0.245487 0.792337 0.767475 0.280936
O16   O     O_3   0.664311 0.946776 0.444158 -0.579198
C29   C     C_3   0.659363 0.899530 0.359654 0.075502
H22   H     H_    0.555470 0.877979 0.347697 0.111883
H23   H     H_    0.715360 0.811370 0.347490 0.179472
C30   C     C_3   0.722671 0.001416 0.296469 -0.671929
H24   H     H_    0.827379 0.024035 0.305152 0.292756
H25   H     H_    0.719303 0.965550 0.229727 0.180129
H26   H     H_    0.668299 0.090615 0.307039 0.255665
N5    N     N_R   0.109117 0.350916 0.465931 0.205387
O17   O     O_R   0.047787 0.245140 0.496828 -0.329220
O18   O     O_R   0.182926 0.346801 0.391480 -0.343517
N6    N     N_R   0.872560 0.546861 0.599355 0.197764
O19   O     O_R   0.909628 0.503813 0.668046 -0.383853
O20   O     O_R   0.818886 0.656840 0.603165 -0.372347
N7    N     N_R   0.124028 0.677403 0.552580 0.291676
O21   O     O_R   0.170953 0.740190 0.614924 -0.330230
O22   O     O_R   0.073966 0.741511 0.496798 -0.334726
N8    N     N_R   0.896301 0.417070 0.381772 0.291945
O23   O     O_R   0.838374 0.324119 0.341640 -0.349487
O24   O     O_R   0.980393 0.497595 0.337187 -0.327189
N9    N     N_R   0.739806 0.416369 0.891070 0.204817
O25   O     O_R   0.864170 0.417257 0.899490 -0.352950
O26   O     O_R   0.698881 0.342147 0.831273 -0.381098
O27   O     O_3   0.725945 0.641027 0.915318 -0.673758
C31   C     C_3   0.745718 0.672764 0.827473 0.144369
H27   H     H_    0.664132 0.730719 0.814417 0.126482
H28   H     H_    0.750903 0.587734 0.783888 0.238973
C32   C     C_3   0.874526 0.754441 0.806683 -0.651900
H29   H     H_    0.959202 0.693538 0.806365 0.260746
H30   H     H_    0.880926 0.796456 0.742173 0.266115
H31   H     H_    0.879943 0.833944 0.854738 0.232379
O28   O     O_3   0.745988 0.433697 0.065541 -0.573582
C33   C     C_3   0.713605 0.300750 0.072827 0.250466
H32   H     H_    0.671195 0.259544 0.016575 0.173683
H33   H     H_    0.646871 0.281880 0.133825 0.189539
C34   C     C_3   0.838692 0.232845 0.078511 -0.782637
H34   H     H_    0.883552 0.269693 0.135136 0.283859
H35   H     H_    0.814592 0.127720 0.085173 0.197334
H36   H     H_    0.911227 0.249696 0.019725 0.273282
O29   O     O_3   0.320353 0.344994 0.919399 -0.641433
C35   C     C_3   0.311267 0.215068 0.891448 0.067476
H37   H     H_    0.315624 0.149477 0.945331 0.172337
H38   H     H_    0.392340 0.196439 0.838113 0.182975
C36   C     C_3   0.180271 0.186946 0.858255 -0.746027
H39   H     H_    0.175163 0.249096 0.802896 0.280663
H40   H     H_    0.170438 0.084562 0.837313 0.201545
H41   H     H_    0.097287 0.205987 0.909757 0.263379

loop_
_geom_bond_atom_site_label_1
_geom_bond_atom_site_label_2
_geom_bond_distance
_ccdc_geom_bond_type
C12   H5    1.108018 S    
O9    C23   1.407294 S    
N1    N8    1.392741 S    
C35   H37   1.113167 S    
C11   C14   1.436995 S    
C7    O28   1.428380 S    
C18   C20   1.464467 S    
C36   H39   1.110927 S    
C31   C32   1.520186 S    
C35   H38   1.113764 S    
C25   H12   1.113061 S    
Zn1   O7    1.974952 S    
C4    C8    1.392526 S    
C15   C16   1.188629 T    
C3    C19   1.455174 S    
O3    Zn1   1.973599 S    
N7    O21   1.298710 A    
O4    C2    1.297630 A    
O7    C4    1.292547 A    
C10   N3    1.475866 S    
C34   H34   1.111087 S    
C7    H3    1.113830 S    
C26   H14   1.110836 S    
N4    O14   1.301043 A    
H6    C19   1.086802 S    
N3    O10   1.301684 A    
O5    C3    1.304907 A    
O29   C35   1.412625 S    
C5    C9    1.590820 S    
C31   H27   1.110570 S    
C6    C7    1.585571 S    
N3    O11   1.301182 A    
C10   C11   1.577568 S    
C35   C36   1.520187 S    
C13   O29   1.422263 S    
C18   O15   1.399414 S    
C24   H10   1.107728 S    
C8    C14   1.181864 T    
C9    C15   1.449289 S    
C21   N6    1.429422 S    
O28   C33   1.405995 S    
C23   H8    1.110169 S    
C29   C30   1.521570 S    
C17   O16   1.395885 S    
N7    O22   1.302745 A    
C7    C11   1.593185 S    
C28   H19   1.108637 S    
C27   C28   1.514110 S    
C11   C12   1.567554 S    
C5    O9    1.425057 S    
C29   H23   1.112800 S    
N9    O25   1.301002 A    
N5    O18   1.299910 A    
C24   H11   1.108970 S    
C12   C13   1.541081 S    
C24   H9    1.109139 S    
H1    C10   1.116400 S    
N4    O13   1.299060 A    
O1    C1    1.291518 A    
C23   C24   1.522154 S    
C27   H18   1.113628 S    
C5    H2    1.108668 S    
C30   H24   1.111157 S    
N1    C21   1.312001 D    
N9    O26   1.301779 A    
Zn2   O8    1.973599 S    
C22   N5    1.433921 S    
C1    C17   1.461963 S    
C33   H33   1.108455 S    
C30   H25   1.111097 S    
O3    C2    1.288806 A    
N8    O24   1.302637 A    
N6    O19   1.300654 A    
C32   H30   1.109964 S    
C9    C13   1.579112 S    
N5    O17   1.301027 A    
Zn2   N1    2.027528 S    
N2    N7    1.392905 S    
C25   H13   1.113499 S    
N2    C22   1.314153 D    
O12   C25   1.413350 S    
C25   C26   1.520740 S    
Zn1   O5    1.889087 S    
C6    C9    1.611116 S    
O1    Zn1   1.897847 S    
C6    O27   1.436681 S    
O2    Zn2   1.889088 S    
O8    C4    1.288532 A    
C29   H22   1.116143 S    
C20   N4    1.438139 S    
O6    C3    1.290026 A    
O4    Zn2   1.974954 S    
C36   H40   1.109850 S    
C31   H28   1.104611 S    
C13   H4    1.110415 S    
C32   H31   1.110533 S    
N6    O20   1.300184 A    
C26   H16   1.110698 S    
C28   H21   1.109576 S    
C27   H17   1.112858 S    
O2    C1    1.301301 A    
C12   O12   1.420540 S    
O16   C29   1.413832 S    
C17   C18   1.349423 D    
C21   C22   1.508655 S    
C34   H35   1.110610 S    
C5    C10   1.561797 S    
C26   H15   1.110406 S    
C33   C34   1.521212 S    
O27   C31   1.414985 S    
C30   H26   1.111540 S    
C36   H41   1.109441 S    
O15   C27   1.412356 S    
C2    C16   1.402985 S    
N8    O23   1.299793 A    
C6    N9    1.485899 S    
Zn2   O6    1.897848 S    
C32   H29   1.108808 S    
C23   H7    1.100508 S    
C33   H32   1.107936 S    
Zn1   N2    2.027676 S    
C19   C20   1.352805 D    
C28   H20   1.110460 S    
C34   H36   1.108915 S    
