data_mof_unit_60163.cif
_audit_creation_date              2012-12-10T16:58:32-0500
_audit_creation_method            fapswitch 2.2
_symmetry_space_group_name_H-M    P1
_symmetry_Int_Tables_number       1
_space_group_crystal_system       triclinic
_cell_length_a                    13.111525
_cell_length_b                    13.16043
_cell_length_c                    15.534064
_cell_angle_alpha                 108.863285
_cell_angle_beta                  74.804417
_cell_angle_gamma                 91.223523
_cell_volume                      2441.90533349

loop_
_atom_site_label
_atom_site_type_symbol
_atom_type_description
_atom_site_fract_x
_atom_site_fract_y
_atom_site_fract_z
_atom_type_partial_charge
C1    C     C_R   0.218751 0.543688 0.532599 0.512600
C2    C     C_R   0.533117 0.492085 0.112224 -0.164080
C3    C     C_R   0.574655 0.304102 0.089272 0.140441
C4    C     C_R   0.780568 0.459029 0.465880 0.499692
C5    C     C_R   0.443643 0.583382 0.854990 0.021512
C6    C     C_2   0.893437 0.446536 0.455320 -0.090879
C7    C     C_2   0.948354 0.532671 0.481601 -0.135636
C8    C     C_2   0.106267 0.563424 0.539123 -0.083432
C9    C     C_2   0.063360 0.518568 0.466088 -0.030929
C10   C     C_2   0.538241 0.894979 0.539843 -0.084065
C11   C     C_2   0.504489 0.937730 0.484293 -0.150114
C12   C     C_R   0.431411 0.725984 0.003003 -0.145583
C13   C     C_2   0.461794 0.102619 0.456146 -0.108284
C14   C     C_2   0.508350 0.053766 0.500760 -0.154796
C15   C     C_R   0.470196 0.218266 0.471832 0.510942
C16   C     C_R   0.529293 0.781232 0.527896 0.506729
C17   C     C_R   0.543877 0.441853 0.247671 0.522854
C18   C     C_R   0.455136 0.554894 0.752800 0.490065
C19   C     C_R   0.558376 0.275182 0.999532 -0.116625
C20   C     C_R   0.558713 0.413120 0.146458 0.054113
C21   C     C_R   0.423770 0.692217 0.910724 -0.127410
C22   C     C_3   0.697524 0.228807 0.151494 -0.287055
C23   C     C_R   0.461830 0.652611 0.040554 -0.117800
C24   C     C_3   0.128001 0.453862 0.367368 -0.343291
C25   C     C_R   0.480757 0.541520 0.987389 0.041066
C26   C     C_R   0.465052 0.506349 0.895277 0.030970
C27   C     C_R   0.514090 0.463992 0.022552 0.020820
C28   C     C_R   0.526220 0.353222 0.966818 0.022359
C29   C     C_R   0.502088 0.320189 0.880294 -0.137426
C30   C     C_R   0.469818 0.395115 0.845996 -0.113804
H1    H     H_    0.908443 0.612694 0.516443 0.126968
H2    H     H_    0.521929 0.573705 0.159988 0.099648
H3    H     H_    0.406296 0.752309 0.881703 0.135175
H4    H     H_    0.468753 0.685783 0.111658 0.102353
H5    H     H_    0.417009 0.810488 0.044898 0.116639
H6    H     H_    0.446413 0.363927 0.781153 0.142225
H7    H     H_    0.583550 0.145126 0.089050 0.242949
H8    H     H_    0.754059 0.160090 0.102513 0.126990
H9    H     H_    0.680733 0.224730 0.224096 0.149834
H10   H     H_    0.736061 0.304619 0.150307 0.150684
H11   H     H_    0.079599 0.438487 0.316063 0.120999
H12   H     H_    0.056164 0.614675 0.606386 0.093140
H13   H     H_    0.195669 0.499070 0.342770 0.146597
H14   H     H_    0.156743 0.374519 0.366079 0.160630
H15   H     H_    0.931446 0.365706 0.428833 0.101759
H16   H     H_    0.549972 0.100199 0.551109 0.158298
H17   H     H_    0.472044 0.887391 0.428381 0.128593
H18   H     H_    0.418609 0.056943 0.406948 0.106283
H19   H     H_    0.565751 0.945419 0.598871 0.086434
H20   H     H_    0.506762 0.235481 0.839245 0.105697
H21   H     H_    0.567787 0.190954 0.956261 0.099264
N1    N     N_2   0.599432 0.222359 0.124014 -0.509266
O1    O     O_3   0.500000 0.500000 0.500000 -0.435872
O2    O     O_R   0.468210 0.402800 0.293550 -0.526584
O3    O     O_R   0.410220 0.615430 0.721590 -0.546302
O4    O     O_R   0.602670 0.506150 0.290200 -0.550083
O5    O     O_R   0.518910 0.475630 0.694660 -0.545455
O6    O     O_R   0.526920 0.270960 0.524520 -0.544651
O7    O     O_R   0.454490 0.752910 0.584610 -0.538468
O8    O     O_R   0.270990 0.462040 0.468400 -0.545114
O9    O     O_R   0.747590 0.514090 0.422470 -0.535535
O10   O     O_R   0.265290 0.607490 0.589320 -0.536488
O11   O     O_R   0.716130 0.416380 0.519810 -0.533835
O12   O     O_R   0.423930 0.265320 0.430520 -0.536177
O13   O     O_R   0.594650 0.710810 0.460350 -0.531598
Zn1   Zn    Zn3+2 0.564370 0.417180 0.558730 0.929973
Zn2   Zn    Zn3+2 0.417220 0.409120 0.424430 0.933822
Zn3   Zn    Zn3+2 0.609330 0.556780 0.419650 0.932287
Zn4   Zn    Zn3+2 0.409080 0.616930 0.597190 0.935236

loop_
_geom_bond_atom_site_label_1
_geom_bond_atom_site_label_2
_ccdc_geom_bond_type
C13   H18   S    
C3    N1    S    
C9    C24   S    
C3    C19   A    
C6    C7    D    
O2    Zn2   S    
C6    H15   S    
C25   C27   A    
C1    C8    S    
C18   O5    A    
C11   H17   S    
C17   O4    A    
C30   H6    S    
O5    Zn1   S    
C15   O12   A    
O13   Zn3   S    
C22   H10   S    
C1    O10   A    
C23   H4    S    
C23   C25   A    
O11   Zn1   S    
O1    Zn4   S    
C3    C20   A    
C14   H16   S    
C10   C16   S    
C13   C14   D    
C12   H5    S    
C16   O13   A    
C24   H11   S    
C17   O2    A    
O9    Zn3   S    
O3    Zn4   S    
C16   O7    A    
C18   O3    A    
O7    Zn4   S    
C24   H14   S    
C22   H9    S    
C4    O9    A    
C4    O11   A    
C28   C29   A    
C11   C14   S    
C8    H12   S    
C26   C30   A    
C22   N1    S    
C29   H20   S    
C13   C15   S    
C2    C27   A    
C19   C28   A    
O1    Zn2   S    
C15   O6    A    
C4    C6    S    
C7    H1    S    
C10   C11   D    
H7    N1    S    
C29   C30   A    
C5    C26   A    
C22   H8    S    
O12   Zn2   S    
C19   H21   S    
C17   C20   S    
C21   H3    S    
O8    Zn2   S    
C2    H2    S    
C1    O8    A    
C27   C28   A    
C7    C9    S    
O1    Zn3   S    
O1    Zn1   S    
C24   H13   S    
C12   C23   A    
C5    C18   S    
C25   C26   A    
O4    Zn3   S    
C10   H19   S    
C2    C20   A    
C12   C21   A    
O6    Zn1   S    
O10   Zn4   S    
C8    C9    D    
C5    C21   A    
