data_mof_unit_53163.cif
_audit_creation_date              2012-12-10T17:02:19-0500
_audit_creation_method            fapswitch 2.2
_symmetry_space_group_name_H-M    P1
_symmetry_Int_Tables_number       1
_space_group_crystal_system       triclinic
_cell_length_a                    10.633009
_cell_length_b                    10.703388
_cell_length_c                    10.042025
_cell_angle_alpha                 90.532917
_cell_angle_beta                  90.041364
_cell_angle_gamma                 90.073799
_cell_volume                      1142.82435049

loop_
_atom_site_label
_atom_site_type_symbol
_atom_type_description
_atom_site_fract_x
_atom_site_fract_y
_atom_site_fract_z
_atom_type_partial_charge
C1    C     C_R   0.494540 0.262804 0.499051 0.846843
C2    C     C_2   0.470216 0.132291 0.493842 0.329020
C3    C     C_2   0.572715 0.571415 0.925713 -0.114030
C4    C     C_R   0.260608 0.503655 0.500031 0.916758
C5    C     C_2   0.567863 0.575998 0.075706 -0.114510
C6    C     C_R   0.507230 0.737142 0.500619 0.900609
C7    C     C_R   0.739420 0.503395 0.500074 0.848231
C8    C     C_R   0.131337 0.712352 0.626197 -0.124401
C9    C     C_R   0.065749 0.809796 0.687630 -0.059285
C10   C     C_R   0.934907 0.809811 0.687426 -0.166624
C11   C     C_R   0.869158 0.712256 0.626062 -0.187369
C12   C     C_R   0.066079 0.611812 0.564874 0.056453
C13   C     C_R   0.934209 0.611727 0.564895 0.103819
C14   C     C_R   0.128337 0.512197 0.499843 -0.097152
C15   C     C_R   0.064153 0.417767 0.432257 -0.156516
C16   C     C_R   0.935669 0.417660 0.432340 -0.211589
C17   C     C_R   0.871718 0.511987 0.500001 -0.088794
C18   C     C_2   0.523588 0.933173 0.390985 -0.090175
C19   C     C_2   0.530650 0.867895 0.502468 -0.245943
C20   C     C_2   0.532638 0.066558 0.400549 -0.345068
H1    H     H_    0.113893 0.342588 0.381887 0.178445
H2    H     H_    0.885746 0.342444 0.381953 0.155545
H3    H     H_    0.511998 0.889892 0.293444 0.181148
H4    H     H_    0.552330 0.912361 0.597436 0.182598
H5    H     H_    0.598147 0.111553 0.332957 0.153847
H6    H     H_    0.166538 0.159033 0.661113 0.374843
H7    H     H_    0.639400 0.632542 0.876827 0.159577
H8    H     H_    0.433863 0.447804 0.897208 0.180145
H9    H     H_    0.625650 0.645523 0.125899 0.159935
H10   H     H_    0.451257 0.431492 0.101472 0.171964
H11   H     H_    0.232855 0.717815 0.625641 0.171714
H12   H     H_    0.116604 0.886195 0.734285 0.182751
H13   H     H_    0.884155 0.886220 0.733858 0.144465
H14   H     H_    0.767679 0.717566 0.625562 0.138936
N1    N     N_2   0.501340 0.501330 0.852150 -0.186656
N2    N     N_2   0.501380 0.501360 0.147810 -0.189477
O1    O     O_R   0.499980 0.319060 0.613040 -0.565034
O2    O     O_2   0.382114 0.028521 0.718727 -0.331460
O3    O     O_3   0.238785 0.196419 0.613597 -0.570550
O4    O     O_R   0.500020 0.319100 0.386900 -0.634851
O5    O     O_R   0.316750 0.499980 0.613090 -0.597261
O6    O     O_R   0.316790 0.500020 0.386950 -0.608713
O7    O     O_R   0.499980 0.680900 0.613100 -0.625427
O8    O     O_R   0.500020 0.680940 0.386960 -0.616160
O9    O     O_R   0.683210 0.499980 0.613050 -0.620268
O10   O     O_R   0.683250 0.500020 0.386910 -0.612585
O11   O     O_2   0.271166 0.975462 0.510922 -0.322422
S1    S     S_3+6 0.338747 0.077188 0.586537 -0.003186
Zn1   Zn    Zn3+2 0.499970 0.499970 0.650990 0.987109
Zn2   Zn    Zn3+2 0.500030 0.500030 0.349010 0.960750

loop_
_geom_bond_atom_site_label_1
_geom_bond_atom_site_label_2
_ccdc_geom_bond_type
N1    Zn1   S    
C7    O10   A    
H10   N2    S    
O1    Zn1   S    
C9    C10   A    
O10   Zn2   S    
O2    S1    D    
O11   S1    D    
C9    H12   S    
O9    Zn1   S    
C8    C12   A    
C10   C11   A    
C3    H7    S    
C19   H4    S    
C8    C9    A    
C6    O8    A    
C6    C19   S    
C11   C13   A    
C4    O6    A    
O6    Zn2   S    
O4    Zn2   S    
C15   C16   A    
C7    O9    A    
O5    Zn1   S    
C12   C14   A    
C1    C2    S    
C10   H13   S    
C5    H9    S    
C6    O7    A    
C4    C14   S    
C1    O1    A    
H6    O3    S    
C20   H5    S    
C3    N1    D    
C13   C17   A    
C5    N2    D    
C15   H1    S    
N2    Zn2   S    
C12   C13   A    
C18   C20   S    
C18   C19   D    
C4    O5    A    
O8    Zn2   S    
C14   C15   A    
O3    S1    S    
C16   H2    S    
C1    O4    A    
C2    S1    S    
C8    H11   S    
C2    C20   D    
C11   H14   S    
O7    Zn1   S    
C18   H3    S    
H8    N1    S    
C16   C17   A    
C3    C5    S    
C7    C17   S    
