data_mof_unit_54032.cif
_audit_creation_date              2012-12-10T19:05:18-0500
_audit_creation_method            fapswitch 2.2
_symmetry_space_group_name_H-M    P1
_symmetry_Int_Tables_number       1
_space_group_crystal_system       triclinic
_cell_length_a                    9.53058
_cell_length_b                    10.820899
_cell_length_c                    17.355438
_cell_angle_alpha                 90.147888
_cell_angle_beta                  85.712384
_cell_angle_gamma                 89.93594
_cell_volume                      1784.8399334

loop_
_atom_site_label
_atom_site_type_symbol
_atom_type_description
_atom_site_fract_x
_atom_site_fract_y
_atom_site_fract_z
_atom_type_partial_charge
C1    C     C_R   0.500163 0.737745 0.498687 0.795018
C2    C     C_R   0.347896 0.537999 0.774988 -0.273557
C3    C     C_R   0.414636 0.551275 0.148512 -0.146453
C4    C     C_R   0.408580 0.544987 0.228465 -0.206767
C5    C     C_R   0.653984 0.483497 0.222302 -0.193302
C6    C     C_R   0.659792 0.488900 0.142022 -0.168373
C7    C     C_R   0.539461 0.520130 0.104659 0.190133
C8    C     C_2   0.434545 0.496798 0.980160 -0.199325
C9    C     C_2   0.547340 0.518380 0.019977 -0.231116
C10   C     C_R   0.527615 0.509621 0.265899 -0.026441
C11   C     C_R   0.375900 0.936638 0.488719 0.136778
C12   C     C_R   0.481453 0.497580 0.649859 0.828476
C13   C     C_R   0.501558 0.870822 0.491010 -0.094794
C14   C     C_R   0.629720 0.935409 0.482129 -0.219064
C15   C     C_R   0.629829 0.064219 0.482070 -0.212802
C16   C     C_R   0.501773 0.129227 0.490873 -0.095522
C17   C     C_R   0.376031 0.063810 0.488669 0.115922
C18   C     C_3   0.244121 0.071023 0.540697 -0.457164
C19   C     C_3   0.243897 0.930676 0.540728 -0.484054
C20   C     C_R   0.930510 0.401532 0.470708 0.252742
C21   C     C_R   0.920478 0.590713 0.536243 -0.085566
C22   C     C_R   0.069426 0.590549 0.536406 -0.091739
C23   C     C_R   0.500320 0.262291 0.498581 0.811916
C24   C     C_R   0.077913 0.401530 0.470757 0.254738
C25   C     C_3   0.095309 0.352593 0.390278 -0.497125
C26   C     C_3   0.936034 0.353054 0.390087 -0.512121
C27   C     C_R   0.518472 0.502001 0.350125 0.788476
C28   C     C_R   0.470391 0.493205 0.734259 -0.120792
C29   C     C_R   0.581059 0.444848 0.774785 0.422679
C30   C     C_R   0.566145 0.441692 0.855379 -0.243622
C31   C     C_R   0.446398 0.491888 0.895679 0.129964
C32   C     C_R   0.336083 0.537303 0.855268 -0.169322
Cu1   Cu    Cu3+1 0.359330 0.500020 0.500000 0.938000
Cu2   Cu    Cu3+1 0.640670 0.499980 0.500000 0.954778
H1    H     H_    0.757400 0.466053 0.108990 0.120783
H2    H     H_    0.729637 0.887169 0.479069 0.162460
H3    H     H_    0.729788 0.112144 0.479036 0.159967
H4    H     H_    0.261353 0.112103 0.598034 0.203112
H5    H     H_    0.155265 0.111494 0.511215 0.191810
H6    H     H_    0.260853 0.890016 0.598096 0.192849
H7    H     H_    0.154945 0.890482 0.511166 0.193916
H8    H     H_    0.860769 0.665102 0.564605 0.134953
H9    H     H_    0.121213 0.664632 0.565016 0.136643
H10   H     H_    0.146818 0.419513 0.348786 0.216203
H11   H     H_    0.310763 0.568805 0.260944 0.147543
H12   H     H_    0.141410 0.258137 0.387871 0.192124
H13   H     H_    0.896882 0.420917 0.348934 0.211750
H14   H     H_    0.890156 0.258939 0.387107 0.189096
H15   H     H_    0.747321 0.456947 0.249945 0.139256
H16   H     H_    0.650280 0.530729 0.989644 0.140838
H17   H     H_    0.242023 0.574412 0.885888 0.132415
H18   H     H_    0.321747 0.581428 0.121646 0.120744
H19   H     H_    0.262116 0.575562 0.744742 0.160573
H20   H     H_    0.330755 0.484750 0.009274 0.141595
H21   H     H_    0.647413 0.398095 0.886271 0.139460
N1    N     N_R   0.852130 0.499070 0.499500 -0.182152
N2    N     N_R   0.148040 0.499110 0.499500 -0.182357
O1    O     O_R   0.381190 0.680360 0.500000 -0.584407
O2    O     O_R   0.618770 0.680320 0.499990 -0.594526
O3    O     O_R   0.367430 0.500040 0.613600 -0.594644
O4    O     O_R   0.605020 0.500000 0.613590 -0.549021
O5    O     O_R   0.381230 0.319680 0.500010 -0.581293
O6    O     O_R   0.618810 0.319640 0.500000 -0.578735
O7    O     O_R   0.394980 0.500000 0.386410 -0.588252
O8    O     O_R   0.632570 0.499960 0.386400 -0.586552
O9    O     O_3   0.695287 0.387238 0.735752 -0.566922
C33   C     C_3   0.817376 0.459090 0.742973 0.078716
H22   H     H_    0.839434 0.472484 0.804534 0.117791
H23   H     H_    0.806330 0.551095 0.715399 0.141366
C34   C     C_3   0.943191 0.392911 0.702421 -0.751968
H24   H     H_    0.923182 0.373331 0.641431 0.251064
H25   H     H_    0.038534 0.451568 0.703649 0.194065
H26   H     H_    0.962129 0.304218 0.732003 0.239141

loop_
_geom_bond_atom_site_label_1
_geom_bond_atom_site_label_2
_ccdc_geom_bond_type
C10   C27   S    
C21   N1    A    
C2    C28   A    
C18   H5    S    
C32   H17   S    
Cu2   N1    S    
Cu1   O1    S    
C27   O8    A    
C22   H9    S    
C16   C23   S    
C29   C30   A    
C2    H19   S    
C30   H21   S    
C24   N2    A    
C31   C32   A    
C34   H26   S    
C26   H14   S    
C30   C31   A    
C20   N1    A    
C33   C34   S    
C11   C19   S    
C29   O9    S    
C22   N2    A    
C23   O6    A    
Cu1   Cu2   S    
C18   H4    S    
C19   H7    S    
C5    C10   A    
C1    O1    A    
C24   C25   S    
C12   O4    A    
C11   C13   A    
C5    H15   S    
C6    C7    A    
C20   C26   S    
C26   H13   S    
C12   C28   S    
Cu1   O7    S    
C15   C16   A    
Cu2   O8    S    
C28   C29   A    
C17   C18   S    
Cu1   O3    S    
C3    C7    A    
C4    H11   S    
C1    O2    A    
C14   H2    S    
C5    C6    A    
C3    H18   S    
Cu2   O6    S    
Cu2   O2    S    
C1    C13   S    
C19   H6    S    
C4    C10   A    
C3    C4    A    
C12   O3    A    
C20   C24   A    
C34   H24   S    
O9    C33   S    
C6    H1    S    
C25   H10   S    
C2    C32   A    
C18   C19   S    
C27   O7    A    
C8    H20   S    
C7    C9    S    
C14   C15   A    
C15   H3    S    
Cu1   N2    S    
C21   H8    S    
C13   C14   A    
C25   C26   S    
C21   C22   A    
C8    C31   S    
Cu1   O5    S    
C25   H12   S    
C34   H25   S    
C23   O5    A    
C11   C17   A    
C9    H16   S    
C33   H22   S    
C16   C17   A    
C8    C9    D    
C33   H23   S    
Cu2   O4    S    
