data_mof_unit_7825.cif
_audit_creation_date              2012-12-11T15:52:38-0500
_audit_creation_method            fapswitch 2.2
_symmetry_space_group_name_H-M    P1
_symmetry_Int_Tables_number       1
_space_group_crystal_system       triclinic
_cell_length_a                    6.926732
_cell_length_b                    14.560007
_cell_length_c                    16.012799
_cell_angle_alpha                 90.259113
_cell_angle_beta                  90.018083
_cell_angle_gamma                 90.00642
_cell_volume                      1614.92647836

loop_
_atom_site_label
_atom_site_type_symbol
_atom_type_description
_atom_site_fract_x
_atom_site_fract_y
_atom_site_fract_z
_atom_type_partial_charge
O1    O     O_R   0.494400 0.415640 0.412830 -0.539478
O2    O     O_R   0.823920 0.405510 0.586560 -0.543779
O3    O     O_R   0.994250 0.584360 0.587170 -0.540539
C1    C     C_R   0.654880 0.383228 0.615412 0.684855
O4    O     O_R   0.824110 0.404610 0.413450 -0.542651
O5    O     O_R   0.994440 0.583460 0.412820 -0.539890
C2    C     C_R   0.655026 0.382192 0.384326 0.691132
O6    O     O_R   0.494210 0.416540 0.587180 -0.540626
O7    O     O_3   0.660810 0.558680 0.500000 -0.370175
V1    V     V_3+5 0.935650 0.489110 0.500000 1.393544
O8    O     O_R   0.324150 0.594490 0.413440 -0.543062
C3    C     C_R   0.155089 0.616579 0.384284 0.688545
O9    O     O_R   0.323970 0.595390 0.586550 -0.544829
C4    C     C_R   0.155185 0.617525 0.615688 0.660800
V2    V     V_3+5 0.435660 0.510890 0.500000 1.391209
O10   O     O_3   0.160630 0.441320 0.500000 -0.368065
C5    C     C_3   0.045993 0.643844 0.764547 -0.345361
H1    H     H_    0.898888 0.619268 0.747549 0.131605
H2    H     H_    0.129408 0.582149 0.784131 0.130967
C6    C     C_3   0.028633 0.715343 0.837172 -0.134572
H3    H     H_    0.872557 0.727275 0.849780 0.105218
H4    H     H_    0.877503 0.751894 0.642309 0.142362
H5    H     H_    0.860912 0.857578 0.748217 0.137629
C7    C     C_3   0.026322 0.772725 0.660543 -0.320742
C8    C     C_3   0.349149 0.719837 0.713598 -0.321108
C9    C     C_3   0.144623 0.686964 0.686824 0.101715
H6    H     H_    0.424683 0.751462 0.659526 0.137960
H7    H     H_    0.437403 0.660161 0.734161 0.139382
C10   C     C_3   0.123092 0.808627 0.811626 0.069170
C11   C     C_3   0.015083 0.843931 0.732970 -0.347846
C12   C     C_3   0.336976 0.790650 0.785476 -0.308833
H8    H     H_    0.421974 0.765294 0.839658 0.150705
H9    H     H_    0.405349 0.855985 0.764984 0.133964
H10   H     H_    0.094076 0.805114 0.604983 0.125605
H11   H     H_    0.079236 0.910115 0.712277 0.131334
C13   C     C_R   0.953308 0.773317 0.215508 -0.146007
H12   H     H_    0.812484 0.791489 0.191321 0.117077
C14   C     C_R   0.964318 0.710203 0.281127 -0.148313
H13   H     H_    0.831434 0.681552 0.305270 0.119005
C15   C     C_R   0.143974 0.684407 0.314956 -0.049795
C16   C     C_R   0.312319 0.723407 0.281132 -0.153636
H14   H     H_    0.453150 0.705216 0.305300 0.115595
C17   C     C_R   0.301306 0.786521 0.215513 -0.135935
H15   H     H_    0.434190 0.815152 0.191351 0.117230
C18   C     C_R   0.121630 0.812451 0.181799 -0.037576
C19   C     C_R   0.812208 0.273957 0.715976 -0.158429
H16   H     H_    0.952927 0.292208 0.691743 0.116440
C20   C     C_R   0.801259 0.209238 0.780153 -0.153149
H17   H     H_    0.934066 0.179531 0.803330 0.117677
C21   C     C_R   0.621669 0.183224 0.813765 -0.045584
C22   C     C_R   0.453323 0.223651 0.781401 -0.157116
H18   H     H_    0.312603 0.205406 0.805635 0.117012
C23   C     C_R   0.464271 0.288365 0.717221 -0.153114
H19   H     H_    0.331465 0.318071 0.694039 0.118272
C24   C     C_R   0.643856 0.314354 0.683588 -0.046375
C25   C     C_R   0.812184 0.274411 0.281113 -0.153471
H20   H     H_    0.953040 0.293146 0.305047 0.116762
C26   C     C_R   0.801138 0.210547 0.215573 -0.149145
H21   H     H_    0.934035 0.181909 0.191229 0.118265
C27   C     C_R   0.621440 0.183967 0.182090 -0.047161
C28   C     C_R   0.453105 0.223081 0.216090 -0.153462
H22   H     H_    0.312254 0.204344 0.192152 0.116882
C29   C     C_R   0.464152 0.286949 0.281633 -0.147640
H23   H     H_    0.331262 0.315592 0.305980 0.119493
C30   C     C_R   0.643853 0.313516 0.315124 -0.048124
O11   O     O_R   0.771300 0.080930 0.910090 -0.541264
O12   O     O_R   0.441270 0.092800 0.083770 -0.543695
O13   O     O_R   0.271080 0.913920 0.084380 -0.539378
C31   C     C_R   0.610321 0.115265 0.112908 0.686924
O14   O     O_R   0.441580 0.091910 0.910670 -0.544270
O15   O     O_R   0.271390 0.913020 0.910040 -0.539337
C32   C     C_R   0.610633 0.114268 0.881879 0.683587
O16   O     O_R   0.770990 0.081830 0.084440 -0.541151
O17   O     O_3   0.604750 0.938760 0.997250 -0.367485
V3    V     V_3+5 0.329850 0.008280 0.997210 1.404045
O18   O     O_R   0.941680 0.901940 0.910610 -0.545435
C33   C     C_R   0.110924 0.879703 0.881618 0.664758
O19   O     O_R   0.941370 0.902830 0.083720 -0.543584
C34   C     C_R   0.110464 0.880577 0.112730 0.699774
V4    V     V_3+5 0.829860 0.986420 0.997150 1.401971
O20   O     O_3   0.104830 0.056030 0.997180 -0.369473
C35   C     C_1   0.112813 0.678651 0.914968 0.268086
N1    N     N_1   0.178686 0.650109 0.975993 -0.355892

loop_
_geom_bond_atom_site_label_1
_geom_bond_atom_site_label_2
_ccdc_geom_bond_type
C8    C12   S    
C14   C15   A    
C29   C30   A    
C6    C35   S    
C16   H14   S    
C1    O6    A    
C23   H19   S    
C8    H7    S    
C11   H11   S    
C5    C9    S    
C13   H12   S    
C7    C9    S    
O5    C3    A    
C14   H13   S    
O19   V4    S    
C26   C27   A    
C25   C30   A    
C5    C6    S    
C25   H20   S    
C28   C29   A    
C21   C32   S    
O8    V2    S    
O11   C32   A    
C19   C24   A    
C12   H9    S    
C31   O16   A    
O1    V2    S    
O7    V1    S    
O13   C34   A    
C20   C21   A    
O17   V4    S    
O9    C4    A    
C16   C17   A    
C8    C9    S    
C21   C22   A    
C6    C10   S    
C23   C24   A    
C19   C20   A    
O17   V3    S    
C22   H18   S    
H5    C11   S    
O18   C33   A    
O4    C2    A    
O19   C34   A    
V3    O20   S    
C26   H21   S    
C7    H10   S    
C27   C28   A    
O13   V3    S    
C3    C15   S    
O2    C1    A    
C17   H15   S    
C10   C11   S    
C2    C30   S    
C12   H8    S    
C5    H1    S    
C13   C18   A    
C18   C34   S    
C4    C9    S    
C17   C18   A    
O3    C4    A    
C20   H17   S    
O6    V2    S    
O9    V2    S    
C1    C24   S    
H4    C7    S    
O12   V3    S    
O2    V1    S    
O15   C33   A    
O12   C31   A    
C19   H16   S    
C15   C16   A    
O1    C2    A    
O18   V4    S    
V4    O20   S    
O5    V1    S    
O8    C3    A    
C8    H6    S    
O11   V4    S    
C13   C14   A    
O7    V2    S    
O4    V1    S    
C10   C12   S    
O3    V1    S    
V1    O10   S    
O15   V3    S    
C27   C31   S    
C5    H2    S    
O16   V4    S    
C25   C26   A    
C28   H22   S    
C7    C11   S    
C29   H23   S    
C10   C33   S    
C6    H3    S    
C35   N1    T    
O14   V3    S    
O14   C32   A    
C22   C23   A    
V2    O10   S    
