data_mof_unit_66404.cif
_audit_creation_date              2012-12-10T19:31:18-0500
_audit_creation_method            fapswitch 2.2
_symmetry_space_group_name_H-M    P1
_symmetry_Int_Tables_number       1
_space_group_crystal_system       triclinic
_cell_length_a                    19.172677
_cell_length_b                    15.746232
_cell_length_c                    14.964803
_cell_angle_alpha                 90.003014
_cell_angle_beta                  89.8802
_cell_angle_gamma                 90.203248
_cell_volume                      4517.79711234

loop_
_atom_site_label
_atom_site_type_symbol
_atom_type_description
_atom_site_fract_x
_atom_site_fract_y
_atom_site_fract_z
_atom_type_partial_charge
C1    C     C_R   0.500221 0.337627 0.499995 0.912611
C2    C     C_3   0.540767 0.972211 0.432721 0.138751
C3    C     C_3   0.499771 0.083147 0.500133 -0.045608
C4    C     C_3   0.500229 0.916853 0.499868 -0.045609
C5    C     C_1   0.500002 0.173860 0.500161 0.063055
C6    C     C_1   0.499998 0.826140 0.499839 0.063054
C7    C     C_3   0.553936 0.452426 0.969595 -0.229854
C8    C     C_3   0.446064 0.547573 0.030405 -0.229853
C9    C     C_3   0.559719 0.532461 0.029802 -0.002326
C10   C     C_3   0.440282 0.467539 0.970197 -0.002324
C11   C     C_3   0.493147 0.420849 0.029897 -0.003746
C12   C     C_R   0.499779 0.662373 0.500005 0.912609
C13   C     C_3   0.506854 0.579150 0.970103 -0.003747
C14   C     C_3   0.499759 0.500157 0.089933 -0.005227
C15   C     C_3   0.500242 0.499842 0.910067 -0.005226
C16   C     C_R   0.365555 0.499085 0.500144 0.911446
C17   C     C_R   0.634445 0.500916 0.499856 0.911437
C18   C     C_1   0.499886 0.500080 0.189961 0.111963
C19   C     C_1   0.500114 0.499919 0.810039 0.111961
C20   C     C_R   0.253912 0.430926 0.539999 0.103210
C21   C     C_R   0.746088 0.569067 0.459979 0.103220
C22   C     C_R   0.180919 0.431620 0.541248 0.158111
C23   C     C_3   0.524971 0.971891 0.578658 0.130896
C24   C     C_R   0.819080 0.568375 0.458732 0.158104
C25   C     C_R   0.145336 0.500089 0.502075 -0.073323
C26   C     C_R   0.854665 0.499920 0.497930 -0.073318
C27   C     C_R   0.181549 0.568501 0.462825 -0.058394
C28   C     C_R   0.818453 0.431520 0.537205 -0.058394
C29   C     C_R   0.254427 0.568173 0.462142 -0.083364
C30   C     C_R   0.745575 0.431844 0.537885 -0.083364
C31   C     C_R   0.290117 0.499289 0.500528 -0.172187
C32   C     C_R   0.709883 0.500714 0.499472 -0.172198
C33   C     C_R   0.930086 0.500286 0.498553 0.326262
C34   C     C_3   0.475029 0.028109 0.421342 0.130898
C35   C     C_R   0.069914 0.499724 0.501450 0.326260
C36   C     C_1   0.514611 0.666667 0.937757 0.198313
C37   C     C_1   0.485389 0.333333 0.062242 0.198313
C38   C     C_1   0.143835 0.638292 0.422089 0.236279
C39   C     C_1   0.856170 0.361745 0.577968 0.236269
C40   C     C_1   0.292651 0.639269 0.423836 0.204574
C41   C     C_1   0.707353 0.360758 0.576214 0.204589
C42   C     C_1   0.635851 0.061249 0.523911 0.297620
C43   C     C_1   0.364149 0.938752 0.476090 0.297630
C44   C     C_1   0.625673 0.568548 0.062148 0.199325
C45   C     C_3   0.564862 0.028162 0.511398 -0.138426
C46   C     C_1   0.374327 0.431452 0.937852 0.199322
C47   C     C_3   0.435138 0.971838 0.488603 -0.138428
C48   C     C_1   0.500159 0.248965 0.500061 -0.109973
C49   C     C_1   0.499841 0.751035 0.499939 -0.109970
C50   C     C_3   0.459233 0.027789 0.567280 0.138754
H1    H     H_    0.598267 0.413326 0.945596 0.168108
H2    H     H_    0.401734 0.586673 0.054404 0.168108
I1    I     I_    0.309947 0.324956 0.593724 -0.213591
I2    I     I_    0.690052 0.675021 0.406219 -0.213581
I3    I     I_    0.123577 0.331431 0.605374 -0.188283
I4    I     I_    0.876423 0.668546 0.394576 -0.188290
I5    I     I_    0.565510 0.923980 0.701805 -0.221810
I6    I     I_    0.434490 0.076020 0.298195 -0.221804
I7    I     I_    0.605971 0.925119 0.327765 -0.194042
I8    I     I_    0.394029 0.074881 0.672235 -0.194040
N1    N     N_R   0.034942 0.442145 0.451284 -0.125160
N2    N     N_1   0.886267 0.306178 0.610436 -0.128505
N3    N     N_1   0.323155 0.695890 0.393398 -0.173482
N4    N     N_1   0.676851 0.304146 0.606672 -0.173468
N5    N     N_1   0.691787 0.087373 0.533768 -0.140184
N6    N     N_1   0.308212 0.912628 0.466233 -0.140176
N7    N     N_1   0.677645 0.597008 0.087730 -0.132503
N8    N     N_1   0.322355 0.402991 0.912270 -0.132511
N9    N     N_R   0.965058 0.557866 0.548719 -0.125166
N10   N     N_R   0.965766 0.442273 0.450036 -0.135532
N11   N     N_R   0.034234 0.557738 0.549967 -0.135541
N12   N     N_1   0.500020 0.500000 0.268010 -0.078928
N13   N     N_1   0.499980 0.500000 0.731990 -0.078929
N14   N     N_1   0.520744 0.735646 0.912202 -0.125677
N15   N     N_1   0.479257 0.264353 0.087798 -0.125676
N16   N     N_1   0.113739 0.693872 0.389644 -0.128500
O1    O     O_R   0.500000 0.376780 0.574460 -0.595084
O2    O     O_R   0.500000 0.623220 0.425540 -0.595084
O3    O     O_R   0.500010 0.376780 0.425520 -0.608681
O4    O     O_R   0.499990 0.623220 0.574480 -0.608684
O5    O     O_R   0.398130 0.499990 0.574490 -0.596756
O6    O     O_R   0.601870 0.500010 0.425510 -0.596752
O7    O     O_R   0.398140 0.499990 0.425550 -0.609370
O8    O     O_R   0.601860 0.500010 0.574450 -0.609373
Zn1   Zn    Zn3+2 0.499990 0.500000 0.599450 1.029484
Zn2   Zn    Zn3+2 0.500010 0.500000 0.400550 1.029487

loop_
_geom_bond_atom_site_label_1
_geom_bond_atom_site_label_2
_ccdc_geom_bond_type
N1    N10   A    
C8    C13   S    
C23   C45   S    
C27   C29   A    
C1    O1    A    
C14   C18   S    
C12   C49   S    
C38   N16   T    
C16   C31   S    
C7    C11   S    
C40   N3    T    
C24   C26   A    
C10   C15   S    
C21   I2    S    
C11   C14   S    
C27   C38   S    
N9    N11   A    
C17   O6    A    
C11   C37   S    
C9    C13   S    
C15   C19   S    
C22   C25   A    
C12   O2    A    
C10   C46   S    
C42   N5    T    
C30   C41   S    
C8    H2    S    
C33   N9    A    
O2    Zn2   S    
C7    C15   S    
C37   N15   T    
O1    Zn1   S    
C21   C32   A    
C3    C50   S    
C47   C50   S    
C2    C45   S    
C18   N12   T    
C5    C48   T    
C19   N13   T    
O8    Zn1   S    
C13   C36   S    
C4    C6    S    
C4    C23   S    
C2    I7    S    
C23   C50   S    
C28   C39   S    
O6    Zn2   S    
C3    C45   S    
C16   O7    A    
C42   C45   S    
C2    C4    S    
C9    C14   S    
C46   N8    T    
O4    Zn1   S    
C26   C33   S    
C35   N1    A    
N13   Zn1   S    
C36   N14   T    
C33   N10   A    
C25   C35   S    
C20   C22   A    
C13   C15   S    
C1    O3    A    
C25   C27   A    
C23   I5    S    
C39   N2    T    
C9    C44   S    
C8    C14   S    
C20   I1    S    
C3    C5    S    
N12   Zn2   S    
C1    C48   S    
C22   I3    S    
C24   I4    S    
C26   C28   A    
C3    C34   S    
C17   O8    A    
C50   I8    S    
C28   C30   A    
C7    H1    S    
C29   C31   A    
C30   C32   A    
C2    C34   S    
C43   N6    T    
C12   O4    A    
C29   C40   S    
C16   O5    A    
C6    C49   T    
C10   C11   S    
C35   N11   A    
C7    C9    S    
O7    Zn2   S    
C8    C10   S    
C21   C24   A    
C34   I6    S    
C17   C32   S    
C44   N7    T    
C34   C47   S    
C41   N4    T    
C43   C47   S    
C20   C31   A    
O3    Zn2   S    
O5    Zn1   S    
C4    C47   S    
