data_mof_unit_62639.cif
_audit_creation_date              2012-12-10T18:13:23-0500
_audit_creation_method            fapswitch 2.2
_symmetry_space_group_name_H-M    P1
_symmetry_Int_Tables_number       1
_space_group_crystal_system       triclinic
_cell_length_a                    35.85831
_cell_length_b                    29.147297
_cell_length_c                    21.68135
_cell_angle_alpha                 89.650544
_cell_angle_beta                  125.657871
_cell_angle_gamma                 90.575196
_cell_volume                      18411.2173635

loop_
_atom_site_label
_atom_site_type_symbol
_atom_type_description
_atom_site_fract_x
_atom_site_fract_y
_atom_site_fract_z
_atom_type_partial_charge
C1    C     C_R   0.913258 0.999827 0.912890 0.939219
C2    C     C_R   0.086740 0.000170 0.087293 0.955058
C3    C     C_R   0.413264 0.499803 0.912651 0.914122
C4    C     C_R   0.586740 0.500170 0.087289 0.953977
C5    C     C_1   0.820339 0.999312 0.818527 0.051684
C6    C     C_1   0.179657 0.000673 0.182209 0.038692
C7    C     C_1   0.320345 0.499117 0.817855 0.056065
C8    C     C_1   0.679656 0.500673 0.182208 0.037546
C9    C     C_1   0.770510 0.999237 0.768245 0.042343
C10   C     C_1   0.229484 0.000742 0.232447 0.056434
C11   C     C_1   0.270515 0.499054 0.767642 0.058135
C12   C     C_1   0.729483 0.500742 0.232446 0.055754
C13   C     C_1   0.728330 0.999279 0.725866 0.041386
C14   C     C_1   0.271669 0.000699 0.274649 0.044167
C15   C     C_1   0.228329 0.499133 0.725417 0.043942
C16   C     C_1   0.771668 0.500698 0.274648 0.043668
C17   C     C_1   0.678478 0.999468 0.676055 0.030989
C18   C     C_1   0.321519 0.000514 0.324198 0.033059
C19   C     C_1   0.178480 0.499379 0.675830 0.033697
C20   C     C_1   0.821519 0.500513 0.324197 0.032705
C21   C     C_1   0.636266 0.999691 0.634145 -0.172170
C22   C     C_1   0.363737 0.000296 0.365932 -0.170293
C23   C     C_1   0.136263 0.499647 0.634075 -0.169918
C24   C     C_1   0.863736 0.500296 0.365932 -0.170371
C25   C     C_R   0.999825 0.913234 0.499596 0.926110
C26   C     C_R   0.000190 0.086766 0.500181 0.929230
C27   C     C_R   0.499825 0.413234 0.499588 0.933637
C28   C     C_R   0.500190 0.586766 0.500182 0.926364
C29   C     C_R   0.998887 0.997023 0.621256 0.944989
C30   C     C_R   0.000640 0.998721 0.377924 0.959688
C31   C     C_R   0.498901 0.497107 0.621267 0.946492
C32   C     C_R   0.500871 0.499279 0.378250 0.959363
C33   C     C_R   0.499928 0.085539 0.499760 0.868826
C34   C     C_R   0.500073 0.914461 0.500238 0.868869
C35   C     C_R   0.999927 0.585539 0.499760 0.868472
C36   C     C_R   0.000073 0.414461 0.500238 0.868565
C37   C     C_R   0.585557 0.999948 0.584825 0.868220
C38   C     C_R   0.414445 0.000048 0.415185 0.868798
C39   C     C_R   0.085554 0.499944 0.584814 0.868155
C40   C     C_R   0.914445 0.500048 0.415185 0.868148
C41   C     C_1   0.999414 0.862565 0.498887 -0.135169
C42   C     C_1   0.000619 0.137435 0.500931 -0.140670
C43   C     C_1   0.499417 0.362565 0.498866 -0.130592
C44   C     C_1   0.500623 0.637435 0.500937 -0.138480
C45   C     C_R   0.999913 0.000082 0.877413 0.982047
C46   C     C_R   0.993154 0.999758 0.114949 1.008785
C47   C     C_R   0.499936 0.500101 0.877433 0.988309
C48   C     C_R   0.494914 0.499823 0.117071 0.994748
C49   C     C_1   0.999073 0.820352 0.498361 0.053741
C50   C     C_1   0.000964 0.179648 0.501501 0.048723
C51   C     C_1   0.499078 0.320353 0.498338 0.055012
C52   C     C_1   0.500969 0.679648 0.501511 0.051448
C53   C     C_1   0.998881 0.770508 0.497999 0.046587
C54   C     C_1   0.001153 0.229492 0.501913 0.043048
C55   C     C_1   0.498886 0.270509 0.497979 0.046865
C56   C     C_1   0.501158 0.729492 0.501924 0.044639
C57   C     C_1   0.498935 0.228279 0.498021 0.039820
C58   C     C_1   0.501099 0.771722 0.501922 0.038584
C59   C     C_1   0.998930 0.728278 0.498034 0.040077
C60   C     C_1   0.001094 0.271722 0.501913 0.037796
C61   C     C_1   0.499234 0.178438 0.498478 0.030389
C62   C     C_1   0.500787 0.821562 0.501499 0.029938
C63   C     C_1   0.999229 0.678438 0.498484 0.030915
C64   C     C_1   0.000784 0.321561 0.501494 0.029711
C65   C     C_1   0.499556 0.136226 0.499038 -0.172074
C66   C     C_1   0.500455 0.863774 0.500957 -0.172217
C67   C     C_1   0.999553 0.636226 0.499039 -0.171347
C68   C     C_1   0.000454 0.363774 0.500955 -0.171891
C69   C     C_3   0.964075 0.963980 0.752860 -0.440315
C70   C     C_3   0.023157 0.040478 0.234019 -0.425228
C71   C     C_3   0.018296 0.955010 0.229333 -0.441936
C72   C     C_3   0.984632 0.047308 0.769258 -0.475502
C73   C     C_3   0.464086 0.464030 0.752916 -0.440358
C74   C     C_3   0.522421 0.542699 0.233990 -0.448320
C75   C     C_3   0.523591 0.457515 0.234482 -0.433386
C76   C     C_3   0.484609 0.547365 0.769272 -0.475110
C77   C     C_3   0.970313 0.955197 0.689836 0.302109
C78   C     C_3   0.022686 0.043653 0.304113 0.297723
C79   C     C_3   0.022118 0.953382 0.303563 0.285057
C80   C     C_3   0.977977 0.045180 0.692204 0.288564
C81   C     C_3   0.470394 0.455302 0.689965 0.303734
C82   C     C_3   0.522575 0.545450 0.304755 0.294563
C83   C     C_3   0.524627 0.454797 0.306192 0.291523
C84   C     C_3   0.477973 0.545256 0.692211 0.287013
C85   C     C_3   0.050512 0.989226 0.833111 0.673077
C86   C     C_3   0.943046 0.001289 0.161770 0.665333
C87   C     C_3   0.550548 0.489262 0.833112 0.673427
C88   C     C_3   0.444958 0.497187 0.164204 0.653215
C89   C     C_3   0.000674 0.999939 0.810569 -0.211000
C90   C     C_3   0.993176 0.999245 0.182581 -0.230744
C91   C     C_3   0.500691 0.500007 0.810589 -0.213547
C92   C     C_3   0.495263 0.499449 0.184946 -0.223744
C93   C     C_3   0.996391 0.997496 0.686204 -0.258461
C94   C     C_3   0.001018 0.998463 0.310381 -0.251863
C95   C     C_3   0.496432 0.497616 0.686243 -0.258695
C96   C     C_3   0.502154 0.499387 0.311876 -0.255701
C97   C     C_3   0.047144 0.992852 0.758471 -0.594409
C98   C     C_3   0.948986 0.997622 0.238828 -0.591020
C99   C     C_3   0.547167 0.492963 0.758504 -0.594397
C100  C     C_3   0.450570 0.498126 0.240699 -0.575208
C101  C     C_1   0.862560 0.999485 0.861329 -0.097175
C102  C     C_1   0.137437 0.000510 0.139219 -0.169067
C103  C     C_1   0.362565 0.499337 0.860756 -0.165886
C104  C     C_1   0.637437 0.500510 0.139218 -0.171082
H1    H     H_    0.965545 0.931106 0.780290 0.248780
H2    H     H_    0.011281 0.073674 0.202735 0.249467
H3    H     H_    0.001595 0.922947 0.197687 0.236655
H4    H     H_    0.009935 0.074751 0.804431 0.233331
H5    H     H_    0.465647 0.431141 0.780357 0.249377
H6    H     H_    0.508543 0.575244 0.201731 0.239702
H7    H     H_    0.510468 0.424649 0.202994 0.222526
H8    H     H_    0.509853 0.574801 0.804437 0.233211
H9    H     H_    0.993866 0.925852 0.707314 0.189379
H10   H     H_    0.998225 0.070993 0.292785 0.174070
H11   H     H_    0.000233 0.924278 0.299030 0.111068
H12   H     H_    0.000569 0.072173 0.693122 0.112214
H13   H     H_    0.494020 0.425994 0.707537 0.189730
H14   H     H_    0.497283 0.572532 0.292276 0.136815
H15   H     H_    0.502297 0.425594 0.299160 0.155820
H16   H     H_    0.500536 0.572249 0.693125 0.112229
O1    O     O_R   0.936850 0.964330 0.936870 -0.595396
O2    O     O_R   0.063150 0.035670 0.063130 -0.583329
O3    O     O_R   0.063150 0.964330 0.063130 -0.576184
O4    O     O_R   0.936850 0.035670 0.936870 -0.593337
O5    O     O_R   0.436850 0.464330 0.936870 -0.576377
O6    O     O_R   0.563150 0.535670 0.063130 -0.582303
O7    O     O_R   0.563150 0.464330 0.063130 -0.577791
O8    O     O_R   0.436850 0.535670 0.936870 -0.608133
O9    O     O_R   0.999990 0.964330 0.907390 -0.588181
O10   O     O_R   0.000010 0.035670 0.092610 -0.603679
O11   O     O_R   0.000010 0.964330 0.092610 -0.603559
O12   O     O_R   0.999990 0.035670 0.907390 -0.593240
O13   O     O_R   0.499990 0.464330 0.907390 -0.586820
O14   O     O_R   0.500010 0.535670 0.092610 -0.594716
O15   O     O_R   0.500010 0.464330 0.092610 -0.609730
O16   O     O_R   0.499990 0.535670 0.907390 -0.590571
O17   O     O_R   0.964320 0.936860 0.464320 -0.618812
O18   O     O_R   0.035680 0.063140 0.535680 -0.589208
O19   O     O_R   0.035680 0.936860 0.535680 -0.579035
O20   O     O_R   0.964320 0.063140 0.464320 -0.582293
O21   O     O_R   0.464320 0.436860 0.464320 -0.615754
O22   O     O_R   0.535680 0.563140 0.535680 -0.591747
O23   O     O_R   0.535680 0.436860 0.535680 -0.580975
O24   O     O_R   0.464320 0.563140 0.464320 -0.579074
O25   O     O_R   0.964330 0.000000 0.556950 -0.525854
O26   O     O_R   0.035670 0.000000 0.443050 -0.512020
O27   O     O_R   0.464330 0.500000 0.556950 -0.524827
O28   O     O_R   0.535670 0.500000 0.443050 -0.520389
O29   O     O_R   0.035630 0.000000 0.628230 -0.640262
O30   O     O_R   0.964370 0.000000 0.371770 -0.646642
O31   O     O_R   0.535630 0.500000 0.628230 -0.641061
O32   O     O_R   0.464370 0.500000 0.371770 -0.643030
O33   O     O_R   0.499940 0.063120 0.447680 -0.585780
O34   O     O_R   0.500060 0.936880 0.552320 -0.586220
O35   O     O_R   0.500060 0.063120 0.552320 -0.585156
O36   O     O_R   0.499940 0.936880 0.447680 -0.584751
O37   O     O_R   0.999940 0.563120 0.447680 -0.585659
O38   O     O_R   0.000060 0.436880 0.552320 -0.585624
O39   O     O_R   0.000060 0.563120 0.552320 -0.584766
O40   O     O_R   0.999940 0.436880 0.447680 -0.585139
O41   O     O_R   0.563110 0.000000 0.510830 -0.586086
O42   O     O_R   0.436890 0.000000 0.489170 -0.586286
O43   O     O_R   0.063110 0.500000 0.510830 -0.586438
O44   O     O_R   0.936890 0.500000 0.489170 -0.586233
O45   O     O_R   0.563120 0.000000 0.615390 -0.584566
O46   O     O_R   0.436880 0.000000 0.384610 -0.583506
O47   O     O_R   0.063120 0.500000 0.615390 -0.582973
O48   O     O_R   0.936880 0.500000 0.384610 -0.583670
Zn1   Zn    Zn3+2 1.000000 0.952370 0.000000 1.110686
Zn2   Zn    Zn3+2 0.000000 0.047630 0.000000 1.097747
Zn3   Zn    Zn3+2 0.500000 0.452370 0.000000 1.100113
Zn4   Zn    Zn3+2 0.500000 0.547630 0.000000 1.088041
Zn5   Zn    Zn3+2 0.952370 0.000000 0.452390 1.099477
Zn6   Zn    Zn3+2 0.047630 0.000000 0.547610 1.096772
Zn7   Zn    Zn3+2 0.452370 0.500000 0.452390 1.110249
Zn8   Zn    Zn3+2 0.547630 0.500000 0.547610 1.090629
Zn9   Zn    Zn3+2 0.499970 0.000000 0.430170 1.021397
Zn10  Zn    Zn3+2 0.500030 0.000000 0.569830 1.019424
Zn11  Zn    Zn3+2 0.999970 0.500000 0.430170 1.021877
Zn12  Zn    Zn3+2 0.000030 0.500000 0.569830 1.022682
H17   H     H_    0.928925 0.977080 0.728115 0.229468
H18   H     H_    0.058659 0.035625 0.250812 0.230532
H19   H     H_    0.052784 0.954300 0.240445 0.229549
H20   H     H_    0.952436 0.057551 0.761829 0.222386
H21   H     H_    0.428953 0.477092 0.728189 0.230612
H22   H     H_    0.557933 0.540701 0.249811 0.232520
H23   H     H_    0.558924 0.460827 0.249202 0.223176
H24   H     H_    0.452383 0.557544 0.761794 0.222701
S1    S     S_3+6 0.919801 0.930539 0.606270 0.076864
O49   O     O_2   0.896222 0.900119 0.630058 -0.242061
O50   O     O_2   0.886554 0.965795 0.551329 -0.196543
O51   O     O_3   0.937043 0.897697 0.563677 -0.576906
H25   H     H_    0.914658 0.903601 0.508878 0.385086
S2    S     S_3+6 0.076080 0.067834 0.385544 0.069525
O52   O     O_2   0.103210 0.035625 0.451527 -0.219668
O53   O     O_2   0.106261 0.083938 0.362371 -0.263944
O54   O     O_3   0.062218 0.113729 0.414740 -0.574509
H26   H     H_    0.092017 0.128402 0.453898 0.391605
S3    S     S_3+6 0.079639 0.936251 0.379246 0.065109
O55   O     O_2   0.087394 0.889384 0.360311 -0.258434
O56   O     O_2   0.114289 0.968592 0.384338 -0.236742
O57   O     O_3   0.087192 0.932429 0.463145 -0.519657
H27   H     H_    0.118344 0.945190 0.500733 0.395800
S4    S     S_3+6 0.919861 0.063749 0.616716 0.068329
O58   O     O_2   0.905828 0.055674 0.537596 -0.195885
O59   O     O_2   0.885382 0.040954 0.625497 -0.278778
O60   O     O_3   0.918471 0.120827 0.626706 -0.544458
H28   H     H_    0.893664 0.125992 0.633065 0.383761
S5    S     S_3+6 0.420246 0.430410 0.606373 0.075911
O61   O     O_2   0.396448 0.399951 0.630173 -0.242995
O62   O     O_2   0.386762 0.465523 0.550993 -0.195818
O63   O     O_3   0.438094 0.397820 0.564667 -0.577981
H29   H     H_    0.414469 0.402315 0.509198 0.384064
S6    S     S_3+6 0.576084 0.569852 0.386263 0.068726
O64   O     O_2   0.602476 0.538304 0.453378 -0.224097
O65   O     O_2   0.607088 0.584453 0.363961 -0.261142
O66   O     O_3   0.562624 0.616882 0.413852 -0.570978
H30   H     H_    0.592548 0.629616 0.456570 0.390735
S7    S     S_3+6 0.581061 0.436498 0.384192 0.064422
O67   O     O_2   0.589367 0.390318 0.363962 -0.258324
O68   O     O_2   0.617314 0.469021 0.395238 -0.231348
O69   O     O_3   0.585332 0.430184 0.465082 -0.524477
H31   H     H_    0.614332 0.445799 0.504433 0.394934
S8    S     S_3+6 0.419857 0.563744 0.616677 0.068955
O70   O     O_2   0.405833 0.555689 0.537598 -0.194498
O71   O     O_2   0.385361 0.540851 0.625411 -0.277866
O72   O     O_3   0.418386 0.620804 0.626662 -0.544153
H32   H     H_    0.393602 0.625937 0.633109 0.383658
S9    S     S_3+6 0.070208 0.931321 0.873238 0.047332
O73   O     O_2   0.112639 0.921060 0.877377 -0.231831
O74   O     O_2   0.082491 0.930135 0.952450 -0.261441
O75   O     O_3   0.032354 0.888681 0.823667 -0.606957
H33   H     H_    0.047996 0.860242 0.851371 0.403991
S10   S     S_3+6 0.913604 0.055210 0.116142 0.040527
O76   O     O_2   0.914571 0.065231 0.049110 -0.247834
O77   O     O_2   0.864242 0.050223 0.088534 -0.258681
O78   O     O_3   0.936320 0.100454 0.175453 -0.603405
H34   H     H_    0.910343 0.115185 0.171481 0.393936
S11   S     S_3+6 0.904183 0.955440 0.095969 0.053422
O79   O     O_2   0.928756 0.917338 0.087375 -0.298089
O80   O     O_2   0.877223 0.934695 0.122342 -0.298778
O81   O     O_3   0.866602 0.977082 0.008373 -0.506573
H35   H     H_    0.835749 0.967752 0.993680 0.396200
S12   S     S_3+6 0.095403 0.029617 0.903723 0.053349
O82   O     O_2   0.111500 0.062033 0.869474 -0.275618
O83   O     O_2   0.079028 0.058515 0.940450 -0.339363
O84   O     O_3   0.141925 0.000425 0.972426 -0.446368
H36   H     H_    0.149492 0.012712 0.020879 0.369459
S13   S     S_3+6 0.570256 0.431426 0.873255 0.046391
O85   O     O_2   0.612645 0.421166 0.877434 -0.233486
O86   O     O_2   0.582504 0.430157 0.952398 -0.261297
O87   O     O_3   0.532381 0.388833 0.823665 -0.606030
H37   H     H_    0.548352 0.360117 0.850760 0.402199
S14   S     S_3+6 0.408055 0.544778 0.102478 0.059257
O88   O     O_2   0.387202 0.570020 0.135720 -0.252515
O89   O     O_2   0.433453 0.579481 0.088278 -0.341780
O90   O     O_3   0.364229 0.524113 0.017834 -0.460873
H38   H     H_    0.365757 0.540791 0.979636 0.364172
S15   S     S_3+6 0.414507 0.443812 0.116130 0.049299
O91   O     O_2   0.365687 0.447008 0.091294 -0.169863
O92   O     O_2   0.413939 0.436013 0.047204 -0.308473
O93   O     O_3   0.437819 0.398041 0.174404 -0.603028
H39   H     H_    0.442725 0.374763 0.146553 0.385939
S16   S     S_3+6 0.595377 0.529686 0.903749 0.053199
O94   O     O_2   0.611478 0.562135 0.869478 -0.275903
O95   O     O_2   0.579032 0.558556 0.940494 -0.339386
O96   O     O_3   0.641945 0.500511 0.972436 -0.446452
H40   H     H_    0.649492 0.512759 0.020898 0.369591
H41   H     H_    0.063703 0.962686 0.752820 0.235248
H42   H     H_    0.929769 0.025717 0.243012 0.236198
H43   H     H_    0.933003 0.965713 0.241712 0.234964
H44   H     H_    0.066574 0.022642 0.758776 0.245573
H45   H     H_    0.563733 0.462774 0.752835 0.235029
H46   H     H_    0.432747 0.527809 0.243922 0.236222
H47   H     H_    0.432945 0.468004 0.245311 0.247639
H48   H     H_    0.566604 0.522735 0.758799 0.245697

loop_
_geom_bond_atom_site_label_1
_geom_bond_atom_site_label_2
_ccdc_geom_bond_type
C58   C62   S    
O1    Zn1   S    
C5    C101  T    
C45   O9    A    
O69   H31   S    
O45   Zn10  S    
C71   H3    S    
C47   O16   A    
C70   C78   S    
C55   C57   T    
C69   C77   S    
C14   C18   S    
C48   O15   A    
C81   S5    S    
S11   O79   D    
O39   Zn12  S    
S15   O93   S    
C43   C51   T    
S8    O70   D    
C76   C84   S    
C71   C79   S    
C53   C59   T    
C33   C65   S    
C54   C60   T    
C2    O3    A    
C98   H42   S    
C15   C19   S    
C26   C42   S    
S13   O85   D    
C50   C54   S    
O12   Zn2   S    
C23   C39   S    
C24   C40   S    
C64   C68   T    
O9    Zn1   S    
C16   C20   S    
C25   O19   A    
O10   Zn2   S    
O29   Zn6   S    
S9    O75   S    
C26   O20   A    
C78   S2    S    
C81   C95   S    
O27   Zn7   S    
C30   O30   A    
S2    O54   S    
C94   C98   S    
C74   C92   S    
C22   C38   S    
C81   H13   S    
S5    O63   S    
C31   O31   A    
S12   O82   D    
C21   C37   S    
C87   S13   S    
O90   H38   S    
O37   Zn11  S    
C83   H15   S    
C10   C14   T    
S1    O50   D    
O84   H36   S    
C9    C13   T    
O75   H33   S    
S14   O89   D    
C88   S15   S    
S5    O62   D    
C82   S6    S    
O32   Zn7   S    
C11   C15   T    
C70   H18   S    
C88   C92   S    
S12   O83   D    
S16   O94   D    
O2    Zn2   S    
O47   Zn12  S    
O18   Zn6   S    
S3    O57   S    
C27   O23   A    
C28   O24   A    
O15   Zn3   S    
C8    C12   S    
O54   H26   S    
C18   C22   T    
C45   C89   S    
C51   C55   S    
C76   H24   S    
O35   Zn10  S    
C36   O38   A    
C63   C67   T    
C30   C94   S    
C31   O27   A    
C44   C52   T    
C34   O34   A    
S2    O52   D    
S3    O55   D    
C7    C103  T    
O78   H34   S    
C47   O13   A    
C76   H8    S    
O4    Zn2   S    
C34   C66   S    
O57   H27   S    
C78   H10   S    
S10   O77   D    
O23   Zn8   S    
C74   C82   S    
C80   C93   S    
C77   H9    S    
C73   C81   S    
C29   C93   S    
C72   H4    S    
C30   O26   A    
C86   C98   S    
C87   C99   S    
C2    O2    A    
C99   H45   S    
O33   Zn9   S    
S13   O86   D    
C82   C96   S    
C87   C91   S    
C62   C66   T    
C100  H47   S    
O60   H28   S    
C12   C16   T    
C79   S3    S    
C73   C91   S    
C79   C94   S    
S5    O61   D    
C84   S8    S    
C25   C41   S    
S7    O67   D    
C85   C89   S    
S6    O64   D    
O20   Zn5   S    
C37   O45   A    
O22   Zn8   S    
S14   O90   S    
C86   S11   S    
O66   H30   S    
C28   C44   S    
C85   S12   S    
C17   C21   T    
C25   O17   A    
C100  H46   S    
S10   O78   S    
S1    O51   S    
C7    C11   S    
C97   H41   S    
C35   O37   A    
O40   Zn11  S    
O17   Zn5   S    
S9    O73   D    
S6    O65   D    
S7    O68   D    
C83   S7    S    
O36   Zn9   S    
C73   H21   S    
O72   H32   S    
C32   O32   A    
S4    O60   S    
C35   C67   S    
C84   H16   S    
C36   C68   S    
C79   H11   S    
C85   S9    S    
S11   O80   D    
O46   Zn9   S    
C86   S10   S    
C75   H7    S    
O63   H29   S    
C73   H5    S    
C8    C104  T    
C72   H20   S    
C88   C100  S    
C75   C92   S    
C42   C50   T    
C32   O28   A    
C31   C95   S    
C32   C96   S    
O25   Zn5   S    
O8    Zn4   S    
C1    C101  S    
C70   C90   S    
C70   H2    S    
S9    O74   D    
C28   O22   A    
S10   O76   D    
C82   H14   S    
C39   O43   A    
S15   O91   D    
O28   Zn8   S    
S8    O72   S    
C93   C97   S    
C46   O11   A    
S8    O71   D    
C19   C23   T    
C37   O41   A    
C48   O14   A    
C38   O46   A    
C27   C43   S    
C87   S16   S    
O11   Zn1   S    
S13   O87   S    
C69   H1    S    
O31   Zn8   S    
C4    O7    A    
O81   H35   S    
O3    Zn1   S    
C47   C91   S    
C40   O44   A    
C75   H23   S    
C26   O18   A    
S4    O59   D    
S15   O92   D    
S6    O66   S    
O44   Zn12  S    
C46   O10   A    
C88   S14   S    
C99   H48   S    
C33   O35   A    
C97   H44   S    
C57   C61   S    
O93   H39   S    
C46   C90   S    
C34   O36   A    
C98   H43   S    
C69   C89   S    
C41   C49   T    
C96   C100  S    
C59   C63   S    
O48   Zn11  S    
C4    O6    A    
C3    O5    A    
C60   C64   S    
O96   H40   S    
O38   Zn12  S    
O51   H25   S    
C20   C24   T    
S14   O88   D    
O34   Zn10  S    
C3    O8    A    
O13   Zn3   S    
C1    O4    A    
C77   S1    S    
C72   C80   S    
S12   O84   S    
S7    O69   S    
C29   O25   A    
C72   C89   S    
C75   C83   S    
C80   S4    S    
C71   C90   S    
C78   C94   S    
S16   O96   S    
C49   C53   S    
C83   C96   S    
O26   Zn6   S    
O24   Zn7   S    
C77   C93   S    
C86   C90   S    
C27   O21   A    
C56   C58   T    
C4    C104  S    
S11   O81   S    
C95   C99   S    
C6    C102  T    
C39   O47   A    
S1    O49   D    
O5    Zn3   S    
O41   Zn9   S    
C1    O1    A    
C3    C103  S    
C40   O48   A    
C35   O39   A    
O6    Zn4   S    
C6    C10   S    
C36   O40   A    
C76   C91   S    
C29   O29   A    
C13   C17   S    
C61   C65   T    
C38   O42   A    
O30   Zn5   S    
O16   Zn4   S    
S4    O58   D    
O42   Zn10  S    
C45   O12   A    
S16   O95   D    
C48   C92   S    
S3    O56   D    
C2    C102  S    
O19   Zn6   S    
O14   Zn4   S    
C5    C9    S    
C80   H12   S    
C74   H6    S    
C33   O33   A    
O43   Zn11  S    
O7    Zn3   S    
S2    O53   D    
C84   C95   S    
C85   C97   S    
C52   C56   S    
O21   Zn7   S    
C69   H17   S    
O87   H37   S    
C74   H22   S    
C71   H19   S    
