data_mof_unit_34983.cif
_audit_creation_date              2013-03-05T15:54:49-0500
_audit_creation_method            fapswitch 2.2
_symmetry_space_group_name_H-M    P1
_symmetry_Int_Tables_number       1
_space_group_crystal_system       triclinic
_cell_length_a                    19.00504
_cell_length_b                    10.626283
_cell_length_c                    9.917175
_cell_angle_alpha                 89.628639
_cell_angle_beta                  90.350524
_cell_angle_gamma                 91.760497
_cell_volume                      2001.7800731

loop_
_atom_site_label
_atom_site_type_symbol
_atom_site_description
_atom_site_fract_x
_atom_site_fract_y
_atom_site_fract_z
_atom_type_partial_charge
O1    O     O_R   0.500000 0.316780 0.614690 -0.637519
O2    O     O_R   0.499990 0.316750 0.385360 -0.633848
C1    C     C_R   0.500534 0.260846 0.500499 0.861981
O3    O     O_R   0.398140 0.500000 0.614700 -0.642186
O4    O     O_R   0.398130 0.499970 0.385370 -0.608438
C2    C     C_R   0.365205 0.495450 0.499568 0.919999
Zn1   Zn    Zn3+2 0.500000 0.500020 0.653130 0.953176
Zn2   Zn    Zn3+2 0.500000 0.499980 0.346870 0.978327
O5    O     O_R   0.500010 0.683250 0.614640 -0.612559
O6    O     O_R   0.500000 0.683220 0.385310 -0.574698
O7    O     O_R   0.601870 0.500030 0.614630 -0.620308
O8    O     O_R   0.601860 0.500000 0.385300 -0.623644
C3    C     C_R   0.498921 0.739293 0.499404 0.943500
C4    C     C_R   0.634740 0.498444 0.500309 0.827615
C5    C     C_R   0.250630 0.471207 0.616779 -0.159608
H1    H     H_    0.274750 0.502270 0.710571 0.184054
C6    C     C_R   0.179692 0.436111 0.615360 -0.159760
H2    H     H_    0.149800 0.445638 0.707200 0.191973
C7    C     C_R   0.146940 0.395617 0.495299 -0.043595
C8    C     C_R   0.186927 0.384632 0.376523 0.333674
C9    C     C_R   0.257420 0.424639 0.378318 -0.233707
H3    H     H_    0.287765 0.417168 0.287004 0.188880
C10   C     C_R   0.289527 0.467995 0.497657 -0.082744
N1    N     N_R   0.035706 0.425621 0.379106 -0.094994
N2    N     N_R   0.966336 0.434787 0.379251 -0.145456
C11   C     C_R   0.928909 0.406716 0.491831 0.297596
N3    N     N_R   0.963238 0.366351 0.603629 -0.146739
N4    N     N_R   0.032787 0.356859 0.603388 -0.142158
C12   C     C_R   0.070170 0.386656 0.490998 0.361060
C13   C     C_R   0.815937 0.416795 0.615697 -0.123161
H4    H     H_    0.841380 0.387214 0.708096 0.163535
C14   C     C_R   0.744890 0.443495 0.618667 -0.147526
H5    H     H_    0.716667 0.431659 0.712677 0.159163
C15   C     C_R   0.710516 0.481861 0.500507 -0.005536
C16   C     C_R   0.748024 0.494613 0.379858 -0.156462
H6    H     H_    0.722475 0.523828 0.287361 0.157076
C17   C     C_R   0.818958 0.468334 0.376934 -0.124048
H7    H     H_    0.846632 0.478972 0.282227 0.163589
C18   C     C_R   0.853429 0.428876 0.494678 0.083968
H8    H     H_    0.393915 0.114785 0.443493 0.167683
C19   C     C_R   0.628492 0.135764 0.567601 -0.223045
H9    H     H_    0.630775 0.237405 0.570075 0.150679
C20   C     C_R   0.689835 0.072851 0.598227 -0.206805
H10   H     H_    0.737025 0.127636 0.623383 0.186700
C21   C     C_R   0.690303 0.941132 0.596158 0.365184
C22   C     C_R   0.627928 0.873740 0.562558 -0.252728
H11   H     H_    0.628978 0.772149 0.559880 0.165964
C23   C     C_R   0.565100 0.936815 0.531945 0.001169
C24   C     C_R   0.565665 0.068351 0.534388 0.116448
C25   C     C_R   0.503074 0.128896 0.501697 -0.119236
C26   C     C_R   0.441072 0.064064 0.468192 -0.283752
C27   C     C_R   0.439345 0.934738 0.465576 0.303705
C28   C     C_R   0.501448 0.872031 0.497662 -0.209715
H12   H     H_    0.579060 0.641658 0.125128 0.149978
C29   C     C_R   0.407861 0.334497 0.140002 -0.170257
H13   H     H_    0.404682 0.329018 0.246903 0.190649
C30   C     C_R   0.362227 0.253299 0.069930 -0.135873
H14   H     H_    0.326649 0.190091 0.124482 0.187369
C31   C     C_R   0.362183 0.253271 0.930361 -0.146774
H15   H     H_    0.326629 0.189911 0.876019 0.178790
C32   C     C_R   0.407795 0.334404 0.860065 -0.164462
H16   H     H_    0.404777 0.328396 0.753135 0.202663
C33   C     C_R   0.454589 0.418404 0.927716 0.167481
C34   C     C_R   0.454608 0.418452 0.072279 0.181457
N5    N     N_R   0.499340 0.498800 0.142780 -0.117427
C35   C     C_R   0.543505 0.577946 0.071457 -0.091589
H17   H     H_    0.579047 0.641586 0.874567 0.159901
C36   C     C_R   0.543501 0.577898 0.928363 -0.097994
N6    N     N_R   0.499320 0.498720 0.857170 -0.122249
N7    N     N_R   0.753776 0.876159 0.627868 0.213417
O9    O     O_R   0.811683 0.938872 0.657470 -0.359112
O10   O     O_R   0.754235 0.753739 0.628503 -0.400872
N8    N     N_R   0.373983 0.868955 0.434248 0.196515
O11   O     O_R   0.371701 0.780594 0.344019 -0.363830
O12   O     O_R   0.315037 0.911111 0.479186 -0.364903
N9    N     N_R   0.157563 0.329984 0.255415 0.210029
O13   O     O_R   0.181525 0.365060 0.137931 -0.374140
O14   O     O_R   0.114292 0.232868 0.262669 -0.341487

loop_
_geom_bond_atom_site_label_1
_geom_bond_atom_site_label_2
_geom_bond_distance
_ccdc_geom_bond_type
C35   C36   1.419091 A    
C29   H13   1.063362 S    
N8    O12   1.301460 A    
N8    O11   1.300809 A    
C7    C8    1.413098 A    
C21   C22   1.405432 A    
Zn1   O7    1.975618 S    
C11   N3    1.356863 A    
N4    C12   1.355956 A    
C16   C17   1.385612 A    
N9    O14   1.301560 A    
O4    C2    1.297147 A    
O7    C4    1.298251 A    
C11   C18   1.461291 S    
C30   C31   1.384125 A    
C5    H1    1.083397 S    
C8    N9    1.439481 S    
Zn1   O5    1.981684 S    
C15   C16   1.400184 A    
C19   H9    1.080037 S    
C32   C33   1.410485 A    
O5    C3    1.285597 A    
N1    C12   1.354101 A    
C33   N6    1.376772 A    
C36   N6    1.366910 A    
N7    O9    1.301909 A    
C5    C10   1.398559 A    
C31   H15   1.082871 S    
C9    H3    1.081237 S    
C19   C20   1.392587 A    
O3    Zn1   1.970719 S    
C19   C24   1.411750 A    
C1    C25   1.404427 S    
C25   C26   1.386300 A    
C3    C28   1.409844 S    
C23   C28   1.414125 A    
C22   C23   1.417490 A    
C31   C32   1.390830 A    
H17   C36   1.081970 S    
N9    O13   1.301618 A    
O3    C2    1.299190 A    
C27   N8    1.439794 S    
N2    C11   1.354180 A    
C26   C27   1.374047 A    
O1    C1    1.282594 A    
C16   H6    1.083377 S    
C14   C15   1.402478 A    
C20   H10   1.082835 S    
C4    C15   1.456215 S    
C17   H7    1.082846 S    
Zn2   O8    1.970717 S    
C29   C34   1.409644 A    
C6    H2    1.083322 S    
N1    N2    1.324975 A    
C20   C21   1.400266 A    
C23   C24   1.397814 A    
O8    C4    1.297425 A    
C24   C25   1.404863 A    
C29   C30   1.390682 A    
C7    C12   1.459587 S    
C27   C28   1.406869 A    
C5    C6    1.387751 A    
C22   H11   1.080828 S    
C21   N7    1.440298 S    
O1    Zn1   1.986550 S    
O2    Zn2   1.981682 S    
O6    C3    1.282773 A    
Zn1   N6    2.023575 S    
O4    Zn2   1.975622 S    
H12   C35   1.081861 S    
H8    C26   1.085808 S    
C34   N5    1.377103 A    
C9    C10   1.402227 A    
O2    C1    1.283854 A    
C17   C18   1.403448 A    
C14   H5    1.083140 S    
C13   C14   1.388758 A    
C30   H14   1.082983 S    
C13   H4    1.082817 S    
C2    C10   1.458783 S    
C6    C7    1.404057 A    
C13   C18   1.402659 A    
C32   H16   1.063864 S    
C33   C34   1.433656 A    
Zn2   N5    2.024076 S    
C8    C9    1.393098 A    
Zn2   O6    1.986550 S    
N5    C35   1.366879 A    
N3    N4    1.328725 A    
N7    O10   1.301135 A    
