data_mof_unit_16921.cif
_audit_creation_date              2012-12-11T16:22:23-0500
_audit_creation_method            fapswitch 2.2
_symmetry_space_group_name_H-M    P1
_symmetry_Int_Tables_number       1
_space_group_crystal_system       triclinic
_cell_length_a                    16.948527
_cell_length_b                    16.866701
_cell_length_c                    19.429957
_cell_angle_alpha                 117.469193
_cell_angle_beta                  62.523457
_cell_angle_gamma                 100.269027
_cell_volume                      4368.04367969

loop_
_atom_site_label
_atom_site_type_symbol
_atom_type_description
_atom_site_fract_x
_atom_site_fract_y
_atom_site_fract_z
_atom_type_partial_charge
C1    C     C_R   0.024754 0.759207 0.023489 -0.120643
C2    C     C_R   0.763078 0.451539 0.245050 0.030808
C3    C     C_R   0.740559 0.465315 0.939485 0.063030
C4    C     C_R   0.992118 0.755361 0.257137 -0.063796
C5    C     C_R   0.261566 0.520157 0.966219 -0.074760
C6    C     C_R   0.923487 0.262826 0.834732 -0.102880
C7    C     C_R   0.169669 0.463002 0.750375 -0.111109
C8    C     C_R   0.032031 0.311859 0.070522 -0.004446
C9    C     C_R   0.957417 0.243670 0.992028 -0.142630
C10   C     C_R   0.249710 0.537903 0.823969 -0.099636
C11   C     C_R   0.194616 0.439474 0.039197 -0.053736
C12   C     C_R   0.761581 0.426986 0.167023 -0.127379
C13   C     C_R   0.991156 0.341379 0.759190 -0.141037
C14   C     C_R   0.276342 0.450925 0.979551 0.085652
C15   C     C_R   0.944906 0.265448 0.757916 0.057733
C16   C     C_R   0.255371 0.481528 0.742364 0.022974
C17   C     C_R   0.999397 0.229461 0.032486 0.139371
C18   C     C_R   0.917315 0.912612 0.489777 0.564828
C19   C     C_R   0.951993 0.837068 0.411594 -0.280622
C20   C     C_R   0.956796 0.835332 0.337330 0.120460
C21   C     C_R   0.920310 0.906166 0.341331 -0.080589
C22   C     C_R   0.883362 0.981159 0.419079 -0.221731
C23   C     C_R   0.815599 0.512342 0.914379 -0.137355
C24   C     C_R   0.884047 0.986334 0.492903 -0.112387
C25   C     C_R   0.947205 0.130764 0.542833 -0.093059
C26   C     C_R   0.965374 0.197566 0.608481 -0.132194
C27   C     C_R   0.913067 0.208991 0.693308 0.129265
C28   C     C_R   0.834938 0.161914 0.713421 -0.152887
C29   C     C_R   0.816090 0.095306 0.647168 -0.043831
C30   C     C_R   0.876835 0.075066 0.561729 0.134880
C31   C     C_R   0.593016 0.322938 0.357553 -0.128298
C32   C     C_R   0.655082 0.344969 0.291863 -0.152087
C33   C     C_R   0.704680 0.421450 0.311033 0.163827
C34   C     C_R   0.969633 0.670380 0.249623 -0.204536
C35   C     C_R   0.697119 0.471004 0.394911 -0.073721
C36   C     C_R   0.634974 0.449394 0.460392 -0.155450
C37   C     C_R   0.579409 0.377972 0.442847 0.138709
C38   C     C_R   0.493175 0.398952 0.594008 -0.149625
C39   C     C_R   0.414175 0.431168 0.668579 -0.152931
C40   C     C_R   0.336667 0.441102 0.663773 0.139235
C41   C     C_R   0.337009 0.410961 0.583358 -0.143691
C42   C     C_R   0.415901 0.379265 0.509002 -0.157590
C43   C     C_R   0.495334 0.377549 0.514325 0.097901
C44   C     C_R   0.672878 0.441679 0.907290 0.114881
C45   C     C_R   0.748304 0.435180 0.991538 -0.120573
C46   C     C_R   0.363683 0.404601 0.939682 -0.060059
C47   C     C_R   0.462999 0.322646 0.945095 -0.315063
C48   C     C_R   0.378229 0.335096 0.955207 0.554551
C49   C     C_R   0.438184 0.439078 0.890901 -0.308028
C50   C     C_R   0.521396 0.428481 0.882882 0.193964
C51   C     C_R   0.532406 0.374699 0.915898 0.098033
C52   C     C_R   0.609882 0.379063 0.924997 -0.220323
C53   C     C_R   0.665568 0.487800 0.865856 -0.162852
C54   C     C_R   0.590627 0.479826 0.852164 -0.182905
C55   C     C_R   0.820807 0.186432 0.177155 0.010871
C56   C     C_R   0.044971 0.749604 0.174830 0.467462
C57   C     C_R   0.929740 0.862302 0.023919 0.113677
C58   C     C_R   0.849777 0.953720 0.007048 -0.172097
C59   C     C_R   0.887063 0.871041 0.980371 -0.153995
C60   C     C_R   0.934867 0.938263 0.094567 -0.201611
C61   C     C_R   0.897626 0.021270 0.121743 0.108595
C62   C     C_R   0.854251 0.029099 0.077930 0.191759
C63   C     C_R   0.815659 0.112062 0.106394 -0.374859
C64   C     C_R   0.864447 0.179153 0.220076 0.575301
C65   C     C_R   0.902370 0.096483 0.192704 -0.363063
C66   C     C_R   0.840610 0.495804 0.242438 -0.096090
C67   C     C_R   0.944190 0.689942 0.949850 -0.111568
C68   C     C_R   0.965866 0.774021 0.998548 0.024949
H1    H     H_    0.058703 0.809817 0.056891 0.189087
H2    H     H_    0.877421 0.219163 0.860079 0.088646
H3    H     H_    0.149255 0.421680 0.699877 0.100706
H4    H     H_    0.059146 0.327449 0.115662 0.147694
H5    H     H_    0.917976 0.196267 0.961849 0.107262
H6    H     H_    0.304031 0.572676 0.837973 0.099123
H7    H     H_    0.180983 0.398726 0.071931 0.171463
H8    H     H_    0.004720 0.371718 0.716676 0.094755
H9    H     H_    0.978921 0.780478 0.407283 0.187350
H10   H     H_    0.920969 0.903594 0.284304 0.129980
H11   H     H_    0.716951 0.381785 0.142698 0.093041
H12   H     H_    0.859901 0.037907 0.420557 0.166740
H13   H     H_    0.994096 0.116014 0.476783 0.150367
H14   H     H_    0.025109 0.234284 0.591745 0.120862
H15   H     H_    0.791722 0.172764 0.779200 0.114531
H16   H     H_    0.759903 0.053925 0.661931 0.149419
H17   H     H_    0.551141 0.267074 0.342861 0.121583
H18   H     H_    0.662046 0.303820 0.226954 0.110346
H19   H     H_    0.735091 0.529950 0.411169 0.109941
H20   H     H_    0.625000 0.493738 0.525800 0.116830
H21   H     H_    0.553786 0.397143 0.599108 0.127363
H22   H     H_    0.838315 0.533480 0.863774 0.092164
H23   H     H_    0.414430 0.450769 0.729955 0.110729
H24   H     H_    0.277767 0.416941 0.577997 0.118650
H25   H     H_    0.416009 0.364330 0.448432 0.125737
H26   H     H_    0.616617 0.339491 0.952870 0.117309
H27   H     H_    0.714149 0.534857 0.849381 0.121630
H28   H     H_    0.473838 0.275068 0.963241 0.192698
H29   H     H_    0.583290 0.520341 0.825265 0.126925
H30   H     H_    0.431582 0.482806 0.867063 0.131816
H31   H     H_    0.781766 0.119632 0.074103 0.156633
H32   H     H_    0.931332 0.650142 0.300828 0.138675
H33   H     H_    0.817032 0.958582 0.972553 0.136863
H34   H     H_    0.935318 0.090698 0.226632 0.200188
H35   H     H_    0.882402 0.814059 0.925559 0.126546
H36   H     H_    0.965952 0.932910 0.130082 0.145838
H37   H     H_    0.708139 0.387394 0.014413 0.089146
H38   H     H_    0.869414 0.511062 0.286315 0.135280
H39   H     H_    0.901031 0.675252 0.918781 0.098155
H40   H     H_    0.310437 0.556995 0.934865 0.100584
N1    N     N_R   0.034930 0.670790 0.995440 -0.041593
N2    N     N_R   0.954880 0.335850 0.881080 -0.038566
N3    N     N_R   0.115060 0.502430 0.834090 -0.045686
N4    N     N_R   0.014160 0.371890 0.051540 -0.062552
N5    N     N_R   0.965070 0.329210 0.004560 -0.048251
N6    N     N_R   0.164150 0.545120 0.881070 -0.032868
N7    N     N_R   0.133000 0.490740 0.051540 -0.063372
N8    N     N_R   0.996220 0.383590 0.834100 -0.038859
N9    N     N_R   0.835850 0.454880 0.118930 -0.042628
N10   N     N_R   0.867000 0.509260 0.948460 -0.042727
N11   N     N_R   0.003780 0.616410 0.165900 -0.068645
N12   N     N_R   0.825670 0.461520 0.995440 -0.042296
N13   N     N_R   0.045120 0.664150 0.118920 -0.091840
N14   N     N_R   0.884940 0.497570 0.165910 -0.047984
N15   N     N_R   0.985840 0.628110 0.948460 -0.048992
N16   N     N_R   0.174330 0.538480 0.004560 -0.035059
Ni1   Ni    Ni4+2 0.103690 0.603690 0.000000 0.305662
Ni2   Ni    Ni4+2 0.896310 0.396310 0.000000 0.206715
Ni3   Ni    Ni4+2 0.991110 0.505800 0.892250 0.215040
Ni4   Ni    Ni4+2 0.008890 0.494200 0.107750 0.244193
S1    S     S_3+6 0.925738 0.914971 0.578552 -0.037327
O1    O     O_2   0.833947 0.921720 0.648889 -0.322067
O2    O     O_2   0.973228 0.831293 0.552217 -0.263493
O3    O     O_3   0.982957 0.003641 0.615548 -0.525131
H41   H     H_    0.970215 0.011013 0.673370 0.372328
S2    S     S_3+6 0.299379 0.255082 0.975895 -0.057258
O4    O     O_2   0.250570 0.283137 0.071294 -0.310081
O5    O     O_2   0.234675 0.244782 0.939673 -0.314813
O6    O     O_3   0.353119 0.155873 0.928869 -0.515630
H42   H     H_    0.305844 0.114815 0.944075 0.385983
S3    S     S_3+6 0.870320 0.273759 0.308635 -0.042157
O7    O     O_2   0.943105 0.259801 0.326205 -0.271095
O8    O     O_2   0.888499 0.354064 0.290162 -0.334144
O9    O     O_3   0.772266 0.290494 0.395322 -0.540209
H43   H     H_    0.779147 0.344987 0.442469 0.370149
S4    S     S_3+6 0.134361 0.819862 0.153313 -0.055914
O10   O     O_2   0.099887 0.909888 0.178186 -0.328050
O11   O     O_2   0.182378 0.831623 0.205712 -0.247076
O12   O     O_3   0.205352 0.773135 0.048107 -0.571423
H44   H     H_    0.252669 0.816605 0.041111 0.380063

loop_
_geom_bond_atom_site_label_1
_geom_bond_atom_site_label_2
_ccdc_geom_bond_type
C58   C62   A    
C31   H17   S    
C53   H27   S    
C42   H25   S    
S3    O8    D    
C41   C42   A    
C3    C23   A    
C35   C36   A    
C2    C12   A    
C23   N10   A    
C14   C46   S    
C53   C54   A    
C36   H20   S    
C5    N16   A    
C26   C27   A    
C50   C54   A    
C18   C24   A    
C48   S2    S    
C28   C29   A    
C8    N4    A    
C7    H3    S    
C38   C39   A    
C33   C35   A    
C11   C14   A    
N12   Ni2   S    
C57   C59   A    
C12   H11   S    
C34   N11   A    
C1    C68   A    
C18   C19   A    
C19   H9    S    
C63   H31   S    
C1    N1    A    
C6    C15   A    
C35   H19   S    
C44   C53   A    
O12   H44   S    
O3    H41   S    
N8    Ni3   S    
C55   C63   A    
C21   H10   S    
C34   H32   S    
C47   H28   S    
C66   N14   A    
C54   H29   S    
C52   H26   S    
C11   N7    A    
N9    Ni2   S    
C10   N6    A    
S1    O3    S    
N11   Ni4   S    
C44   C52   A    
C49   H30   S    
C26   H14   S    
C21   C22   A    
C4    C56   A    
C28   H15   S    
C25   H13   S    
C6    N2    A    
C9    H5    S    
C65   H34   S    
C66   H38   S    
S4    O12   S    
C39   H23   S    
N4    N5    A    
C45   H37   S    
C46   C48   A    
N11   N13   A    
C4    C34   A    
C3    C44   S    
C8    H4    S    
C67   C68   A    
C47   C48   A    
C29   H16   S    
S4    O11   D    
C39   C40   A    
N6    Ni1   S    
N1    N15   A    
C57   C60   A    
S2    O5    D    
N5    Ni2   S    
C58   C59   A    
C3    C45   A    
C1    H1    S    
N7    Ni4   S    
C51   C52   A    
C60   C61   A    
C56   S4    S    
C37   C43   S    
N9    N14   A    
N13   Ni1   S    
C29   C30   A    
C61   C65   A    
C15   C27   S    
C31   C32   A    
C38   H21   S    
C13   H8    S    
C32   H18   S    
C55   C64   A    
C62   C63   A    
C50   C51   A    
C23   H22   S    
C58   H33   S    
S2    O6    S    
C5    C14   A    
C16   C40   S    
C45   N12   A    
N1    Ni1   S    
C40   C41   A    
N2    Ni2   S    
C13   C15   A    
N3    Ni3   S    
C22   C24   A    
C24   C30   S    
C42   C43   A    
C57   C68   S    
N2    N8    A    
N15   Ni3   S    
C2    C33   S    
S1    O1    D    
C9    C17   A    
C25   C30   A    
C6    H2    S    
C36   C37   A    
N7    N16   A    
C7    C16   A    
S4    O10   D    
C2    C66   A    
C67   N15   A    
C47   C51   A    
S3    O7    D    
S2    O4    D    
O6    H42   S    
C8    C17   A    
C59   H35   S    
C56   N13   A    
C19   C20   A    
C25   C26   A    
C22   H12   S    
C38   C43   A    
C11   H7    S    
C32   C33   A    
C10   H6    S    
C67   H39   S    
C64   C65   A    
S3    O9    S    
C7    N3    A    
N3    N6    A    
N14   Ni4   S    
C61   C62   A    
N10   N12   A    
C9    N5    A    
N4    Ni4   S    
C13   N8    A    
C12   N9    A    
C4    C20   S    
C46   C49   A    
C31   C37   A    
C41   H24   S    
C20   C21   A    
C49   C50   A    
N10   Ni3   S    
C27   C28   A    
O9    H43   S    
C18   S1    S    
C10   C16   A    
C60   H36   S    
C64   S3    S    
N16   Ni1   S    
S1    O2    D    
C5    H40   S    
