data_mof_unit_15985.cif
_audit_creation_date              2013-03-05T15:48:23-0500
_audit_creation_method            fapswitch 2.2
_symmetry_space_group_name_H-M    P1
_symmetry_Int_Tables_number       1
_space_group_crystal_system       triclinic
_cell_length_a                    8.312071
_cell_length_b                    19.249772
_cell_length_c                    19.216342
_cell_angle_alpha                 100.172952
_cell_angle_beta                  94.982057
_cell_angle_gamma                 92.170017
_cell_volume                      3010.50747347

loop_
_atom_site_label
_atom_site_type_symbol
_atom_site_description
_atom_site_fract_x
_atom_site_fract_y
_atom_site_fract_z
_atom_type_partial_charge
P1    P     P_3+3 0.945400 0.662120 0.569160 0.447843
O1    O     O_2   0.116570 0.673370 0.549300 -0.330453
O2    O     O_3   0.869340 0.584760 0.542960 -0.388954
O3    O     O_3   0.352540 0.630870 0.419750 -0.359915
O4    O     O_2   0.276529 0.751747 0.480053 -0.414784
O5    O     O_3   0.988790 0.676632 0.661808 -0.654610
O6    O     O_3   0.298579 0.742089 0.342317 -0.516622
H1    H     H_    0.357227 0.647885 0.281411 0.037566
C1    C     C_3   0.326060 0.727828 0.216317 0.159395
H2    H     H_    0.209371 0.699206 0.195209 0.121591
P2    P     P_3+3 0.355390 0.445380 0.336430 0.493801
P3    P     P_3+3 0.906495 0.588703 0.288543 0.465501
O7    O     O_2   0.181320 0.466870 0.327560 -0.340078
O8    O     O_3   0.937730 0.595370 0.381630 -0.381128
O9    O     O_2   0.017511 0.532808 0.254275 -0.321342
O10   O     O_3   0.348022 0.354341 0.304669 -0.568252
O11   O     O_3   0.977649 0.665922 0.262811 -0.564293
C2    C     C_3   0.903146 0.724512 0.298137 0.292353
H3    H     H_    0.981584 0.748304 0.346919 0.146347
H4    H     H_    0.782301 0.710533 0.313555 -0.004551
C3    C     C_3   0.882506 0.778389 0.248683 0.084888
H5    H     H_    0.985097 0.777430 0.214987 0.152468
C4    C     C_3   0.775557 0.380609 0.313929 0.356021
H6    H     H_    0.659340 0.392030 0.336108 0.110840
H7    H     H_    0.860707 0.427788 0.329725 0.113649
C5    C     C_3   0.748111 0.364810 0.232927 -0.688410
H8    H     H_    0.679162 0.406759 0.213892 0.154125
H9    H     H_    0.865646 0.364192 0.209703 0.199693
Ba1   Ba    Ba6+2 0.152000 0.534910 0.469330 1.567433
C6    C     C_3   0.847510 0.686504 0.697399 1.038485
H10   H     H_    0.743903 0.653199 0.667758 0.045983
C7    C     C_3   0.805909 0.764215 0.707599 -1.004122
H11   H     H_    0.912833 0.798562 0.733237 0.254424
H12   H     H_    0.705428 0.772972 0.742098 0.251588
H13   H     H_    0.766194 0.780428 0.656842 0.187827
C8    C     C_3   0.235444 0.317402 0.336151 0.338733
H14   H     H_    0.152706 0.351606 0.366900 0.033396
C9    C     C_3   0.136571 0.264573 0.277742 0.182785
H15   H     H_    0.059993 0.295375 0.245555 0.091769
H16   H     H_    0.056808 0.229918 0.302419 0.035714
P4    P     P_3+3 0.864900 0.337880 0.430780 0.452868
O12   O     O_2   0.693730 0.326590 0.450680 -0.345490
O13   O     O_3   0.940960 0.415230 0.456980 -0.409005
O14   O     O_3   0.457750 0.369120 0.580200 -0.322334
O15   O     O_3   0.839614 0.321958 0.338026 -0.607038
P5    P     P_3+3 0.889086 0.403077 0.709611 0.472143
O16   O     O_3   0.373690 0.535540 0.586160 -0.371746
O17   O     O_3   0.872560 0.404620 0.618320 -0.349237
O18   O     O_2   0.756904 0.449947 0.740884 -0.365172
O19   O     O_3   0.818600 0.318435 0.718804 -0.524033
Ba2   Ba    Ba6+2 0.658180 0.465080 0.530610 1.596142
P6    P     P_3+3 0.383846 0.720973 0.421941 0.428997
C10   C     C_3   0.381052 0.705927 0.287081 0.397779
H17   H     H_    0.512924 0.717998 0.297450 -0.074123
H18   H     H_    0.411775 0.709897 0.176300 -0.006003
O20   O     O_3   0.436600 0.464450 0.413780 -0.401540
C11   C     C_3   0.323713 0.674036 0.718632 0.394728
H19   H     H_    0.301727 0.707302 0.677434 0.132863
H20   H     H_    0.223053 0.633902 0.712476 0.084778
C12   C     C_3   0.324521 0.721331 0.791170 -0.991139
H21   H     H_    0.428998 0.760592 0.799994 0.262023
H22   H     H_    0.210585 0.750053 0.793545 0.252350
H23   H     H_    0.332667 0.688893 0.833795 0.251858
P7    P     P_3+3 0.448540 0.553528 0.677425 0.464813
O21   O     O_2   0.628980 0.533090 0.672420 -0.343982
O22   O     O_3   0.474734 0.644321 0.711844 -0.579671
H24   H     H_    0.773257 0.761403 0.211126 0.072232
C13   C     C_3   0.938422 0.282705 0.753527 1.114300
H25   H     H_    0.060267 0.309356 0.758623 -0.145783
C14   C     C_3   0.893458 0.280703 0.828624 -0.931190
H26   H     H_    0.780633 0.247209 0.826287 0.249179
H27   H     H_    0.991772 0.258048 0.859044 0.202857
H28   H     H_    0.873545 0.334731 0.857075 0.221255
P8    P     P_3+3 0.419740 0.281936 0.591563 0.491044
C15   C     C_3   0.355224 0.253971 0.715506 0.248167
H29   H     H_    0.239692 0.239532 0.682041 0.051476
O23   O     O_2   0.548822 0.240658 0.550232 -0.400423
O24   O     O_3   0.481468 0.279655 0.680829 -0.470002
H30   H     H_    0.330134 0.297402 0.758688 0.100986
C16   C     C_3   0.409301 0.190799 0.749011 -0.321271
H31   H     H_    0.511663 0.208626 0.790100 0.151277
C17   C     C_R   0.955059 0.198329 0.449897 -0.333568
H32   H     H_    0.874268 0.179818 0.402562 0.149342
C18   C     C_R   0.986596 0.272371 0.470419 0.277165
C19   C     C_R   0.149081 0.180041 0.545160 -0.309893
H33   H     H_    0.202693 0.149056 0.581804 0.139523
C20   C     C_R   0.210612 0.250391 0.551202 0.190719
C21   C     C_R   0.689152 0.799878 0.426350 -0.365792
H34   H     H_    0.651082 0.810692 0.374571 0.169946
C22   C     C_R   0.598454 0.749649 0.453442 0.186422
C23   C     C_R   0.903440 0.798880 0.518425 -0.261547
H35   H     H_    0.014671 0.818824 0.550029 0.158979
C24   C     C_R   0.834542 0.732755 0.529061 0.194601
C25   C     C_R   0.024601 0.149796 0.491030 0.118307
C26   C     C_R   0.118716 0.297247 0.519218 -0.403973
H36   H     H_    0.156122 0.352829 0.528905 0.155719
C27   C     C_R   0.822844 0.838213 0.468771 0.108387
C28   C     C_R   0.670757 0.720818 0.508696 -0.265943
C29   C     C_R   0.254538 0.034536 0.502399 -0.177485
C30   C     C_R   0.362333 0.985676 0.520116 -0.124415
C31   C     C_R   0.315447 0.914799 0.505644 -0.080408
C32   C     C_R   0.158446 0.894214 0.477193 -0.161676
C33   C     C_R   0.037294 0.942693 0.477635 0.024698
C34   C     C_R   0.086509 0.016629 0.487125 0.082580
C35   C     C_R   0.873481 0.916525 0.462163 -0.008863
C36   C     C_R   0.762612 0.967276 0.442299 0.114896
C37   C     C_R   0.808704 0.042125 0.453313 -0.014709
C38   C     C_R   0.971929 0.069103 0.477865 -0.051992
C39   C     C_R   0.604318 0.946572 0.410275 -0.199896
C40   C     C_R   0.506032 0.991737 0.380551 -0.327646
C41   C     C_R   0.542267 0.064435 0.397065 0.700410
C42   C     C_R   0.684893 0.088245 0.440136 -0.321933
H37   H     H_    0.309083 0.084650 0.497494 0.165109
H38   H     H_    0.488148 0.001682 0.536026 0.139120
H39   H     H_    0.404656 0.876181 0.510895 0.143566
H40   H     H_    0.129914 0.840485 0.452180 0.188867
H41   H     H_    0.541108 0.898119 0.410917 0.158491
H42   H     H_    0.391711 0.969302 0.352937 0.139914
H43   H     H_    0.694563 0.143431 0.463308 0.193263
C43   C     C_R   0.593036 0.537549 0.300358 -0.476398
C44   C     C_R   0.453138 0.495392 0.275116 0.146292
C45   C     C_R   0.399607 0.485253 0.201845 0.478050
C46   C     C_R   0.494511 0.514661 0.154988 -0.082254
C47   C     C_R   0.646728 0.548123 0.181132 -0.356794
C48   C     C_R   0.696797 0.558697 0.253839 0.196343
C49   C     C_R   0.333558 0.554619 0.054551 -0.322095
C50   C     C_R   0.282960 0.549631 0.981462 0.569402
C51   C     C_R   0.327992 0.491721 0.932390 -0.243672
C52   C     C_R   0.428575 0.441545 0.956350 0.530972
C53   C     C_R   0.494481 0.452116 0.027827 -0.174813
C54   C     C_R   0.440958 0.506977 0.077961 0.057072
C55   C     C_R   0.133022 0.450197 0.824407 -0.277535
C56   C     C_R   0.090823 0.440926 0.750929 0.130057
C57   C     C_R   0.341280 0.504681 0.736574 0.211309
C58   C     C_R   0.382482 0.515207 0.810858 -0.097940
C59   C     C_R   0.280580 0.485572 0.854687 0.192710
C60   C     C_R   0.197749 0.466171 0.707547 -0.425087
H44   H     H_    0.290913 0.596078 0.093299 0.147229
H45   H     H_    0.050637 0.431003 0.858142 0.134711
H46   H     H_    0.726090 0.565479 0.145016 0.185225
H47   H     H_    0.163341 0.460472 0.651128 0.163860
C61   C     C_1   0.658277 0.296619 0.207180 0.289061
N1    N     N_1   0.587894 0.242817 0.186867 -0.060868
O25   O     O_3   0.872808 0.669909 0.766469 -0.635912
C62   C     C_3   0.935783 0.602618 0.765953 -0.041068
H48   H     H_    0.927825 0.568295 0.712259 0.122462
H49   H     H_    0.870521 0.574353 0.801697 0.175171
H50   H     H_    0.063528 0.609582 0.789853 0.114762
C63   C     C_1   0.325868 0.279700 0.384187 0.102472
N2    N     N_1   0.399544 0.249951 0.421848 0.033115
O26   O     O_3   0.240749 0.223863 0.234590 -0.569037
C64   C     C_3   0.147914 0.179040 0.178222 -0.248055
H51   H     H_    0.080597 0.210129 0.142786 0.130089
H52   H     H_    0.063100 0.142691 0.198214 0.126477
H53   H     H_    0.230929 0.146072 0.146027 0.171261
O27   O     O_3   0.301953 0.801036 0.224740 -0.604273
C65   C     C_3   0.446451 0.839151 0.219248 -0.167154
H54   H     H_    0.491431 0.823129 0.166284 0.127082
H55   H     H_    0.539415 0.833066 0.262456 0.175453
H56   H     H_    0.422498 0.896171 0.225284 0.147663
O28   O     O_3   0.953242 0.211570 0.718566 -0.680693
C66   C     C_3   0.860628 0.194906 0.651379 -0.101359
H57   H     H_    0.729145 0.196113 0.657967 0.203762
H58   H     H_    0.884252 0.140353 0.625946 0.138865
H59   H     H_    0.894291 0.231863 0.615497 0.153086
C67   C     C_1   0.277352 0.161247 0.782948 0.080220
N3    N     N_1   0.174135 0.137545 0.809870 -0.055206
C68   C     C_1   0.463267 0.134230 0.696194 0.164550
N4    N     N_1   0.507315 0.089352 0.655117 -0.110083
C69   C     C_1   0.569478 0.686471 0.549161 0.121536
N5    N     N_1   0.478445 0.660994 0.579791 0.009636
O29   O     O_3   0.439864 0.115195 0.378459 -0.620678
C70   C     C_3   0.302685 0.087567 0.331785 -0.246806
H60   H     H_    0.219067 0.056279 0.357921 0.123513
H61   H     H_    0.338160 0.056595 0.281406 0.140960
H62   H     H_    0.233986 0.132087 0.318161 0.198513
C71   C     C_1   0.520131 0.561062 0.843562 0.152483
N6    N     N_1   0.628322 0.598412 0.870980 -0.063750
O30   O     O_3   0.180528 0.597532 0.957147 -0.606683
C72   C     C_3   0.245442 0.667556 0.980794 -0.242516
H63   H     H_    0.378151 0.672673 0.975787 0.125383
H64   H     H_    0.219106 0.687249 0.036328 0.146568
H65   H     H_    0.185361 0.702217 0.947122 0.183345
O31   O     O_3   0.248946 0.452305 0.178123 -0.574191
C73   C     C_3   0.265789 0.382259 0.143549 -0.125955
H66   H     H_    0.156238 0.349887 0.149623 0.152581
H67   H     H_    0.372163 0.357154 0.165867 0.130922
H68   H     H_    0.270968 0.380369 0.085767 0.111241
O32   O     O_3   0.460133 0.381316 0.909522 -0.588006
C74   C     C_3   0.352769 0.326077 0.919949 -0.243538
H69   H     H_    0.223467 0.340643 0.915229 0.123555
H70   H     H_    0.384176 0.310144 0.972271 0.132118
H71   H     H_    0.364511 0.279049 0.878570 0.161698
O33   O     O_3   0.858951 0.846186 0.287769 -0.631412
C75   C     C_3   0.999574 0.890815 0.292569 -0.161237
H72   H     H_    0.104019 0.869292 0.320442 0.183772
H73   H     H_    0.977642 0.943264 0.323630 0.144549
H74   H     H_    0.028401 0.899232 0.239104 0.147840
C76   C     C_1   0.614133 0.405175 0.048890 0.138094
N7    N     N_1   0.710184 0.367405 0.064981 -0.098432
C77   C     C_1   0.628926 0.559108 0.374706 0.259754
N8    N     N_1   0.654932 0.576098 0.434961 -0.005269

loop_
_geom_bond_atom_site_label_1
_geom_bond_atom_site_label_2
_geom_bond_distance
_ccdc_geom_bond_type
C6    C7    1.530729 S    
P4    O12   1.522564 D    
C56   C60   1.400034 A    
C74   H69   1.121093 S    
C4    O15   1.400001 S    
C2    C3    1.530205 S    
C77   N8    1.145334 T    
P6    C22   1.863622 S    
C41   C42   1.398215 A    
C11   O22   1.405855 S    
C51   C52   1.412541 A    
C40   H42   1.082332 S    
C57   C60   1.398357 A    
C62   H48   1.117839 S    
C73   H66   1.110098 S    
C39   H41   1.055572 S    
C46   C47   1.407730 A    
C64   H52   1.113030 S    
C13   O28   1.429591 S    
C72   H63   1.117725 S    
C55   H45   1.080864 S    
P5    O18   1.542907 D    
C25   C38   1.568095 S    
C5    H8    1.103327 S    
C49   C50   1.416136 A    
O3    P6    1.736649 S    
O1    Ba1   2.871139 S    
C17   C25   1.433225 A    
O7    Ba1   2.841785 S    
O27   C65   1.405238 S    
O6    P6    1.749820 S    
C41   O29   1.393068 S    
C51   C59   1.493553 S    
Ba1   Ba2   4.585053 S    
C6    H10   1.105037 S    
C8    C63   1.449535 S    
C11   H20   1.101132 S    
C36   C37   1.450499 A    
C6    O25   1.419249 S    
O31   C73   1.411784 S    
C12   H22   1.114863 S    
P1    O1    1.522174 D    
Ba2   O21   2.842106 S    
C4    C5    1.527492 S    
O2    Ba1   2.951507 S    
C40   C41   1.394415 A    
C74   H71   1.107808 S    
C65   H54   1.111171 S    
C49   H44   1.083662 S    
C26   H36   1.081903 S    
C1    O27   1.413772 S    
C55   C56   1.403138 A    
P8    O23   1.550166 D    
C52   O32   1.385001 S    
P3    O11   1.745747 S    
C4    H6    1.103460 S    
C64   H53   1.109168 S    
O4    P6    1.540457 D    
C14   H26   1.110795 S    
C1    H18   1.112701 S    
C3    O33   1.415750 S    
C15   C16   1.537222 S    
O3    Ba1   2.786181 S    
C72   H65   1.111232 S    
C55   C59   1.406924 A    
O12   Ba2   2.871516 S    
C75   H74   1.112593 S    
C27   C35   1.579431 S    
C45   O31   1.384520 S    
O33   C75   1.410690 S    
C76   N7    1.158506 T    
C65   H55   1.109059 S    
C70   H60   1.110792 S    
C3    H5    1.113387 S    
C3    H24   1.110278 S    
C43   C77   1.417586 S    
P4    O13   1.574429 S    
P2    C44   1.866259 S    
C16   C67   1.469621 S    
C62   H49   1.111958 S    
C37   C38   1.442893 A    
C72   H64   1.111042 S    
O28   C66   1.422950 S    
C66   H58   1.109590 S    
O17   Ba2   2.774699 S    
P7    C57   1.860372 S    
C73   H67   1.113084 S    
C19   C20   1.410919 A    
P1    O5    1.755835 S    
C31   C32   1.385405 A    
C58   C59   1.417481 A    
C30   H38   1.081139 S    
C58   C71   1.444250 S    
C23   H35   1.079013 S    
O2    Ba2   2.805855 S    
C43   C48   1.394467 A    
C13   H25   1.106434 S    
C11   C12   1.523667 S    
O16   Ba2   2.956489 S    
P3    C48   1.844535 S    
C19   H33   1.078969 S    
P4    C18   1.869682 S    
O30   C72   1.414408 S    
C20   C26   1.393269 A    
C12   H21   1.110648 S    
P1    O2    1.574598 S    
C18   C26   1.391891 A    
C7    H12   1.110338 S    
C15   H29   1.105618 S    
C7    H13   1.103235 S    
C23   C24   1.430756 A    
C66   H59   1.118739 S    
C19   C25   1.430058 A    
C29   C30   1.388279 A    
P3    O9    1.540547 D    
O26   C64   1.409781 S    
C14   H28   1.111688 S    
P1    Ba1   3.443381 S    
O11   C2    1.404221 S    
C43   C44   1.391956 A    
C33   C35   1.421625 A    
C37   C42   1.419419 A    
C23   C27   1.454337 A    
O14   P8    1.750825 S    
C44   C45   1.416355 A    
C70   H61   1.112937 S    
O14   Ba2   2.785726 S    
C13   C14   1.528373 S    
C68   N4    1.156163 T    
O5    C6    1.411886 S    
Ba1   O16   2.775982 S    
C71   N6    1.156800 T    
C65   H56   1.110603 S    
C17   C18   1.418065 A    
C12   H23   1.113391 S    
P8    O24   1.755881 S    
C67   N3    1.158761 T    
P8    C20   1.873882 S    
C1    C10   1.531306 S    
O6    C10   1.408074 S    
O8    Ba1   2.774027 S    
C53   C76   1.448025 S    
C9    O26   1.413555 S    
C34   C38   1.437339 A    
C62   H50   1.113164 S    
O29   C70   1.412579 S    
C52   C53   1.410759 A    
C1    H2    1.105038 S    
C70   H62   1.104277 S    
O32   C74   1.414822 S    
C60   H47   1.082137 S    
C8    H14   1.105921 S    
C74   H70   1.114690 S    
C46   C54   1.488025 S    
C47   H46   1.083124 S    
Ba2   O20   2.775440 S    
C21   C22   1.401809 A    
C16   H31   1.109338 S    
C73   H68   1.109166 S    
H1    C10   1.111722 S    
C29   H37   1.073062 S    
C42   H43   1.074003 S    
O16   P7    1.778317 S    
C10   H17   1.105267 S    
C57   C58   1.415499 A    
Ba1   O20   2.957266 S    
P4    Ba2   3.443831 S    
C66   H57   1.111709 S    
C35   C36   1.445054 A    
P5    O19   1.754014 S    
C5    H9    1.108371 S    
O25   C62   1.414107 S    
C50   O30   1.391412 S    
C7    H11   1.110932 S    
C8    C9    1.530588 S    
C53   C54   1.411364 A    
P3    O8    1.766181 S    
C21   C27   1.418459 A    
C5    C61   1.468879 S    
C63   N2    1.150090 T    
O10   C8    1.395392 S    
P5    C56   1.856068 S    
C9    H16   1.114579 S    
P2    O7    1.523500 D    
O13   Ba2   2.952356 S    
C11   H19   1.110425 S    
C9    H15   1.108620 S    
O19   C13   1.417315 S    
C49   C54   1.406543 A    
C31   H39   1.080681 S    
P7    O21   1.571591 D    
C30   C31   1.377525 A    
C22   C28   1.385335 A    
C29   C34   1.418543 A    
C2    H4    1.108386 S    
C4    H7    1.111086 S    
C32   C33   1.398176 A    
C15   O24   1.410028 S    
P2    O10   1.747855 S    
C32   H40   1.069121 S    
C75   H72   1.112248 S    
C28   C69   1.415495 S    
P5    O17   1.753324 S    
C21   H34   1.075623 S    
P2    Ba1   3.430202 S    
P1    C24   1.906120 S    
C17   H32   1.080084 S    
C69   N5    1.144880 T    
C33   C34   1.441364 A    
C2    H3    1.110465 S    
P4    O15   1.747035 S    
C61   N1    1.157106 T    
C14   H27   1.110753 S    
C64   H51   1.112677 S    
C45   C46   1.422367 A    
C39   C40   1.377577 A    
C15   H30   1.108703 S    
C24   C28   1.382508 A    
C16   C68   1.463830 S    
Ba1   O13   2.805267 S    
P2    O20   1.553699 S    
C50   C51   1.411945 A    
P7    O22   1.754229 S    
C47   C48   1.399597 A    
C75   H73   1.108525 S    
C36   C39   1.414840 A    
