data_mof_unit_65291.cif
_audit_creation_date              2012-12-10T18:08:07-0500
_audit_creation_method            fapswitch 2.2
_symmetry_space_group_name_H-M    P1
_symmetry_Int_Tables_number       1
_space_group_crystal_system       triclinic
_cell_length_a                    18.736209
_cell_length_b                    18.73556
_cell_length_c                    18.68255
_cell_angle_alpha                 109.484635
_cell_angle_beta                  109.501327
_cell_angle_gamma                 109.498713
_cell_volume                      5044.07408187

loop_
_atom_site_label
_atom_site_type_symbol
_atom_type_description
_atom_site_fract_x
_atom_site_fract_y
_atom_site_fract_z
_atom_type_partial_charge
C1    C     C_R   0.379835 0.499964 0.379655 0.860749
C2    C     C_R   0.313896 0.499941 0.313356 -0.010171
C3    C     C_R   0.321400 0.241841 0.499335 -0.179099
C4    C     C_R   0.620113 0.619942 0.500087 0.886565
C5    C     C_R   0.258155 0.178617 0.500689 -0.180049
C6    C     C_R   0.186332 0.186404 0.499931 -0.011094
C7    C     C_R   0.177826 0.257492 0.499184 -0.181031
C8    C     C_R   0.242457 0.322104 0.500599 -0.182452
C9    C     C_R   0.313596 0.313629 0.499990 -0.012974
C10   C     C_R   0.757559 0.499784 0.677946 -0.179997
C11   C     C_R   0.822137 0.501008 0.742528 -0.157846
C12   C     C_R   0.743366 0.818340 0.499730 0.044769
C13   C     C_R   0.813704 0.500249 0.813828 -0.005551
C14   C     C_R   0.742088 0.499715 0.821948 -0.180140
C15   C     C_R   0.678859 0.501201 0.758718 -0.177480
C16   C     C_R   0.620307 0.500166 0.620357 0.857911
C17   C     C_R   0.686569 0.500500 0.686688 -0.010084
C18   C     C_R   0.999831 0.879784 0.379619 0.853762
C19   C     C_R   0.880091 0.879965 0.499966 0.872568
C20   C     C_R   0.000029 0.120192 0.620420 0.888265
C21   C     C_R   0.120231 0.120303 0.499987 0.853036
C22   C     C_R   0.999925 0.620305 0.120225 0.851344
C23   C     C_3   0.700079 0.872141 0.501372 0.505761
C24   C     C_R   0.120243 0.500089 0.120320 0.849074
C25   C     C_R   0.999740 0.379875 0.879669 0.928052
C26   C     C_R   0.879780 0.500110 0.879877 0.875491
C27   C     C_R   0.998955 0.821304 0.241352 -0.180469
C28   C     C_R   0.379742 0.379742 0.499997 0.858325
C29   C     C_R   0.000460 0.758075 0.178160 -0.181308
C30   C     C_R   0.999739 0.686374 0.186221 -0.008009
C31   C     C_R   0.998745 0.677846 0.257414 -0.181171
C32   C     C_R   0.999956 0.742421 0.321962 -0.180193
C33   C     C_R   0.999457 0.813506 0.313289 -0.005735
C34   C     C_3   0.629827 0.801871 0.503363 -0.535082
C35   C     C_R   0.920262 0.180731 0.675214 -0.268395
C36   C     C_R   0.919829 0.244141 0.739297 0.632378
C37   C     C_R   0.999412 0.313654 0.813332 -0.154726
C38   C     C_R   0.079053 0.319632 0.824242 -0.269992
C39   C     C_R   0.079222 0.254893 0.761250 -0.173004
C40   C     C_R   0.682794 0.757736 0.502428 0.018296
C41   C     C_R   0.999872 0.186104 0.686726 -0.107329
C42   C     C_R   0.686874 0.685000 0.500913 -0.054049
C43   C     C_R   0.757941 0.676097 0.498728 -0.208378
C44   C     C_R   0.822981 0.741142 0.499256 -0.195799
C45   C     C_R   0.241955 0.420267 0.242073 -0.182735
C46   C     C_R   0.815065 0.813233 0.499150 -0.099035
C47   C     C_R   0.177221 0.420326 0.178928 -0.182253
C48   C     C_R   0.186439 0.500019 0.186368 -0.010782
C49   C     C_R   0.259156 0.579671 0.256917 -0.173780
C50   C     C_R   0.322570 0.579655 0.321430 -0.176383
F1    F     F_    0.842535 0.239023 0.728352 -0.660165
F2    F     F_    0.668444 0.873182 0.423579 -0.622203
H1    H     H_    0.763621 0.620153 0.497821 0.152148
H2    H     H_    0.999959 0.736486 0.377719 0.141111
H3    H     H_    0.858848 0.127057 0.617405 0.180170
H4    H     H_    0.140504 0.373437 0.881888 0.171950
H5    H     H_    0.140879 0.259106 0.769729 0.162241
H6    H     H_    0.628961 0.825920 0.565915 0.175435
H7    H     H_    0.564747 0.762722 0.442620 0.227186
H8    H     H_    0.235398 0.358616 0.236333 0.145497
H9    H     H_    0.120925 0.358686 0.123845 0.146737
H10   H     H_    0.265898 0.641347 0.262577 0.150496
H11   H     H_    0.122197 0.263480 0.498971 0.146655
H12   H     H_    0.378749 0.641289 0.376684 0.143897
H13   H     H_    0.877654 0.501079 0.736354 0.147624
H14   H     H_    0.736056 0.499537 0.877606 0.146113
H15   H     H_    0.000806 0.764180 0.122581 0.145975
H16   H     H_    0.998515 0.622262 0.263544 0.144899
H17   H     H_    0.739574 0.937654 0.561542 0.055754
H18   H     H_    0.376867 0.235690 0.499226 0.150160
H19   H     H_    0.264328 0.123185 0.500896 0.148309
H20   H     H_    0.236455 0.377703 0.500723 0.145778
H21   H     H_    0.763426 0.499618 0.622115 0.141546
H22   H     H_    0.623458 0.501371 0.765000 0.146939
H23   H     H_    0.998942 0.876777 0.235125 0.145593
H24   H     H_    0.878134 0.734694 0.498546 0.153307
O1    O     O_R   0.408340 0.551690 0.460080 -0.624614
O2    O     O_R   0.051700 0.643420 0.091650 -0.622076
O3    O     O_R   0.039910 0.448390 0.091720 -0.628244
O4    O     O_R   0.408400 0.448280 0.356690 -0.617820
O5    O     O_R   0.143340 0.551810 0.091690 -0.620265
O6    O     O_R   0.948300 0.356760 0.908530 -0.577464
O7    O     O_R   0.051730 0.460180 0.908500 -0.630870
O8    O     O_R   0.856660 0.448370 0.908490 -0.602534
O9    O     O_R   0.960090 0.551790 0.908450 -0.630508
O10   O     O_R   0.591580 0.643330 0.551700 -0.619997
O11   O     O_R   0.591640 0.539920 0.448310 -0.623219
O12   O     O_R   0.948260 0.908480 0.356680 -0.617836
O13   O     O_R   0.591600 0.551720 0.643310 -0.621356
O14   O     O_R   0.591660 0.448310 0.539920 -0.621467
O15   O     O_R   0.408360 0.460080 0.551690 -0.621788
O16   O     O_R   0.408420 0.356670 0.448300 -0.620870
O17   O     O_R   0.051710 0.908420 0.460050 -0.626462
O18   O     O_R   0.960120 0.908380 0.551680 -0.632108
O19   O     O_R   0.856660 0.908440 0.448310 -0.573830
O20   O     O_R   0.051740 0.091590 0.643330 -0.623405
O21   O     O_R   0.948290 0.091650 0.539960 -0.614428
O22   O     O_R   0.143330 0.091630 0.551690 -0.622339
O23   O     O_R   0.039880 0.091690 0.448320 -0.624175
O24   O     O_R   0.948270 0.540000 0.091680 -0.625719
Zn1   Zn    Zn3+2 0.499960 0.569050 0.569040 0.961906
Zn2   Zn    Zn3+2 0.500040 0.430950 0.430960 0.969147
Zn3   Zn    Zn3+2 0.069080 0.999990 0.569020 0.958905
Zn4   Zn    Zn3+2 0.930920 0.000070 0.430980 1.013519
Zn5   Zn    Zn3+2 0.930940 0.431040 0.000110 0.998896
Zn6   Zn    Zn3+2 0.069060 0.569140 0.000070 0.968101

loop_
_geom_bond_atom_site_label_1
_geom_bond_atom_site_label_2
_ccdc_geom_bond_type
C45   H8    S    
C16   O14   A    
C27   C29   A    
C50   H12   S    
C23   H17   S    
O1    Zn1   S    
C35   C36   A    
C43   C44   A    
O17   Zn3   S    
C20   C41   S    
C19   C46   S    
C7    C8    A    
C39   C41   A    
C4    O11   A    
C27   C33   A    
C12   C23   S    
O24   Zn5   S    
C29   C30   A    
C34   C40   S    
C36   C37   A    
C5    C6    A    
C21   O23   A    
C10   H21   S    
C4    O10   A    
C10   C17   A    
O22   Zn3   S    
C39   H5    S    
C1    O1    A    
O3    Zn5   S    
C1    C2    S    
O6    Zn5   S    
C44   H24   S    
O14   Zn2   S    
C2    C50   A    
C25   C37   S    
C29   H15   S    
C43   H1    S    
C20   O21   A    
C31   C32   A    
C8    C9    A    
O16   Zn2   S    
C40   C42   A    
O23   Zn4   S    
C20   O20   A    
C16   O13   A    
C13   C14   A    
O15   Zn1   S    
C27   H23   S    
C32   H2    S    
O12   Zn4   S    
C44   C46   A    
C45   C47   A    
C2    C45   A    
C31   H16   S    
C8    H20   S    
C22   O24   A    
C35   H3    S    
C24   C48   S    
C3    H18   S    
C38   C39   A    
C22   O2    A    
C12   C46   A    
C16   C17   S    
C6    C21   S    
C18   O12   A    
O4    Zn2   S    
C12   C40   A    
C24   O5    A    
C37   C38   A    
C3    C9    A    
O11   Zn2   S    
C24   O3    A    
C47   C48   A    
C23   C34   S    
O8    Zn5   S    
C14   H14   S    
C28   O16   A    
C36   F1    S    
C7    H11   S    
C19   O18   A    
C48   C49   A    
O18   Zn3   S    
C25   O6    A    
C13   C26   S    
C42   C43   A    
O9    Zn6   S    
C19   O19   A    
O19   Zn4   S    
C25   O7    A    
C15   C17   A    
O5    Zn6   S    
C26   O8    A    
C49   H10   S    
C22   C30   S    
O13   Zn1   S    
C34   H7    S    
C3    C5    A    
C47   H9    S    
C6    C7    A    
O7    Zn6   S    
O2    Zn6   S    
C32   C33   A    
C5    H19   S    
C21   O22   A    
C11   C13   A    
C23   F2    S    
C30   C31   A    
C4    C42   S    
C26   O9    A    
C28   O15   A    
C35   C41   A    
C18   C33   S    
O21   Zn4   S    
C10   C11   A    
C15   H22   S    
C38   H4    S    
C49   C50   A    
O20   Zn3   S    
C34   H6    S    
C18   O17   A    
C14   C15   A    
C1    O4    A    
O10   Zn1   S    
C11   H13   S    
C9    C28   S    
