data_mof_unit_31756.cif
_audit_creation_date              2012-12-10T18:57:04-0500
_audit_creation_method            fapswitch 2.2
_symmetry_space_group_name_H-M    P1
_symmetry_Int_Tables_number       1
_space_group_crystal_system       triclinic
_cell_length_a                    10.759439
_cell_length_b                    10.003698
_cell_length_c                    10.692978
_cell_angle_alpha                 97.750934
_cell_angle_beta                  94.410485
_cell_angle_gamma                 90.164383
_cell_volume                      1136.93542293

loop_
_atom_site_label
_atom_site_type_symbol
_atom_type_description
_atom_site_fract_x
_atom_site_fract_y
_atom_site_fract_z
_atom_type_partial_charge
C1    C     C_R   0.259699 0.499367 0.496981 0.962221
C2    C     C_R   0.739231 0.498633 0.494094 0.920703
C3    C     C_R   0.578785 0.085554 0.584115 0.238493
C4    C     C_R   0.422563 0.054481 0.416891 0.184890
C5    C     C_R   0.583985 0.940400 0.579873 0.151410
C6    C     C_R   0.408180 0.916896 0.435308 0.230030
C7    C     C_R   0.504837 0.493051 0.259001 0.867964
C8    C     C_R   0.497101 0.508855 0.739785 0.882592
C9    C     C_R   0.598709 0.564797 0.074613 0.140043
C10   C     C_R   0.587373 0.582065 0.949036 0.069096
C11   C     C_R   0.515771 0.481582 0.123811 -0.214770
C12   C     C_R   0.484691 0.527930 0.872287 -0.147305
C13   C     C_R   0.427669 0.406273 0.039182 -0.213721
C14   C     C_R   0.400699 0.442352 0.918126 -0.100141
C15   C     C_3   0.630967 0.725715 0.978402 -0.490113
C16   C     C_3   0.647459 0.704295 0.116444 -0.447323
C17   C     C_R   0.060040 0.375682 0.437094 0.110888
C18   C     C_R   0.932445 0.370316 0.450519 0.122017
C19   C     C_R   0.870746 0.494093 0.478471 -0.203410
C20   C     C_R   0.125302 0.497178 0.482874 -0.186329
C21   C     C_R   0.934629 0.615366 0.476301 0.126027
C22   C     C_R   0.059801 0.615087 0.521703 0.120195
H1    H     H_    0.720556 0.742764 0.937280 0.201286
H2    H     H_    0.586080 0.768163 0.177515 0.220929
H3    H     H_    0.556390 0.798451 0.958356 0.230770
H4    H     H_    0.746800 0.703194 0.151811 0.213493
N1    N     N_R   0.500000 0.857200 0.500000 -0.184267
N2    N     N_R   0.500000 0.142810 0.500000 -0.156757
O1    O     O_R   0.316770 0.614620 0.499990 -0.613627
O2    O     O_R   0.683230 0.614620 0.500010 -0.616134
O3    O     O_R   0.316800 0.385290 0.500000 -0.591708
O4    O     O_R   0.683200 0.385290 0.500000 -0.586348
O5    O     O_R   0.500000 0.614690 0.316780 -0.635608
O6    O     O_R   0.500000 0.614690 0.683220 -0.636633
O7    O     O_R   0.500020 0.385360 0.316780 -0.643940
O8    O     O_R   0.499980 0.385360 0.683220 -0.584413
Zn1   Zn    Zn3+2 0.500000 0.653120 0.500000 0.927315
Zn2   Zn    Zn3+2 0.500000 0.346880 0.500000 0.975325
C23   C     C_2   0.408147 0.265894 0.052586 0.947309
O9    O     O_2   0.303291 0.217321 0.037187 -0.625982
O10   O     O_R   0.511725 0.183501 0.064591 -0.825117
H5    H     H_    0.594816 0.233066 0.073355 0.302663
C24   C     C_2   0.290670 0.384583 0.835363 0.974703
O11   O     O_2   0.286214 0.264831 0.792489 -0.605807
O12   O     O_R   0.194243 0.469744 0.803384 -0.819042
H6    H     H_    0.124431 0.419777 0.746645 0.328023
N3    N     N_2   0.120258 0.263749 0.372268 -0.284508
H7    H     H_    0.087445 0.171049 0.386742 0.227472
C25   C     C_3   0.127361 0.273762 0.239565 -0.712360
H8    H     H_    0.035376 0.299365 0.194848 0.230351
H9    H     H_    0.155162 0.175087 0.190259 0.271464
H10   H     H_    0.196623 0.352934 0.228280 0.243734
N4    N     N_2   0.867229 0.243790 0.433697 -0.284756
H11   H     H_    0.910419 0.168134 0.476645 0.197882
C26   C     C_3   0.809838 0.199344 0.307980 -0.714264
H12   H     H_    0.879639 0.149982 0.246524 0.218210
H13   H     H_    0.767675 0.285334 0.264817 0.238732
H14   H     H_    0.734831 0.124595 0.314212 0.235160
N5    N     N_2   0.904265 0.678100 0.366034 -0.292757
H15   H     H_    0.965537 0.657727 0.296513 0.216955
C27   C     C_3   0.864175 0.816603 0.384749 -0.811327
H16   H     H_    0.859576 0.858586 0.293639 0.222700
H17   H     H_    0.931108 0.880010 0.450833 0.233491
H18   H     H_    0.769740 0.822105 0.419226 0.293799
N6    N     N_2   0.093607 0.682591 0.645949 -0.276614
H19   H     H_    0.027409 0.672528 0.709092 0.227797
C28   C     C_3   0.140217 0.819472 0.656494 -0.671540
H20   H     H_    0.068246 0.886294 0.620325 0.210953
H21   H     H_    0.225441 0.823770 0.605866 0.286909
H22   H     H_    0.165551 0.857501 0.757636 0.241276
N7    N     N_2   0.654158 0.172816 0.675554 -0.251418
H23   H     H_    0.747207 0.179144 0.660728 0.219634
C29   C     C_3   0.626358 0.175958 0.806102 -0.659353
H24   H     H_    0.663784 0.271320 0.861503 0.208234
H25   H     H_    0.669761 0.090573 0.848263 0.240041
H26   H     H_    0.524076 0.171882 0.813178 0.283663
N8    N     N_2   0.374860 0.088298 0.298085 -0.293320
H27   H     H_    0.381239 0.188268 0.288410 0.292298
C30   C     C_3   0.413230 0.995946 0.190250 -0.684024
H28   H     H_    0.360232 0.012821 0.101855 0.301721
H29   H     H_    0.391802 0.889310 0.194312 0.206990
H30   H     H_    0.515608 0.002919 0.184951 0.256494
N9    N     N_2   0.663105 0.883527 0.671635 -0.289415
H31   H     H_    0.638646 0.790342 0.691400 0.283985
C31   C     C_3   0.796432 0.907073 0.678927 -0.847645
H32   H     H_    0.822896 0.976841 0.613297 0.233224
H33   H     H_    0.844198 0.810045 0.655585 0.259601
H34   H     H_    0.829869 0.949521 0.776930 0.247389
N10   N     N_2   0.303196 0.837266 0.379124 -0.273775
H35   H     H_    0.318508 0.750659 0.319185 0.260196
C32   C     C_3   0.183898 0.899925 0.360493 -0.828534
H36   H     H_    0.168191 0.976902 0.442358 0.244824
H37   H     H_    0.111367 0.821259 0.353064 0.256114
H38   H     H_    0.176166 0.944338 0.270774 0.264426

loop_
_geom_bond_atom_site_label_1
_geom_bond_atom_site_label_2
_ccdc_geom_bond_type
C26   H12   S    
O6    Zn1   S    
C29   H25   S    
O10   H5    S    
N4    C26   S    
N3    C25   S    
N4    H11   S    
C7    C11   S    
C3    N2    A    
C19   C21   A    
C9    C16   S    
C21   N5    S    
C10   C15   S    
C31   H32   S    
C5    N9    S    
C15   H3    S    
C15   C16   S    
C1    O3    A    
C17   C20   A    
C2    O4    A    
C18   C19   A    
C8    O8    A    
C27   H17   S    
C18   N4    S    
C5    N1    A    
N3    H7    S    
C25   H9    S    
O4    Zn2   S    
N10   C32   S    
C9    C10   A    
C6    N1    A    
C15   H1    S    
N5    H15   S    
C16   H2    S    
C21   C22   A    
C7    O5    A    
C4    N2    A    
N8    C30   S    
C29   H24   S    
C16   H4    S    
N5    C27   S    
C31   H33   S    
C28   H20   S    
O7    Zn2   S    
C4    C6    A    
C23   O9    D    
C30   H29   S    
N6    C28   S    
N8    H27   S    
O5    Zn1   S    
O2    Zn1   S    
C28   H21   S    
C27   H18   S    
C3    N7    S    
C24   O11   D    
C22   N6    S    
C32   H37   S    
C9    C11   A    
N9    H31   S    
N2    Zn2   S    
C8    C12   S    
C25   H10   S    
C1    O1    A    
C17   C18   A    
C8    O6    A    
C24   O12   S    
C10   C12   A    
N9    C31   S    
C12   C14   A    
C25   H8    S    
C26   H13   S    
C29   H26   S    
C32   H36   S    
N7    C29   S    
C31   H34   S    
C1    C20   S    
C2    C19   S    
C7    O7    A    
C17   N3    S    
C20   C22   A    
C3    C5    A    
C30   H30   S    
C6    N10   S    
O3    Zn2   S    
C2    O2    A    
C28   H22   S    
O8    Zn2   S    
N7    H23   S    
C32   H38   S    
C11   C13   A    
N1    Zn1   S    
C27   H16   S    
C13   C23   S    
C30   H28   S    
O12   H6    S    
C4    N8    S    
C23   O10   S    
N6    H19   S    
C26   H14   S    
O1    Zn1   S    
N10   H35   S    
C13   C14   A    
C14   C24   S    
