data_mof_unit_67322.cif
_audit_creation_date              2012-12-11T18:51:20-0500
_audit_creation_method            fapswitch 2.2
_symmetry_space_group_name_H-M    P1
_symmetry_Int_Tables_number       1
_space_group_crystal_system       triclinic
_cell_length_a                    8.338437
_cell_length_b                    14.960869
_cell_length_c                    14.987914
_cell_angle_alpha                 98.882944
_cell_angle_beta                  98.263596
_cell_angle_gamma                 98.791093
_cell_volume                      1798.61080588

loop_
_atom_site_label
_atom_site_type_symbol
_atom_type_description
_atom_site_fract_x
_atom_site_fract_y
_atom_site_fract_z
_atom_type_partial_charge
Ba1   Ba    Ba6+2 0.844890 0.542420 0.457460 1.663262
Ba2   Ba    Ba6+2 0.344950 0.457650 0.542550 1.678476
C1    C     C_3   0.627295 0.879802 0.239238 -0.090143
C2    C     C_3   0.553594 0.779207 0.236666 0.303421
C3    C     C_3   0.423581 0.317551 0.247332 0.324709
C4    C     C_3   0.448111 0.288315 0.146943 0.126100
C5    C     C_3   0.053284 0.210844 0.767160 0.300595
C6    C     C_3   0.124063 0.183685 0.856364 0.203928
C7    C     C_3   0.610509 0.228470 0.804802 0.465502
C8    C     C_3   0.601158 0.177430 0.884523 -0.298110
C9    C     C_R   0.828524 0.444731 0.828479 -0.038273
C10   C     C_R   0.894553 0.457553 0.922954 -0.020291
C11   C     C_R   0.032757 0.475609 0.112611 -0.019438
C12   C     C_3   0.117842 0.786606 0.224664 0.304632
C13   C     C_R   0.871505 0.428833 0.076641 0.025130
C14   C     C_R   0.801687 0.423939 0.985510 -0.090658
C15   C     C_R   0.102492 0.483803 0.207434 0.087698
C16   C     C_R   0.266044 0.529555 0.236929 -0.298894
C17   C     C_R   0.086587 0.527113 0.798029 0.033303
C18   C     C_R   0.154833 0.539566 0.893270 -0.015963
C19   C     C_R   0.059277 0.503199 0.955485 0.049802
C20   C     C_R   0.315619 0.587020 0.928614 0.008304
C21   C     C_R   0.384747 0.593869 0.020459 -0.065689
C22   C     C_R   0.293147 0.558007 0.082830 -0.025184
C23   C     C_3   0.046119 0.816687 0.136473 0.150332
C24   C     C_R   0.127688 0.513547 0.050779 0.031876
C25   C     C_R   0.363038 0.564468 0.176013 -0.062232
C26   C     C_R   0.927030 0.476714 0.767582 -0.287506
C27   C     C_R   0.330566 0.820365 0.435760 -0.044529
C28   C     C_R   0.583062 0.789861 0.519350 0.062911
C29   C     C_R   0.764639 0.228887 0.514577 -0.228137
C30   C     C_R   0.865526 0.170591 0.546674 -0.000987
C31   C     C_R   0.807065 0.076218 0.533479 -0.123234
C32   C     C_R   0.643303 0.038493 0.489728 0.037719
C33   C     C_R   0.544944 0.098626 0.452480 0.006966
C34   C     C_3   0.276815 0.738711 0.662860 0.345867
C35   C     C_R   0.571928 0.944096 0.484272 0.020451
C36   C     C_R   0.405148 0.912347 0.440298 -0.014857
C37   C     C_R   0.315253 0.973184 0.402289 -0.102784
C38   C     C_R   0.384563 0.063472 0.406728 -0.046468
C39   C     C_R   0.657044 0.881522 0.525388 -0.125863
C40   C     C_R   0.422111 0.759241 0.472163 -0.282894
C41   C     C_R   0.606846 0.193699 0.465013 0.040643
C42   C     C_3   0.302748 0.843510 0.686896 -0.086720
C43   C     C_3   0.909908 0.229533 0.276886 0.542428
C44   C     C_3   0.909492 0.136714 0.212954 0.272781
C45   C     C_3   0.801416 0.676629 0.740132 0.374599
C46   C     C_3   0.779761 0.686668 0.840658 -0.104544
H1    H     H_    0.534762 0.772114 0.307260 -0.022884
H2    H     H_    0.325727 0.874185 0.625963 0.042365
H3    H     H_    0.188582 0.863807 0.707450 0.147126
H4    H     H_    0.880247 0.078828 0.250043 -0.001346
H5    H     H_    0.934270 0.690398 0.736793 0.005127
H6    H     H_    0.746824 0.604911 0.705899 -0.021411
H7    H     H_    0.753243 0.896314 0.280408 0.137892
H8    H     H_    0.871146 0.653611 0.879167 0.044139
H9    H     H_    0.654754 0.651004 0.844284 0.113852
H10   H     H_    0.434129 0.760984 0.189329 0.001692
H11   H     H_    0.551593 0.924892 0.273557 0.057764
H12   H     H_    0.301309 0.337295 0.248503 0.035403
H13   H     H_    0.519574 0.378213 0.279941 0.010604
H14   H     H_    0.579508 0.283919 0.146576 0.115630
H15   H     H_    0.058502 0.286646 0.778580 -0.003784
H16   H     H_    0.924055 0.174211 0.744673 0.003441
H17   H     H_    0.257506 0.211745 0.873571 0.121431
H18   H     H_    0.741838 0.255728 0.804660 -0.060558
H19   H     H_    0.684611 0.126311 0.881659 0.169985
H20   H     H_    0.475026 0.139527 0.881455 0.145782
H21   H     H_    0.122525 0.711924 0.209787 0.011027
H22   H     H_    0.637251 0.226654 0.950335 0.140896
H23   H     H_    0.795687 0.394186 0.117480 0.108030
H24   H     H_    0.675121 0.390002 0.964372 0.104158
H25   H     H_    0.510376 0.629718 0.042039 0.092496
H26   H     H_    0.390647 0.620149 0.886170 0.113370
H27   H     H_    0.321982 0.533145 0.307424 0.075157
H28   H     H_    0.874728 0.467011 0.695654 0.064787
H29   H     H_    0.364197 0.688723 0.468922 0.066275
H30   H     H_    0.188672 0.952836 0.368896 0.087467
H31   H     H_    0.779702 0.902090 0.564379 0.096463
H32   H     H_    0.243527 0.827128 0.249118 -0.066937
H33   H     H_    0.813017 0.301705 0.524000 0.055338
H34   H     H_    0.892058 0.034679 0.558560 0.091097
H35   H     H_    0.307247 0.105788 0.376122 0.084607
H36   H     H_    0.917908 0.779109 0.112515 0.117506
H37   H     H_    0.390083 0.717254 0.643736 -0.005658
H38   H     H_    0.174088 0.715986 0.603809 0.025845
O1    O     O_2   0.826410 0.445300 0.275350 -0.494044
O2    O     O_3   0.725592 0.741434 0.700034 -0.616919
O3    O     O_3   0.017022 0.803826 0.290280 -0.583662
O4    O     O_2   0.363300 0.554730 0.724710 -0.455589
O5    O     O_3   0.090820 0.551650 0.611100 -0.507683
O6    O     O_3   0.561090 0.386750 0.661790 -0.440684
O7    O     O_3   0.239852 0.701896 0.739400 -0.609832
O8    O     O_3   0.598940 0.388670 0.448890 -0.487824
O9    O     O_3   0.128820 0.338650 0.613920 -0.472439
O10   O     O_2   0.192316 0.177566 0.537337 -0.434427
O11   O     O_3   0.149695 0.184546 0.702222 -0.538531
O12   O     O_3   0.098900 0.448430 0.388910 -0.502420
O13   O     O_3   0.590780 0.611410 0.551120 -0.489072
O14   O     O_2   0.326530 0.274990 0.446290 -0.449800
O15   O     O_3   0.431303 0.242130 0.292352 -0.652666
O16   O     O_2   0.509543 0.468218 0.821681 -0.482710
O17   O     O_3   0.512629 0.296913 0.812690 -0.564984
O18   O     O_3   0.628630 0.613330 0.338230 -0.457507
O19   O     O_2   0.700728 0.552414 0.178158 -0.490602
O20   O     O_3   0.991131 0.301332 0.239738 -0.600883
O21   O     O_3   0.660221 0.722100 0.205771 -0.569184
O22   O     O_2   0.863180 0.725040 0.553770 -0.468956
O23   O     O_3   0.060890 0.661420 0.386090 -0.463385
O24   O     O_2   0.010387 0.822825 0.464129 -0.473290
P1    P     P_3+3 0.996530 0.418490 0.288400 0.979325
P2    P     P_3+3 0.693090 0.712100 0.580610 0.991545
P3    P     P_3+3 0.107669 0.779142 0.394083 0.967293
P4    P     P_3+3 0.193180 0.581580 0.711620 0.983634
P5    P     P_3+3 0.080161 0.218488 0.599676 1.020096
P6    P     P_3+3 0.585322 0.611086 0.221433 0.964653
P7    P     P_3+3 0.493803 0.274662 0.411518 0.934330
P8    P     P_3+3 0.607731 0.397497 0.781165 0.988547
N1    N     N_3   0.440886 0.878378 0.762130 -0.413127
H39   H     H_    0.549976 0.874872 0.736060 0.208297
H40   H     H_    0.440632 0.948172 0.784036 0.229873
N2    N     N_3   0.742803 0.240290 0.279418 -0.479275
H41   H     H_    0.684142 0.181579 0.299415 0.141396
H42   H     H_    0.748111 0.296841 0.330351 0.150965
N3    N     N_3   0.990122 0.225997 0.369380 -0.553936
H43   H     H_    0.084441 0.188146 0.366570 0.182704
H44   H     H_    0.034664 0.291462 0.407718 0.208237
I1    I     I_    0.721721 0.106847 0.092903 -0.461715
N4    N     N_3   0.070024 0.135645 0.184948 -0.416774
H45   H     H_    0.056636 0.086427 0.125601 0.258923
H46   H     H_    0.147145 0.113887 0.235283 0.142664
N5    N     N_3   0.797788 0.783366 0.882468 -0.415843
H47   H     H_    0.917190 0.816279 0.881208 0.254334
H48   H     H_    0.785388 0.786399 0.951230 0.201663
N6    N     N_3   0.348658 0.198371 0.105474 -0.400789
H49   H     H_    0.369002 0.182375 0.038075 0.227648
H50   H     H_    0.391891 0.148227 0.138994 0.228958
N7    N     N_3   0.406723 0.355243 0.090357 -0.496576
H51   H     H_    0.292085 0.370711 0.100154 0.202008
H52   H     H_    0.494168 0.415109 0.111805 0.162928
N8    N     N_3   0.633353 0.899711 0.147295 -0.455614
H53   H     H_    0.513359 0.897810 0.114435 0.240864
H54   H     H_    0.682078 0.849261 0.109038 0.225561
I2    I     I_    0.181397 0.784101 0.029371 -0.565915
I3    I     I_    0.021089 0.240980 0.967656 -0.507172
I4    I     I_    0.083856 0.037352 0.845606 -0.389289
I5    I     I_    0.511435 0.130099 0.684207 -0.447613
N9    N     N_3   0.047610 0.915589 0.150903 -0.459046
H55   H     H_    0.979689 0.932999 0.202249 0.196437
H56   H     H_    0.168994 0.949915 0.174275 0.184688

loop_
_geom_bond_atom_site_label_1
_geom_bond_atom_site_label_2
_ccdc_geom_bond_type
Ba1   O1    S    
C19   C24   A    
C16   H27   S    
C27   C40   A    
C32   C35   A    
O19   P6    D    
C17   C18   A    
C14   H24   S    
C22   C25   A    
Ba1   O13   S    
C44   N4    S    
C46   H9    S    
C8    H19   S    
C35   C36   A    
C29   C41   A    
C44   I1    S    
Ba2   O9    S    
N9    H56   S    
C32   C33   A    
N8    H54   S    
Ba1   P2    S    
C36   C37   A    
O8    P7    S    
O1    P1    D    
C13   C14   A    
C44   H4    S    
N6    H50   S    
Ba1   Ba2   S    
Ba2   O4    S    
O6    P8    S    
C7    H18   S    
Ba1   O23   S    
O18   P6    S    
C1    H7    S    
C34   O7    S    
C10   C14   A    
O9    P5    S    
Ba1   O8    S    
C1    N8    S    
C27   C36   A    
C23   H36   S    
C21   C22   A    
C28   C39   A    
C12   H32   S    
O11   P5    S    
C33   C41   A    
C7    C8    S    
O16   P8    D    
O23   P3    S    
C45   H5    S    
C25   P6    S    
N6    H49   S    
Ba2   O14   S    
C6    H17   S    
Ba1   O5    S    
C30   P5    S    
C38   H35   S    
C21   H25   S    
C15   P1    S    
C31   C32   A    
O3    P3    S    
O20   P1    S    
N1    H40   S    
O21   P6    S    
C2    O21   S    
C3    O15   S    
O17   P8    S    
C37   H30   S    
Ba2   O8    S    
N9    H55   S    
C43   N3    S    
C37   C38   A    
N5    H47   S    
C42   N1    S    
C34   H38   S    
C43   C44   S    
C10   C19   A    
C7    I5    S    
O22   P2    D    
C28   P2    S    
C4    N7    S    
C12   O3    S    
C4    N6    S    
C45   C46   S    
O24   P3    D    
C7    O17   S    
C6    I3    S    
C15   C16   A    
C3    H13   S    
O10   P5    D    
Ba2   O6    S    
C17   C26   A    
Ba1   O18   S    
C5    H15   S    
N7    H52   S    
C41   P7    S    
C45   H6    S    
C8    H22   S    
C42   H3    S    
C18   C20   A    
Ba2   O13   S    
C11   C13   A    
N3    H43   S    
C34   H37   S    
C12   H21   S    
C11   C24   A    
C34   C42   S    
C23   I2    S    
C20   H26   S    
N2    H42   S    
C1    C2    S    
C26   H28   S    
C43   O20   S    
N4    H45   S    
C31   H34   S    
C42   H2    S    
C46   H8    S    
C27   P3    S    
O12   P1    S    
C5    O11   S    
C3    H12   S    
C29   C30   A    
C6    I4    S    
C16   C25   A    
C22   C24   A    
C29   H33   S    
Ba1   O12   S    
C39   H31   S    
N1    H39   S    
C8    H20   S    
C43   N2    S    
C13   H23   S    
C17   P4    S    
O5    P4    S    
C11   C15   A    
C2    H1    S    
O15   P7    S    
C45   O2    S    
C4    H14   S    
C33   C38   A    
N8    H53   S    
C30   C31   A    
C46   N5    S    
Ba2   P4    S    
C3    C4    S    
C9    C26   A    
O13   P2    S    
C23   N9    S    
O7    P4    S    
O4    P4    D    
C12   C23   S    
C35   C39   A    
Ba2   O5    S    
C5    H16   S    
C5    C6    S    
N7    H51   S    
Ba1   O22   S    
O2    P2    S    
C18   C19   A    
Ba2   O12   S    
C40   H29   S    
N5    H48   S    
C2    H10   S    
N3    H44   S    
C20   C21   A    
C28   C40   A    
O14   P7    D    
N2    H41   S    
C9    P8    S    
Ba1   P1    S    
C9    C10   A    
N4    H46   S    
C1    H11   S    
