data_mof_unit_24073.cif
_audit_creation_date              2012-10-26T18:34:47-0400
_audit_creation_method            fapswitch 2.2
_symmetry_space_group_name_H-M    P1
_symmetry_Int_Tables_number       1
_space_group_crystal_system       triclinic
_cell_length_a                    10.906457
_cell_length_b                    9.572308
_cell_length_c                    17.640901
_cell_angle_alpha                 89.81696
_cell_angle_beta                  89.435492
_cell_angle_gamma                 89.964132
_cell_volume                      1841.61034563

loop_
_atom_site_label
_atom_site_type_symbol
_atom_type_description
_atom_site_fract_x
_atom_site_fract_y
_atom_site_fract_z
_atom_type_partial_charge
C1    C     C_R   0.262237 0.499619 0.498857 0.560079
C2    C     C_R   0.500637 0.499821 0.643983 0.588442
C3    C     C_R   0.871722 0.497615 0.503541 -0.074984
C4    C     C_R   0.128160 0.497832 0.497225 -0.076955
C5    C     C_R   0.409023 0.560566 0.847246 0.228636
C6    C     C_R   0.403666 0.445540 0.153614 0.240714
C7    C     C_R   0.603695 0.560241 0.154794 0.231710
C8    C     C_R   0.602601 0.432483 0.843650 0.235146
C9    C     C_R   0.404203 0.556757 0.767798 0.218994
C10   C     C_R   0.399174 0.449603 0.233032 0.213078
C11   C     C_R   0.602968 0.555977 0.234314 0.218389
C12   C     C_R   0.737707 0.499539 0.501687 0.571191
C13   C     C_R   0.603598 0.440594 0.764254 0.193882
C14   C     C_R   0.502780 0.499148 0.726503 -0.061603
C15   C     C_R   0.500221 0.502000 0.273300 -0.065594
C16   C     C_R   0.557221 0.074182 0.442913 0.321055
C17   C     C_R   0.433761 0.924145 0.553279 0.323338
C18   C     C_R   0.443240 0.073650 0.557229 0.322902
C19   C     C_R   0.566385 0.924587 0.446805 0.322270
C20   C     C_R   0.506954 0.495671 0.884807 -0.053039
C21   C     C_R   0.506572 0.499632 0.114903 -0.060917
C22   C     C_3   0.337062 0.763305 0.896284 -0.111191
C23   C     C_1   0.509785 0.495256 0.965884 0.074941
C24   C     C_3   0.226770 0.476221 0.087017 -0.085316
C25   C     C_3   0.686068 0.759575 0.107455 -0.099636
C26   C     C_3   0.678478 0.226717 0.885940 -0.100663
C27   C     C_3   0.216565 0.512863 0.719063 -0.097644
C28   C     C_3   0.221550 0.511233 0.292605 -0.132196
C29   C     C_3   0.787285 0.504639 0.286058 -0.098054
C30   C     C_3   0.789323 0.496000 0.714496 -0.118331
C31   C     C_3   0.541291 0.121207 0.316787 -0.102616
C32   C     C_3   0.245644 0.897504 0.614284 -0.026777
C33   C     C_3   0.462532 0.118881 0.683139 -0.114613
C34   C     C_1   0.510257 0.496327 0.033786 0.070403
C35   C     C_3   0.755409 0.896572 0.387351 -0.027256
C36   C     C_3   0.137825 0.190881 0.425985 -0.080835
C37   C     C_3   0.906067 0.802261 0.592098 -0.107429
C38   C     C_3   0.862763 0.184547 0.568790 -0.084185
C39   C     C_3   0.095078 0.805080 0.411967 -0.106769
C40   C     C_R   0.063906 0.369540 0.497876 0.201752
C41   C     C_R   0.936624 0.624249 0.507471 0.204864
C42   C     C_R   0.936138 0.369410 0.500856 0.200363
C43   C     C_R   0.063031 0.624596 0.495272 0.203873
C44   C     C_R   0.499508 0.500347 0.355961 0.578843
Cu1   Cu    Cu3+1 0.500000 0.640660 0.500000 1.089402
Cu2   Cu    Cu3+1 0.500000 0.359340 0.500000 1.069468
H1    H     H_    0.339930 0.817245 0.840287 0.150586
H2    H     H_    0.675159 0.178135 0.828744 0.130316
H3    H     H_    0.592577 0.203635 0.918246 0.098941
H4    H     H_    0.755422 0.177720 0.916947 0.137105
H5    H     H_    0.180940 0.471002 0.773935 0.143077
H6    H     H_    0.252564 0.426344 0.683156 0.135564
H7    H     H_    0.138277 0.560467 0.688663 0.110854
H8    H     H_    0.259126 0.564074 0.343101 0.125264
H9    H     H_    0.129411 0.470639 0.308168 0.113195
H10   H     H_    0.209037 0.589618 0.246575 0.095389
H11   H     H_    0.825204 0.464694 0.231481 0.144011
H12   H     H_    0.423817 0.781886 0.927442 0.092039
H13   H     H_    0.747718 0.417262 0.320134 0.142980
H14   H     H_    0.864637 0.548619 0.318667 0.109369
H15   H     H_    0.821929 0.535161 0.770126 0.153753
H16   H     H_    0.751542 0.583557 0.680262 0.110005
H17   H     H_    0.870364 0.454331 0.683554 0.106445
H18   H     H_    0.441787 0.142592 0.325989 0.143085
H19   H     H_    0.553850 0.013209 0.295380 0.130820
H20   H     H_    0.574374 0.193049 0.271562 0.128962
H21   H     H_    0.184976 0.806744 0.625381 0.167020
H22   H     H_    0.211029 0.952777 0.563046 0.156072
H23   H     H_    0.261385 0.810462 0.929999 0.132675
H24   H     H_    0.237450 0.966490 0.664454 0.126964
H25   H     H_    0.451054 0.010321 0.704306 0.127346
H26   H     H_    0.561695 0.140927 0.673034 0.138031
H27   H     H_    0.430258 0.189523 0.728910 0.120176
H28   H     H_    0.765758 0.966389 0.337420 0.125916
H29   H     H_    0.815439 0.805038 0.376853 0.168575
H30   H     H_    0.789176 0.950453 0.439008 0.154736
H31   H     H_    0.196479 0.096420 0.427901 0.115783
H32   H     H_    0.184630 0.267048 0.387945 0.154019
H33   H     H_    0.047690 0.160576 0.402213 0.137583
H34   H     H_    0.269164 0.576423 0.067875 0.108190
H35   H     H_    0.936782 0.721431 0.633513 0.073306
H36   H     H_    0.823392 0.852637 0.616882 0.110598
H37   H     H_    0.977897 0.883429 0.585588 0.139044
H38   H     H_    0.807027 0.088232 0.564520 0.116360
H39   H     H_    0.812907 0.255842 0.607881 0.155705
H40   H     H_    0.953234 0.155626 0.592738 0.136207
H41   H     H_    0.065610 0.725361 0.369869 0.072543
H42   H     H_    0.178391 0.855902 0.388236 0.114234
H43   H     H_    0.022975 0.886095 0.418070 0.140640
H44   H     H_    0.155430 0.497022 0.130743 0.130897
H45   H     H_    0.180041 0.430671 0.037305 0.161570
H46   H     H_    0.681422 0.813199 0.163322 0.147567
H47   H     H_    0.602214 0.782525 0.074104 0.092059
H48   H     H_    0.765529 0.803344 0.075672 0.134816
N1    N     N_R   0.500000 0.852070 0.500000 -0.259311
N2    N     N_R   0.500000 0.147930 0.500000 -0.257709
O1    O     O_R   0.319640 0.618740 0.499990 -0.442830
O2    O     O_3   0.312056 0.377552 0.114370 -0.535580
O3    O     O_3   0.703850 0.614523 0.116147 -0.538847
O4    O     O_3   0.699947 0.371723 0.881078 -0.532135
O5    O     O_3   0.306115 0.616647 0.730633 -0.530262
O6    O     O_3   0.296802 0.397905 0.270523 -0.556511
O7    O     O_3   0.700393 0.611342 0.273874 -0.533057
O8    O     O_3   0.702350 0.388062 0.723683 -0.575672
O9    O     O_3   0.610316 0.145843 0.382965 -0.537690
O10   O     O_3   0.367156 0.847782 0.606492 -0.508802
O11   O     O_3   0.391752 0.144659 0.617701 -0.534759
O12   O     O_R   0.680360 0.381260 0.500010 -0.450734
O13   O     O_3   0.633150 0.848707 0.393709 -0.510743
O14   O     O_3   0.124984 0.242749 0.500358 -0.531657
O15   O     O_3   0.875671 0.748968 0.520081 -0.551842
O16   O     O_3   0.875276 0.242910 0.495639 -0.530857
O17   O     O_3   0.123577 0.749989 0.484089 -0.551959
O18   O     O_R   0.680360 0.618740 0.500010 -0.438853
O19   O     O_R   0.319640 0.381260 0.499990 -0.451605
O20   O     O_R   0.500000 0.618830 0.391250 -0.454202
O21   O     O_R   0.500000 0.381170 0.608750 -0.465807
O22   O     O_R   0.500000 0.618830 0.608750 -0.451497
O23   O     O_R   0.500000 0.381170 0.391250 -0.469614
O24   O     O_3   0.313504 0.619338 0.888254 -0.554993

loop_
_geom_bond_atom_site_label_1
_geom_bond_atom_site_label_2
_ccdc_geom_bond_type
Cu1   O22   S    
C31   H20   S    
C41   O15   S    
C3    C42   A    
C25   H47   S    
C8    C13   A    
C18   N2    A    
C33   O11   S    
C39   H41   S    
C2    O22   A    
C35   H28   S    
C5    C20   A    
Cu1   Cu2   S    
C22   O24   S    
C35   H29   S    
C8    C20   A    
C7    O3    S    
Cu2   O19   S    
C38   H40   S    
C24   O2    S    
C6    O2    S    
C15   C44   S    
C10   C15   A    
C26   H4    S    
C29   O7    S    
C42   O16   S    
C18   O11   S    
C3    C12   S    
C33   H26   S    
C11   C15   A    
Cu1   O18   S    
C24   H34   S    
C4    C40   A    
C39   O17   S    
Cu2   O12   S    
C29   H14   S    
C17   N1    A    
C22   H23   S    
C35   O13   S    
C26   H2    S    
C32   H22   S    
C40   C42   A    
C22   H1    S    
C25   H48   S    
C32   O10   S    
C13   C14   A    
C41   C43   A    
C37   H35   S    
C39   H42   S    
C28   H9    S    
C27   H5    S    
C12   O18   A    
C19   O13   S    
C28   H10   S    
C35   H30   S    
C16   N2    A    
C38   H39   S    
C29   H13   S    
C10   O6    S    
C26   H3    S    
C1    O1    A    
C12   O12   A    
C28   H8    S    
C32   H24   S    
C21   C34   S    
C5    O24   S    
C44   O23   A    
C11   O7    S    
C7    C21   A    
C6    C21   A    
C27   O5    S    
Cu2   O21   S    
C7    C11   A    
C9    C14   A    
C5    C9    A    
C20   C23   S    
C23   C34   T    
C17   C18   A    
C13   O8    S    
C16   O9    S    
C32   H21   S    
C33   H27   S    
C29   H11   S    
C30   H16   S    
C36   O14   S    
C37   H36   S    
C38   O16   S    
Cu1   N1    S    
C24   H45   S    
C19   N1    A    
C27   H6    S    
C31   H19   S    
C3    C41   A    
C25   H46   S    
C38   H38   S    
C31   H18   S    
C36   H33   S    
C24   H44   S    
C22   H12   S    
C40   O14   S    
C27   H7    S    
C4    C43   A    
C2    O21   A    
C36   H31   S    
C1    C4    S    
C25   O3    S    
C8    O4    S    
Cu1   O1    S    
C17   O10   S    
C43   O17   S    
Cu1   O20   S    
C16   C19   A    
Cu2   O23   S    
C2    C14   S    
C37   O15   S    
C6    C10   A    
C33   H25   S    
C28   O6    S    
Cu2   N2    S    
C44   O20   A    
C9    O5    S    
C31   O9    S    
C30   H15   S    
C30   O8    S    
C37   H37   S    
C36   H32   S    
C1    O19   A    
C30   H17   S    
C39   H43   S    
C26   O4    S    
