data_mof_unit_39505.cif
_audit_creation_date              2012-12-10T18:44:28-0500
_audit_creation_method            fapswitch 2.2
_symmetry_space_group_name_H-M    P1
_symmetry_Int_Tables_number       1
_space_group_crystal_system       triclinic
_cell_length_a                    12.903017
_cell_length_b                    10.664743
_cell_length_c                    9.839598
_cell_angle_alpha                 90.171471
_cell_angle_beta                  97.23598
_cell_angle_gamma                 90.196204
_cell_volume                      1343.20169455

loop_
_atom_site_label
_atom_site_type_symbol
_atom_type_description
_atom_site_fract_x
_atom_site_fract_y
_atom_site_fract_z
_atom_type_partial_charge
C1    C     C_R   0.501812 0.260233 0.499996 0.877803
C2    C     C_R   0.701853 0.500726 0.526885 0.893875
C3    C     C_R   0.813879 0.500048 0.543244 -0.076970
C4    C     C_R   0.186121 0.499952 0.456756 -0.076970
C5    C     C_R   0.021581 0.536465 0.318910 0.007706
C6    C     C_R   0.978419 0.463535 0.681090 0.007706
C7    C     C_R   0.129421 0.528433 0.330412 -0.227816
C8    C     C_R   0.870579 0.471567 0.669588 -0.227815
C9    C     C_R   0.136389 0.476159 0.571576 -0.255813
C10   C     C_R   0.863611 0.523841 0.428424 -0.255814
C11   C     C_R   0.029054 0.484556 0.563905 0.110702
C12   C     C_R   0.498188 0.739767 0.500004 0.877803
C13   C     C_R   0.970946 0.515444 0.436095 0.110701
C14   C     C_R   0.568964 0.061896 0.422052 -0.002793
C15   C     C_R   0.431036 0.938104 0.577947 -0.002792
C16   C     C_R   0.565262 0.933091 0.422654 -0.235151
C17   C     C_R   0.434738 0.066908 0.577346 -0.235150
C18   C     C_1   0.965595 0.567531 0.186526 0.158823
C19   C     C_1   0.034405 0.432469 0.813474 0.158823
C20   C     C_1   0.643378 0.123636 0.346050 0.178146
C21   C     C_1   0.356620 0.876364 0.653947 0.178144
C22   C     C_R   0.497199 0.872185 0.500351 -0.073505
C23   C     C_R   0.502800 0.127814 0.499650 -0.073505
C24   C     C_R   0.569742 0.572013 0.083639 -0.051748
C25   C     C_R   0.430258 0.427987 0.916361 -0.051748
C26   C     C_R   0.569718 0.571960 0.939732 -0.058780
C27   C     C_R   0.430282 0.428040 0.060267 -0.058779
C28   C     C_R   0.298147 0.499274 0.473115 0.893876
H1    H     H_    0.817905 0.547923 0.332140 0.169168
H2    H     H_    0.374557 0.370526 0.105478 0.135285
H3    H     H_    0.182095 0.452077 0.667860 0.169168
H4    H     H_    0.830843 0.453402 0.758388 0.175107
H5    H     H_    0.169156 0.546598 0.241612 0.175107
H6    H     H_    0.616651 0.879932 0.364909 0.150615
H7    H     H_    0.383349 0.120068 0.635091 0.150615
H8    H     H_    0.625479 0.629634 0.147495 0.127382
H9    H     H_    0.374521 0.370366 0.852505 0.127381
H10   H     H_    0.625443 0.629474 0.894522 0.135285
N1    N     N_R   0.499970 0.499970 0.857200 -0.084965
N2    N     N_R   0.500030 0.500030 0.142800 -0.084965
N3    N     N_1   0.920737 0.592416 0.080749 -0.208146
N4    N     N_1   0.079263 0.407584 0.919251 -0.208146
N5    N     N_1   0.702897 0.173138 0.285370 -0.186042
N6    N     N_1   0.297099 0.826862 0.714624 -0.186042
O1    O     O_R   0.499990 0.316750 0.614620 -0.621913
O2    O     O_R   0.500010 0.683250 0.385380 -0.621913
O3    O     O_R   0.499990 0.316780 0.385290 -0.613032
O4    O     O_R   0.500010 0.683220 0.614710 -0.613031
O5    O     O_R   0.346360 0.499970 0.595710 -0.624168
O6    O     O_R   0.653640 0.500030 0.404290 -0.624168
O7    O     O_R   0.346360 0.499990 0.366380 -0.626868
O8    O     O_R   0.653640 0.500010 0.633620 -0.626868
Zn1   Zn    Zn3+2 0.500000 0.499980 0.653120 0.963097
Zn2   Zn    Zn3+2 0.500000 0.500020 0.346880 0.963097

loop_
_geom_bond_atom_site_label_1
_geom_bond_atom_site_label_2
_ccdc_geom_bond_type
C14   C23   A    
C6    C8    A    
C5    C7    A    
C26   H10   S    
C12   C22   S    
C25   C27   A    
C21   N6    T    
C9    C11   A    
C28   O5    A    
C5    C13   A    
C17   C23   A    
C19   N4    T    
C15   C21   S    
C27   N2    A    
C12   O4    A    
O7    Zn2   S    
C16   H6    S    
O2    Zn2   S    
C2    O6    A    
C2    C3    S    
O1    Zn1   S    
C3    C10   A    
O6    Zn2   S    
C25   N1    A    
C27   H2    S    
C6    C19   S    
C7    H5    S    
C10   H1    S    
C1    O1    A    
C24   H8    S    
C2    O8    A    
C4    C7    A    
O5    Zn1   S    
C4    C28   S    
C24   C26   A    
C1    C23   S    
N2    Zn2   S    
O3    Zn2   S    
O4    Zn1   S    
C28   O7    A    
C14   C16   A    
C26   N1    A    
C9    H3    S    
C8    H4    S    
C14   C20   S    
C11   C13   A    
C20   N5    T    
O8    Zn1   S    
C12   O2    A    
C3    C8    A    
C18   N3    T    
C6    C11   A    
C15   C17   A    
N1    Zn1   S    
C24   N2    A    
C16   C22   A    
C5    C18   S    
C17   H7    S    
C25   H9    S    
C4    C9    A    
C15   C22   A    
C1    O3    A    
C10   C13   A    
