data_mof_unit_45453.cif
_audit_creation_date              2012-10-26T20:21:09-0400
_audit_creation_method            fapswitch 2.2
_symmetry_space_group_name_H-M    P1
_symmetry_Int_Tables_number       1
_space_group_crystal_system       triclinic
_cell_length_a                    9.505152
_cell_length_b                    10.833893
_cell_length_c                    15.78176
_cell_angle_alpha                 89.763973
_cell_angle_beta                  73.893471
_cell_angle_gamma                 90.013119
_cell_volume                      1561.36413581

loop_
_atom_site_label
_atom_site_type_symbol
_atom_type_description
_atom_site_fract_x
_atom_site_fract_y
_atom_site_fract_z
_atom_type_partial_charge
C1    C     C_R   0.999941 0.262038 0.500032 0.558396
C2    C     C_R   0.128870 0.063937 0.497665 -0.122515
C3    C     C_R   0.000078 0.871815 0.499895 0.022406
C4    C     C_R   0.999979 0.128228 0.499990 0.030231
C5    C     C_R   0.557816 0.403546 0.535538 0.013571
C6    C     C_R   0.442507 0.595876 0.463496 0.046502
C7    C     C_R   0.408831 0.403993 0.536170 -0.001522
C8    C     C_R   0.591315 0.595786 0.463449 0.017997
C9    C     C_R   0.916755 0.492565 0.671598 0.558655
C10   C     C_R   0.083226 0.491129 0.328873 0.548352
C11   C     C_R   0.867845 0.478747 0.768859 -0.017528
C12   C     C_R   0.000075 0.737968 0.499934 0.552326
C13   C     C_R   0.133417 0.466766 0.233472 -0.021031
C14   C     C_R   0.919254 0.517547 0.907593 -0.143200
C15   C     C_R   0.076747 0.416702 0.097084 -0.139344
C16   C     C_R   0.966351 0.509072 0.816724 -0.155411
C17   C     C_R   0.031186 0.455545 0.184547 -0.152513
C18   C     C_R   0.721882 0.442010 0.814301 0.055880
C19   C     C_R   0.283757 0.443651 0.191594 0.035121
C20   C     C_R   0.673382 0.445331 0.908561 0.016504
C21   C     C_R   0.330910 0.436799 0.098990 0.017625
C22   C     C_R   0.773383 0.492849 0.952998 0.030336
C23   C     C_R   0.579336 0.513056 0.087232 -0.118069
C24   C     C_R   0.226382 0.406070 0.054315 0.036969
C25   C     C_R   0.526775 0.415100 0.960505 0.041347
C26   C     C_R   0.479838 0.452755 0.050069 0.032206
C27   C     C_2   0.377755 0.382491 0.240978 0.583060
C28   C     C_2   0.619208 0.412769 0.762047 0.564272
C29   C     C_R   0.423328 0.349992 0.927930 -0.094108
C30   C     C_R   0.725208 0.524998 0.041576 -0.130603
C31   C     C_R   0.274077 0.356564 0.970080 -0.119283
C32   C     C_R   0.871151 0.063822 0.502241 -0.120385
C33   C     C_R   0.128912 0.936236 0.497632 -0.129175
C34   C     C_R   0.871214 0.936122 0.502160 -0.129781
Cu1   Cu    Cu3+1 0.140660 0.500020 0.500000 0.980956
Cu2   Cu    Cu3+1 0.859340 0.499980 0.500000 0.987482
H1    H     H_    0.798762 0.568467 0.074153 0.112708
H2    H     H_    0.229693 0.888254 0.495766 0.125735
H3    H     H_    0.600315 0.325801 0.563586 0.159013
H4    H     H_    0.400612 0.672232 0.433489 0.121631
H5    H     H_    0.339447 0.327297 0.565708 0.113230
H6    H     H_    0.660913 0.672183 0.433545 0.109415
H7    H     H_    0.514265 0.398277 0.318061 0.335011
H8    H     H_    0.441937 0.464174 0.724018 0.325390
H9    H     H_    0.770469 0.888049 0.503978 0.128065
H10   H     H_    0.229631 0.112022 0.495800 0.132621
H11   H     H_    0.196551 0.317420 0.938564 0.117779
H12   H     H_    0.915200 0.467552 0.215588 0.143430
H13   H     H_    0.078358 0.534607 0.783500 0.149130
H14   H     H_    0.995805 0.550420 0.942153 0.123569
H15   H     H_    0.995510 0.395483 0.062905 0.120975
H16   H     H_    0.544619 0.556098 0.151042 0.162018
H17   H     H_    0.453605 0.292264 0.870617 0.153787
H18   H     H_    0.770358 0.111811 0.504140 0.131966
N1    N     N_R   0.352080 0.500030 0.499980 -0.218140
N2    N     N_R   0.647920 0.499970 0.500020 -0.228215
O1    O     O_R   0.118740 0.319660 0.500000 -0.514603
O2    O     O_R   0.452942 0.451665 0.289140 -0.705985
O3    O     O_2   0.633736 0.316717 0.720051 -0.555902
O4    O     O_R   0.506654 0.495234 0.760750 -0.689580
O5    O     O_R   0.881260 0.680340 0.500000 -0.514763
O6    O     O_R   0.881170 0.319630 0.500010 -0.510712
O7    O     O_R   0.118830 0.680370 0.499990 -0.517564
O8    O     O_R   0.055570 0.500030 0.629830 -0.514222
O9    O     O_R   0.944430 0.499970 0.370170 -0.512948
O10   O     O_R   0.818000 0.500000 0.629840 -0.452877
O11   O     O_R   0.182000 0.500000 0.370160 -0.454385
O12   O     O_2   0.390928 0.270216 0.237569 -0.511301

loop_
_geom_bond_atom_site_label_1
_geom_bond_atom_site_label_2
_ccdc_geom_bond_type
C8    H6    S    
C2    C4    A    
C21   C26   A    
C11   C18   A    
Cu1   O8    S    
Cu2   N2    S    
C22   C30   A    
C15   H15   S    
C12   O7    A    
C9    O8    A    
C19   C27   S    
C11   C16   A    
C5    N2    A    
C33   H2    S    
C3    C34   A    
C17   H12   S    
C7    N1    A    
C6    N1    A    
Cu1   O1    S    
C1    C4    S    
C1    O6    A    
C14   C22   A    
C28   O4    S    
C24   C31   A    
C29   C31   A    
C34   H9    S    
C4    C32   A    
C1    O1    A    
C2    H10   S    
C12   O5    A    
C9    C11   S    
C8    N2    A    
C23   H16   S    
C14   H14   S    
C29   H17   S    
Cu1   Cu2   S    
H8    O4    S    
Cu2   O6    S    
C2    C33   A    
C32   H18   S    
C15   C24   A    
C31   H11   S    
C20   C22   A    
C27   O12   D    
C18   C20   A    
C9    O10   A    
C7    H5    S    
C25   C29   A    
C14   C16   A    
C28   O3    D    
Cu1   O11   S    
C21   C24   A    
Cu1   N1    S    
C13   C17   A    
C23   C30   A    
C6    H4    S    
C18   C28   S    
C16   H13   S    
C5    C7    A    
C20   C25   A    
C23   C26   A    
C15   C17   A    
C5    H3    S    
C3    C33   A    
Cu2   O9    S    
C13   C19   A    
C6    C8    A    
C3    C12   S    
Cu2   O10   S    
H7    O2    S    
C19   C21   A    
C25   C26   A    
C10   O11   A    
Cu1   O7    S    
C27   O2    S    
Cu2   O5    S    
C30   H1    S    
C10   O9    A    
C10   C13   S    
C32   C34   A    
