data_mof_unit_55100.cif
_audit_creation_date              2012-12-11T15:34:04-0500
_audit_creation_method            fapswitch 2.2
_symmetry_space_group_name_H-M    P1
_symmetry_Int_Tables_number       1
_space_group_crystal_system       triclinic
_cell_length_a                    15.054631
_cell_length_b                    15.049381
_cell_length_c                    34.878505
_cell_angle_alpha                 90.650484
_cell_angle_beta                  90.273308
_cell_angle_gamma                 60.015862
_cell_volume                      6844.13257621

loop_
_atom_site_label
_atom_site_type_symbol
_atom_type_description
_atom_site_fract_x
_atom_site_fract_y
_atom_site_fract_z
_atom_type_partial_charge
C1    C     C_R   0.301458 0.608785 0.555504 0.534951
C2    C     C_R   0.655909 0.650928 0.671240 -0.008974
C3    C     C_R   0.187646 0.710138 0.277126 -0.114710
C4    C     C_R   0.114851 0.702865 0.299587 0.105636
C5    C     C_R   0.027681 0.706744 0.282571 0.045417
C6    C     C_R   0.019885 0.711239 0.242251 -0.056294
C7    C     C_R   0.097124 0.711314 0.219748 0.025607
C8    C     C_R   0.187237 0.581075 0.353392 0.219630
C9    C     C_R   0.236289 0.558436 0.389222 -0.139804
C10   C     C_R   0.174402 0.739105 0.400907 -0.134689
C11   C     C_R   0.128996 0.762582 0.364556 0.220881
C12   C     C_R   0.138067 0.683021 0.340540 0.042031
C13   C     C_R   0.568335 0.722684 0.651477 -0.094362
C14   C     C_R   0.232733 0.636750 0.412476 -0.066353
C15   C     C_R   0.735166 0.026814 0.943661 0.538338
C16   C     C_R   0.745687 0.722675 0.945088 0.542906
C17   C     C_R   0.038350 0.733697 0.948314 0.541380
C18   C     C_R   0.724117 0.037019 0.053448 0.548528
C19   C     C_R   0.733689 0.734438 0.054759 0.542605
C20   C     C_R   0.025495 0.746129 0.058552 0.546709
C21   C     C_R   0.556739 0.710347 0.612281 0.254448
C22   C     C_R   0.666062 0.654683 0.791169 0.311486
C23   C     C_R   0.660457 0.655734 0.713396 0.337872
C24   C     C_R   0.743597 0.578556 0.855773 0.013243
C25   C     C_R   0.765154 0.599404 0.892952 -0.107250
C26   C     C_R   0.631216 0.776856 0.887970 -0.144210
C27   C     C_R   0.612152 0.758782 0.850475 -0.145212
C28   C     C_R   0.671428 0.661739 0.833256 0.033488
C29   C     C_R   0.610827 0.588455 0.555434 0.551223
C30   C     C_R   0.711170 0.698576 0.908852 0.003899
C31   C     C_R   0.718572 0.080770 0.907064 0.018803
C32   C     C_R   0.620994 0.128457 0.889952 -0.133900
C33   C     C_R   0.609311 0.158596 0.851786 -0.142200
C34   C     C_R   0.695010 0.140897 0.830314 0.052219
C35   C     C_R   0.790742 0.101795 0.848086 -0.104941
C36   C     C_R   0.802527 0.072095 0.886369 -0.140527
C37   C     C_R   0.689494 0.233848 0.771186 0.267837
C38   C     C_R   0.688928 0.240195 0.731358 -0.101538
C39   C     C_R   0.680133 0.168209 0.708348 -0.042970
C40   C     C_R   0.590435 0.300440 0.553585 0.542578
C41   C     C_R   0.675916 0.086610 0.725345 -0.119731
C42   C     C_R   0.681294 0.075283 0.765433 -0.016765
C43   C     C_R   0.687289 0.150776 0.788379 0.021259
C44   C     C_R   0.588793 0.179908 0.647247 -0.123494
C45   C     C_R   0.567446 0.211114 0.609216 -0.129433
C46   C     C_R   0.712780 0.238918 0.608382 -0.128723
C47   C     C_R   0.733661 0.208345 0.646457 -0.121934
C48   C     C_R   0.669545 0.182341 0.666547 0.031291
C49   C     C_R   0.626821 0.244798 0.589941 0.020890
C50   C     C_R   0.093228 0.694953 0.911501 0.019280
C51   C     C_R   0.298554 0.611064 0.446526 0.549677
C52   C     C_R   0.118159 0.757400 0.889711 -0.130124
C53   C     C_R   0.144869 0.734460 0.851198 -0.125667
C54   C     C_R   0.147971 0.648348 0.833860 0.025556
C55   C     C_R   0.132507 0.580644 0.856343 -0.121580
C56   C     C_R   0.105039 0.603900 0.894918 -0.127605
C57   C     C_R   0.229384 0.542489 0.774709 -0.097656
C58   C     C_R   0.243774 0.534246 0.734524 0.041916
C59   C     C_R   0.181495 0.621699 0.711980 0.061295
C60   C     C_R   0.105078 0.711997 0.729205 -0.109161
C61   C     C_R   0.093523 0.719301 0.768731 -0.119297
C62   C     C_R   0.608031 0.590273 0.445454 0.538844
C63   C     C_R   0.157210 0.635781 0.791822 0.010307
C64   C     C_R   0.252870 0.677996 0.659784 0.258801
C65   C     C_R   0.278642 0.676377 0.621341 -0.121881
C66   C     C_R   0.191366 0.581796 0.604217 0.003040
C67   C     C_R   0.169804 0.580066 0.643345 -0.158690
C68   C     C_R   0.202426 0.625542 0.671028 0.005854
C69   C     C_R   0.251674 0.625981 0.593397 -0.017180
C70   C     C_R   0.693270 0.718568 0.090838 0.018562
C71   C     C_R   0.606451 0.799973 0.108403 -0.124745
C72   C     C_R   0.580968 0.791242 0.146058 -0.122105
C73   C     C_R   0.588793 0.300825 0.444373 0.545870
C74   C     C_R   0.641938 0.701093 0.166714 0.030944
C75   C     C_R   0.724617 0.617496 0.148201 -0.115565
C76   C     C_R   0.749665 0.625975 0.110597 -0.125338
C77   C     C_R   0.642518 0.605019 0.224775 -0.121443
C78   C     C_R   0.642156 0.596172 0.264443 -0.115801
C79   C     C_R   0.624319 0.679113 0.288346 0.023404
C80   C     C_R   0.602381 0.772578 0.272003 -0.128017
C81   C     C_R   0.604267 0.781046 0.232255 -0.115969
C82   C     C_R   0.626233 0.696653 0.208293 0.030910
C83   C     C_R   0.549667 0.738021 0.353670 -0.123114
C84   C     C_R   0.632239 0.621782 0.592775 0.018273
C85   C     C_R   0.547000 0.717338 0.392406 -0.128988
C86   C     C_R   0.708878 0.558602 0.385379 -0.124827
C87   C     C_R   0.711141 0.579078 0.346665 -0.125867
C88   C     C_R   0.629498 0.666712 0.330239 0.027250
C89   C     C_R   0.624390 0.625173 0.408197 0.022580
C90   C     C_R   0.708856 0.085367 0.091657 0.015047
C91   C     C_R   0.796204 0.072105 0.111678 -0.175386
C92   C     C_R   0.792642 0.088510 0.151006 -0.140558
C93   C     C_R   0.701537 0.119751 0.170989 -0.013255
C94   C     C_R   0.612174 0.140795 0.150992 -0.098649
C95   C     C_R   0.724104 0.555702 0.611938 -0.184778
C96   C     C_R   0.614285 0.126610 0.111293 0.268207
C97   C     C_R   0.621662 0.220984 0.229594 -0.112476
C98   C     C_R   0.613566 0.232543 0.269572 0.280990
C99   C     C_R   0.686325 0.152486 0.292463 0.033279
C100  C     C_R   0.765674 0.063189 0.275655 -0.175232
C101  C     C_R   0.771911 0.052318 0.235866 -0.134011
C102  C     C_R   0.698979 0.130964 0.212789 -0.012742
C103  C     C_R   0.744747 0.182641 0.355144 -0.102759
C104  C     C_R   0.719942 0.220624 0.392548 -0.125321
C105  C     C_R   0.564599 0.209607 0.389029 -0.126677
C106  C     C_R   0.735904 0.570267 0.650713 -0.150112
C107  C     C_R   0.589161 0.172345 0.351664 -0.091758
C108  C     C_R   0.676830 0.163184 0.334125 0.064878
C109  C     C_R   0.627048 0.239142 0.409046 0.023936
C110  C     C_R   0.067588 0.719574 0.097595 -0.023549
C111  C     C_R   0.058618 0.644856 0.118221 -0.122791
C112  C     C_R   0.073536 0.636761 0.158183 0.268249
C113  C     C_R   0.092998 0.708221 0.177512 0.035809
C114  C     C_R   0.109435 0.777459 0.156401 -0.177878
C115  C     C_R   0.097743 0.782514 0.116833 -0.148418
C116  C     C_R   0.178746 0.714753 0.237580 -0.152313
Cr1   Cr    Cr6+3 0.421670 0.426920 0.499620 1.001154
Cr2   Cr    Cr6+3 0.427030 0.651190 0.500980 1.025518
Cr3   Cr    Cr6+3 0.651280 0.421870 0.499380 1.004210
Cr4   Cr    Cr6+3 0.910810 0.908010 0.001130 1.004147
Cr5   Cr    Cr6+3 0.682800 0.909890 0.998370 1.025294
Cr6   Cr    Cr6+3 0.908370 0.682300 0.002180 1.003262
H1    H     H_    0.784647 0.488486 0.597670 0.136748
H2    H     H_    0.878568 0.035735 0.898821 0.125515
H3    H     H_    0.797306 0.209173 0.660738 0.105565
H4    H     H_    0.692260 0.303553 0.718404 0.125045
H5    H     H_    0.534805 0.189752 0.838287 0.094268
H6    H     H_    0.669561 0.032003 0.706820 0.121870
H7    H     H_    0.538226 0.160257 0.662255 0.098070
H8    H     H_    0.500840 0.214736 0.595705 0.124415
H9    H     H_    0.857351 0.088236 0.831664 0.115715
H10   H     H_    0.760260 0.263962 0.594243 0.126281
H11   H     H_    0.110406 0.827713 0.901619 0.125504
H12   H     H_    0.086669 0.554025 0.910996 0.123552
H13   H     H_    0.127793 0.542819 0.652401 0.116314
H14   H     H_    0.276694 0.478842 0.793196 0.101642
H15   H     H_    0.158451 0.786652 0.834405 0.107488
H16   H     H_    0.057006 0.778634 0.711978 0.096830
H17   H     H_    0.035626 0.791075 0.781422 0.108439
H18   H     H_    0.826015 0.538476 0.909273 0.131077
H19   H     H_    0.324946 0.710222 0.613819 0.179609
H20   H     H_    0.134939 0.513602 0.843488 0.105497
H21   H     H_    0.561341 0.872228 0.093833 0.145747
H22   H     H_    0.816752 0.561758 0.097786 0.120616
H23   H     H_    0.774646 0.524308 0.329134 0.102275
H24   H     H_    0.656474 0.524181 0.276523 0.123385
H25   H     H_    0.657506 0.539485 0.207005 0.101016
H26   H     H_    0.515773 0.856214 0.159458 0.105703
H27   H     H_    0.588305 0.837453 0.290014 0.100207
H28   H     H_    0.805216 0.514495 0.665054 0.140069
H29   H     H_    0.592979 0.852159 0.220417 0.105563
H30   H     H_    0.486217 0.806377 0.341541 0.098195
H31   H     H_    0.481072 0.770378 0.409315 0.119575
H32   H     H_    0.773858 0.547390 0.163445 0.101453
H33   H     H_    0.769970 0.487337 0.396724 0.124426
H34   H     H_    0.869698 0.042179 0.097515 0.143301
H35   H     H_    0.536188 0.157520 0.335489 0.097522
H36   H     H_    0.568488 0.281895 0.211240 0.099853
H37   H     H_    0.507326 0.787101 0.666680 0.121895
H38   H     H_    0.861710 0.074145 0.165999 0.119558
H39   H     H_    0.821455 0.001636 0.293342 0.135015
H40   H     H_    0.832237 0.982046 0.223121 0.125214
H41   H     H_    0.812501 0.176065 0.341666 0.103926
H42   H     H_    0.769974 0.241777 0.407505 0.119940
H43   H     H_    0.541007 0.165762 0.166354 0.109046
H44   H     H_    0.493213 0.221855 0.401171 0.119029
H45   H     H_    0.033877 0.597065 0.103725 0.129298
H46   H     H_    0.105338 0.840822 0.101696 0.137116
H47   H     H_    0.253986 0.708102 0.290308 0.098409
H48   H     H_    0.238395 0.716162 0.220810 0.105829
H49   H     H_    0.954744 0.714059 0.227913 0.151702
H50   H     H_    0.282619 0.479156 0.397706 0.140962
H51   H     H_    0.126310 0.831516 0.170767 0.111680
H52   H     H_    0.168425 0.800480 0.419205 0.137705
H53   H     H_    0.587996 0.854061 0.899569 0.132974
H54   H     H_    0.555642 0.823084 0.834039 0.128048
H55   H     H_    0.554799 0.137049 0.905350 0.124750
N1    N     N_R   0.752633 0.597002 0.770380 -0.245862
N2    N     N_R   0.749718 0.596633 0.732269 -0.241614
N3    N     N_R   0.574146 0.714897 0.734172 -0.250701
N4    N     N_R   0.577016 0.714917 0.772306 -0.257494
O1    O     O_R   0.502070 0.323090 0.541280 -0.518759
O2    O     O_R   0.520720 0.641670 0.461580 -0.507065
O3    O     O_R   0.674120 0.502090 0.457500 -0.521575
O4    O     O_R   0.640110 0.338380 0.459630 -0.501272
O5    O     O_3   0.499990 0.499990 0.499990 -0.234681
O6    O     O_R   0.017640 0.822070 0.960410 -0.520575
O7    O     O_R   0.822000 0.989470 0.960340 -0.502733
O8    O     O_R   0.666920 0.007430 0.955290 -0.524227
O9    O     O_R   0.694410 0.812480 0.959650 -0.501235
O10   O     O_R   0.831550 0.656950 0.958960 -0.522554
O11   O     O_R   0.998590 0.685540 0.963930 -0.501641
O12   O     O_R   0.338340 0.520690 0.539540 -0.503033
O13   O     O_R   0.008220 0.831200 0.045060 -0.518371
O14   O     O_R   0.813270 0.997930 0.038810 -0.516707
O15   O     O_R   0.657500 0.016560 0.039940 -0.467851
O16   O     O_R   0.685680 0.820940 0.038120 -0.498275
O17   O     O_R   0.822130 0.666070 0.043610 -0.524066
O18   O     O_R   0.989860 0.694000 0.042400 -0.504313
O19   O     O_3   0.833990 0.833400 0.000560 -0.235682
O20   O     O_R   0.324760 0.674070 0.543580 -0.504156
O21   O     O_R   0.522400 0.640310 0.540110 -0.455316
O22   O     O_R   0.675940 0.500630 0.542210 -0.532863
O23   O     O_R   0.641790 0.337020 0.538150 -0.503522
O24   O     O_R   0.500260 0.324550 0.456580 -0.523590
O25   O     O_R   0.336660 0.522040 0.461020 -0.503427
O26   O     O_R   0.322940 0.675540 0.458880 -0.519726
O27   O     O_3   0.699111 0.305749 0.793136 -0.584995
C117  C     C_3   0.600711 0.386413 0.803873 -0.005229
H56   H     H_    0.609370 0.419316 0.831280 0.156049
H57   H     H_    0.545029 0.359870 0.809847 0.113336
C118  C     C_3   0.557749 0.471326 0.773714 -0.270632
H58   H     H_    0.617676 0.490103 0.765520 0.200401
H59   H     H_    0.535075 0.444432 0.747669 0.156117
C119  C     C_3   0.464135 0.568277 0.788854 -0.446534
H60   H     H_    0.404774 0.550598 0.798718 0.146323
H61   H     H_    0.431210 0.625954 0.765697 0.203556
H62   H     H_    0.486277 0.601463 0.813173 0.155504
C120  C     C_3   0.682079 0.983954 0.784458 -0.278030
C121  C     C_3   0.687550 0.900501 0.757442 -0.432808
H63   H     H_    0.617438 0.931089 0.739467 0.149938
H64   H     H_    0.756891 0.869374 0.738994 0.154913
H65   H     H_    0.692513 0.836574 0.774659 0.173079
H66   H     H_    0.749530 0.946738 0.803851 0.158482
H67   H     H_    0.611867 0.012357 0.802234 0.146863
O28   O     O_3   0.466217 0.779527 0.594567 -0.575083
C122  C     C_3   0.479202 0.855711 0.576201 0.018155
H68   H     H_    0.432843 0.877013 0.549495 0.151691
H69   H     H_    0.559928 0.828838 0.567137 0.109939
C123  C     C_3   0.439295 0.951389 0.601894 -0.280393
H70   H     H_    0.358212 0.978538 0.609790 0.167011
H71   H     H_    0.485455 0.932334 0.628589 0.150888
C124  C     C_3   0.445287 0.037660 0.581720 -0.483998
H72   H     H_    0.526156 0.013333 0.574543 0.150914
H73   H     H_    0.414676 0.105900 0.600985 0.138943
H74   H     H_    0.398877 0.059326 0.555033 0.144561
C125  C     C_3   0.326507 0.436659 0.715081 -0.271915
C126  C     C_3   0.385998 0.344130 0.741105 -0.458092
H75   H     H_    0.429532 0.360472 0.763034 0.141313
H76   H     H_    0.332957 0.323419 0.755228 0.145779
H77   H     H_    0.441775 0.277351 0.723663 0.148440
H78   H     H_    0.290060 0.413409 0.692344 0.140216
H79   H     H_    0.382382 0.453695 0.701030 0.164362
O29   O     O_3   0.286215 0.722288 0.687013 -0.565567
C127  C     C_3   0.221877 0.830359 0.687076 0.004858
H80   H     H_    0.183309 0.854063 0.715458 0.148423
H81   H     H_    0.160154 0.860032 0.664810 0.112106
C128  C     C_3   0.287360 0.880657 0.681717 -0.264020
H82   H     H_    0.347192 0.853688 0.704374 0.190984
H83   H     H_    0.325466 0.857862 0.653279 0.192943
C129  C     C_3   0.222782 0.997383 0.683864 -0.495373
H84   H     H_    0.164016 0.026298 0.660827 0.146600
H85   H     H_    0.273012 0.031114 0.680073 0.141878
H86   H     H_    0.184220 0.022261 0.712202 0.151126
C130  C     C_3   0.148378 0.536816 0.575415 -0.264844
C131  C     C_3   0.031128 0.595226 0.575758 -0.450461
H87   H     H_    0.001109 0.587277 0.603743 0.150493
H88   H     H_    0.001440 0.677840 0.570055 0.156860
H89   H     H_    0.002360 0.563722 0.553045 0.134743
H90   H     H_    0.171951 0.539792 0.545675 0.162103
H91   H     H_    0.177058 0.454969 0.582276 0.138021
O30   O     O_3   0.525633 0.143390 0.092948 -0.560815
C132  C     C_3   0.477127 0.241720 0.076056 0.019490
H92   H     H_    0.429334 0.240095 0.051989 0.156720
H93   H     H_    0.532700 0.261627 0.063220 0.110926
C133  C     C_3   0.406785 0.324766 0.104996 -0.284850
H94   H     H_    0.354104 0.302234 0.118320 0.162101
H95   H     H_    0.453665 0.332706 0.128011 0.148345
C134  C     C_3   0.343515 0.428682 0.085802 -0.485674
H96   H     H_    0.394651 0.451697 0.071550 0.151667
H97   H     H_    0.297160 0.487810 0.107736 0.146161
H98   H     H_    0.290813 0.425167 0.064227 0.144752
O31   O     O_3   0.541455 0.324004 0.287070 -0.570593
C135  C     C_3   0.441394 0.358582 0.272713 0.006660
H99   H     H_    0.388434 0.383431 0.297571 0.191234
H100  H     H_    0.432586 0.296934 0.258124 0.101390
C136  C     C_3   0.407993 0.451882 0.246836 -0.252054
H101  H     H_    0.378468 0.522234 0.264907 0.169509
H102  H     H_    0.474110 0.445189 0.230449 0.164230
C137  C     C_3   0.325191 0.463415 0.218617 -0.467862
H103  H     H_    0.352578 0.392517 0.200983 0.119534
H104  H     H_    0.306695 0.527678 0.198891 0.152345
H105  H     H_    0.254756 0.479280 0.234403 0.195140
O32   O     O_3   0.073697 0.863201 0.352282 -0.576762
C138  C     C_3   0.138221 0.905973 0.348037 0.006455
H106  H     H_    0.136933 0.925745 0.317359 0.146257
H107  H     H_    0.220411 0.853398 0.355625 0.115086
C139  C     C_3   0.095973 0.004180 0.372213 -0.255243
H108  H     H_    0.016014 0.058744 0.363208 0.168079
H109  H     H_    0.094798 0.985762 0.402899 0.160675
C140  C     C_3   0.161051 0.055157 0.367790 -0.496579
H110  H     H_    0.240974 0.002650 0.377315 0.143126
H111  H     H_    0.128278 0.126002 0.385708 0.144231
H112  H     H_    0.161756 0.076111 0.337401 0.142427
C141  C     C_3   0.800284 0.468616 0.840804 -0.267305
C142  C     C_3   0.796979 0.392828 0.868901 -0.440655
H113  H     H_    0.849434 0.378865 0.893426 0.132892
H114  H     H_    0.717971 0.422419 0.879952 0.152646
H115  H     H_    0.822395 0.318126 0.854149 0.180499
H116  H     H_    0.765955 0.460905 0.813678 0.191106
H117  H     H_    0.881507 0.445802 0.835066 0.152786
O33   O     O_3   0.057738 0.568140 0.179339 -0.584469
C143  C     C_3   0.116499 0.466142 0.165324 0.001674
H118  H     H_    0.163222 0.417565 0.189477 0.145545
H119  H     H_    0.171814 0.455555 0.142131 0.112494
C144  C     C_3   0.044894 0.427376 0.151872 -0.260791
H120  H     H_    0.995531 0.431175 0.176167 0.169251
H121  H     H_    0.994353 0.476916 0.128654 0.157633
C145  C     C_3   0.105382 0.317048 0.137025 -0.489066
H122  H     H_    0.153648 0.311999 0.112171 0.148241
H123  H     H_    0.051417 0.291023 0.127652 0.144659
H124  H     H_    0.155238 0.265523 0.160012 0.144509
C146  C     C_3   0.946267 0.706185 0.308107 -0.281585
C147  C     C_3   0.851377 0.717297 0.287595 -0.455141
H125  H     H_    0.812151 0.790431 0.271550 0.149581
H126  H     H_    0.872439 0.651266 0.267847 0.167269
H127  H     H_    0.797120 0.718417 0.309279 0.152600
H128  H     H_    0.981227 0.633568 0.324434 0.153737
H129  H     H_    0.920160 0.770472 0.329157 0.158750
O34   O     O_3   0.200567 0.503578 0.327993 -0.588059
C148  C     C_3   0.170058 0.437149 0.344321 -0.001136
H130  H     H_    0.108647 0.439047 0.325945 0.145454
H131  H     H_    0.137021 0.459567 0.373799 0.113321
C149  C     C_3   0.260972 0.327423 0.344286 -0.264742
H132  H     H_    0.286898 0.302498 0.314304 0.152911
H133  H     H_    0.325650 0.324743 0.360701 0.159749
C150  C     C_3   0.232101 0.253111 0.362006 -0.492432
H134  H     H_    0.208527 0.274622 0.392378 0.144283
H135  H     H_    0.299231 0.174168 0.361075 0.142181
H136  H     H_    0.168159 0.253842 0.345721 0.143806

loop_
_geom_bond_atom_site_label_1
_geom_bond_atom_site_label_2
_ccdc_geom_bond_type
C10   H52   S    
C140  H110  S    
C87   C88   A    
C114  C115  A    
Cr2   O5    S    
C51   O25   A    
C146  H128  S    
C39   C41   A    
C44   C45   A    
C125  H78   S    
C53   H15   S    
O32   C138  S    
C36   H2    S    
C22   N4    A    
C5    C6    A    
C54   C63   S    
C131  H89   S    
O29   C127  S    
C135  H99   S    
C61   C63   A    
C110  C111  A    
C62   O2    A    
C126  H75   S    
C149  H132  S    
C50   C52   A    
C100  H39   S    
C4    C12   S    
C77   H25   S    
C23   N2    A    
C83   C88   A    
C59   C60   A    
C55   H20   S    
C127  H80   S    
C11   O32   S    
Cr4   O7    S    
C94   H43   S    
C107  H35   S    
C128  H83   S    
C126  H76   S    
C18   O15   A    
C139  C140  S    
N1    N2    A    
Cr6   O10   S    
C25   H18   S    
C143  H119  S    
Cr1   O25   S    
C3    H47   S    
C147  H125  S    
Cr2   O2    S    
C1    O12   A    
C75   C76   A    
C37   C38   A    
C122  H68   S    
C126  H77   S    
C144  H120  S    
C13   C21   A    
C94   C96   A    
C76   H22   S    
C142  H113  S    
C134  H97   S    
C37   O27   S    
C111  H45   S    
C71   H21   S    
C83   H30   S    
C132  H93   S    
C19   O17   A    
C96   O30   S    
C29   O21   A    
Cr3   O23   S    
C4    C5    A    
C27   H54   S    
C104  H42   S    
C56   H12   S    
C6    C7    A    
C92   H38   S    
Cr3   O5    S    
C138  H107  S    
C64   C65   A    
C77   C82   A    
C149  C150  S    
Cr1   O12   S    
C78   H24   S    
C118  H58   S    
C148  H130  S    
C127  C128  S    
C31   C36   A    
Cr6   O19   S    
C44   C48   A    
C60   H16   S    
C106  H28   S    
C111  C112  A    
C97   C98   A    
C146  C147  S    
C53   C54   A    
C99   C108  S    
C105  C107  A    
C64   C68   A    
C140  H111  S    
C34   C35   A    
Cr1   O5    S    
C46   H10   S    
C38   C39   A    
C51   O26   A    
C16   C30   S    
C40   C49   S    
C33   H5    S    
C105  H44   S    
C120  H66   S    
C142  H115  S    
C130  H91   S    
C131  H88   S    
C107  C108  A    
C124  H72   S    
Cr5   O15   S    
C5    C146  S    
C66   C67   A    
C15   O8    A    
C136  H101  S    
Cr2   O21   S    
C121  H63   S    
C38   H4    S    
C57   C63   A    
C145  H123  S    
C80   H27   S    
C137  H103  S    
C29   C84   S    
C10   C14   A    
C119  H62   S    
C91   C92   A    
C150  H135  S    
Cr1   O1    S    
C129  H86   S    
C81   H29   S    
C2    C106  A    
C50   C56   A    
C84   C95   A    
C139  H109  S    
C7    C116  A    
C16   O10   A    
C65   H19   S    
C112  O33   S    
C31   C32   A    
C118  C119  S    
C8    C12   A    
C148  C149  S    
C117  H56   S    
C116  H48   S    
Cr6   O17   S    
C133  H95   S    
C20   C110  S    
C122  H69   S    
C26   C30   A    
C3    C4    A    
C52   C53   A    
C95   H1    S    
C73   O24   A    
C130  H90   S    
C34   C43   S    
C24   C28   A    
C133  C134  S    
C73   O4    A    
C90   C96   A    
O30   C132  S    
C15   O7    A    
C99   C100  A    
C97   H36   S    
Cr2   O26   S    
C91   H34   S    
C57   C58   A    
Cr6   O11   S    
C100  C101  A    
C135  H100  S    
C124  H74   S    
C10   C11   A    
C62   O3    A    
C45   H8    S    
C149  H133  S    
O28   C122  S    
C136  C137  S    
C2    C23   S    
C115  H46   S    
C13   H37   S    
C121  H65   S    
C55   C56   A    
C101  C102  A    
C135  C136  S    
C41   C42   A    
C35   C36   A    
C137  H105  S    
C1    O20   A    
C129  H84   S    
C77   C78   A    
C21   O28   S    
C46   C49   A    
C26   C27   A    
C101  H40   S    
Cr1   O24   S    
C95   C106  A    
C147  H126  S    
C98   C99   A    
C62   C89   S    
C117  C118  S    
C105  C109  A    
C54   C55   A    
O27   C117  S    
C144  H121  S    
C146  H129  S    
C70   C71   A    
C58   C125  S    
C97   C102  A    
C22   N1    A    
C141  H117  S    
C147  H127  S    
C142  H114  S    
C22   C28   S    
C134  H96   S    
C74   C82   S    
C79   C88   S    
C47   H3    S    
C143  C144  S    
C40   O1    A    
C17   O11   A    
C19   O16   A    
Cr4   O14   S    
C125  H79   S    
C67   C68   A    
C18   C90   S    
Cr3   O22   S    
C72   C74   A    
C42   C120  S    
C120  C121  S    
C85   C89   A    
C86   C87   A    
C58   C59   A    
C1    C69   S    
C60   C61   A    
C37   C43   A    
C67   H13   S    
C86   H33   S    
Cr3   O4    S    
Cr5   O19   S    
C138  H106  S    
C14   C51   S    
C21   C84   A    
C45   C49   A    
C15   C31   S    
C23   N3    A    
C16   O9    A    
C83   C85   A    
C118  H59   S    
C127  H81   S    
C32   H55   S    
C42   C43   A    
Cr4   O6    S    
C35   H9    S    
C141  C142  S    
C128  H82   S    
C113  C114  A    
C25   C30   A    
C46   C47   A    
C87   H23   S    
C18   O14   A    
C86   C89   A    
C93   C102  S    
C73   C109  S    
C141  H116  S    
C64   O29   S    
C3    C116  A    
C32   C33   A    
C44   H7    S    
C150  H134  S    
C139  H108  S    
Cr5   O8    S    
C90   C91   A    
C17   O6    A    
C65   C69   A    
C92   C93   A    
Cr4   O19   S    
C119  H60   S    
C123  H70   S    
C144  C145  S    
C71   C72   A    
C134  H98   S    
C103  C104  A    
C9    H50   S    
C110  C115  A    
N3    N4    A    
C39   C48   S    
C132  C133  S    
C93   C94   A    
C29   O22   A    
C9    C14   A    
C121  H64   S    
C81   C82   A    
C145  H122  S    
C8    O34   S    
C137  H104  S    
C138  C139  S    
C119  H61   S    
C104  C109  A    
C129  H85   S    
C66   C69   A    
C123  C124  S    
C2    C13   A    
C114  H51   S    
C143  H118  S    
C8    C9    A    
C148  H131  S    
C57   H14   S    
C103  C108  A    
Cr6   O18   S    
C128  C129  S    
C52   H11   S    
C41   H6    S    
C20   O13   A    
C112  C113  A    
C6    H49   S    
C74   C75   A    
C40   O23   A    
C140  H112  S    
C24   C25   A    
Cr5   O9    S    
C78   C79   A    
C61   H17   S    
C72   H26   S    
Cr4   O13   S    
C123  H71   S    
C20   O18   A    
C98   O31   S    
C59   C68   S    
C47   C48   A    
C131  H87   S    
C33   C34   A    
C85   H31   S    
C120  H67   S    
C124  H73   S    
Cr5   O16   S    
C136  H102  S    
C70   C76   A    
Cr2   O20   S    
C130  C131  S    
C24   C141  S    
C145  H124  S    
O33   C143  S    
C80   C81   A    
C17   C50   S    
C150  H136  S    
C11   C12   A    
C103  H41   S    
O34   C148  S    
C7    C113  S    
C132  H92   S    
C75   H32   S    
C26   H53   S    
C117  H57   S    
Cr3   O3    S    
C133  H94   S    
C79   C80   A    
C122  C123  S    
C66   C130  S    
C27   C28   A    
C19   C70   S    
C125  C126  S    
O31   C135  S    
