data_mof_unit_25773.cif
_audit_creation_date              2012-12-10T17:20:24-0500
_audit_creation_method            fapswitch 2.2
_symmetry_space_group_name_H-M    P1
_symmetry_Int_Tables_number       1
_space_group_crystal_system       triclinic
_cell_length_a                    11.699807
_cell_length_b                    10.8456
_cell_length_c                    9.619533
_cell_angle_alpha                 88.95878
_cell_angle_beta                  89.89103
_cell_angle_gamma                 94.569011
_cell_volume                      1216.54943851

loop_
_atom_site_label
_atom_site_type_symbol
_atom_type_description
_atom_site_fract_x
_atom_site_fract_y
_atom_site_fract_z
_atom_type_partial_charge
C1    C     C_R   0.499550 0.262660 0.501596 0.770047
C2    C     C_R   0.773830 0.095802 0.710897 -0.165267
C3    C     C_R   0.796597 0.977675 0.673717 -0.135415
C4    C     C_R   0.719251 0.906554 0.591662 0.072448
C5    C     C_R   0.611091 0.948705 0.557041 0.074232
C6    C     C_R   0.596893 0.075930 0.576298 0.086792
C7    C     C_R   0.506602 0.129684 0.505992 -0.082146
C8    C     C_R   0.426254 0.056764 0.430117 -0.201229
C9    C     C_R   0.431025 0.929711 0.427874 -0.178028
C10   C     C_R   0.520938 0.873891 0.492872 -0.084923
C11   C     C_R   0.655407 0.664262 0.140457 -0.117907
C12   C     C_R   0.284008 0.498095 0.500151 0.825623
C13   C     C_R   0.735808 0.741150 0.067655 -0.181518
C14   C     C_R   0.738131 0.739269 0.924546 -0.198051
C15   C     C_R   0.658487 0.662767 0.853144 -0.124448
C16   C     C_R   0.577279 0.580450 0.923595 0.202631
C17   C     C_R   0.576628 0.580739 0.072851 0.193131
C18   C     C_R   0.426673 0.422697 0.075605 -0.044466
C19   C     C_R   0.426592 0.422852 0.927795 -0.052501
C20   C     C_R   0.511519 0.738125 0.498442 0.805712
C21   C     C_R   0.714813 0.491344 0.500168 0.829890
C22   C     C_1   0.161808 0.492703 0.500500 -0.179429
C23   C     C_1   0.058943 0.487848 0.500664 0.013051
C24   C     C_1   0.938759 0.484081 0.500652 0.030763
C25   C     C_1   0.836209 0.484742 0.500446 -0.134454
C26   C     C_R   0.678301 0.147248 0.656798 -0.184336
Cu1   Cu    Cu3+1 0.499990 0.499990 0.640660 0.940362
Cu2   Cu    Cu3+1 0.500010 0.500010 0.359340 0.949223
H1    H     H_    0.357230 0.098184 0.376083 0.144074
H2    H     H_    0.802046 0.797914 0.868693 0.163643
H3    H     H_    0.664304 0.671762 0.743230 0.210815
H4    H     H_    0.366459 0.359539 0.874145 0.137179
H5    H     H_    0.672311 0.243793 0.676910 0.170630
H6    H     H_    0.835755 0.151731 0.771085 0.148219
H7    H     H_    0.879741 0.945931 0.698455 0.154508
H8    H     H_    0.363400 0.874278 0.375774 0.155293
H9    H     H_    0.366591 0.359246 0.132026 0.134594
H10   H     H_    0.658218 0.672907 0.249573 0.220810
H11   H     H_    0.796636 0.802763 0.122709 0.183835
N1    N     N_R   0.501070 0.501210 0.147910 -0.199894
N2    N     N_R   0.501110 0.501290 0.852040 -0.200416
O1    O     O_R   0.499990 0.319640 0.618810 -0.594257
O2    O     O_R   0.500000 0.319660 0.381240 -0.572137
O3    O     O_R   0.337190 0.500000 0.618790 -0.566661
O4    O     O_R   0.337200 0.500030 0.381210 -0.571724
O5    O     O_R   0.500000 0.680340 0.618760 -0.582210
O6    O     O_R   0.500010 0.680360 0.381190 -0.587546
O7    O     O_R   0.662800 0.499970 0.618790 -0.601070
O8    O     O_R   0.662810 0.500000 0.381210 -0.579570
I1    I     I_    0.802313 0.787177 0.464565 -0.497902

loop_
_geom_bond_atom_site_label_1
_geom_bond_atom_site_label_2
_ccdc_geom_bond_type
Cu1   O7    S    
C9    H8    S    
C23   C24   S    
Cu2   O6    S    
C15   H3    S    
C6    C7    A    
C12   O4    A    
C11   H10   S    
Cu2   O8    S    
Cu1   N2    S    
C26   H5    S    
C3    H7    S    
C21   O7    A    
C2    H6    S    
C21   O8    A    
C2    C3    A    
C19   N2    A    
C5    C10   A    
C2    C26   A    
C13   C14   A    
C11   C13   A    
Cu1   O1    S    
C6    C26   A    
C14   H2    S    
C8    H1    S    
Cu1   O3    S    
Cu1   O5    S    
C18   H9    S    
C22   C23   T    
C5    C6    A    
C20   O5    A    
Cu2   O4    S    
C13   H11   S    
C20   O6    A    
C7    C8    A    
C19   H4    S    
C15   C16   A    
C12   C22   S    
C1    O1    A    
C4    C5    A    
C18   N1    A    
C24   C25   T    
C12   O3    A    
C18   C19   A    
C9    C10   A    
C10   C20   S    
Cu1   Cu2   S    
Cu2   N1    S    
C14   C15   A    
C16   C17   A    
C21   C25   S    
Cu2   O2    S    
C1    C7    S    
C16   N2    A    
C1    O2    A    
C11   C17   A    
C3    C4    A    
C4    I1    S    
C8    C9    A    
C17   N1    A    
