data_mof_unit_47776.cif
_audit_creation_date              2012-12-10T18:45:07-0500
_audit_creation_method            fapswitch 2.2
_symmetry_space_group_name_H-M    P1
_symmetry_Int_Tables_number       1
_space_group_crystal_system       triclinic
_cell_length_a                    10.702039
_cell_length_b                    9.851907
_cell_length_c                    10.632532
_cell_angle_alpha                 90.010524
_cell_angle_beta                  90.14442
_cell_angle_gamma                 90.045183
_cell_volume                      1121.04232345

loop_
_atom_site_label
_atom_site_type_symbol
_atom_type_description
_atom_site_fract_x
_atom_site_fract_y
_atom_site_fract_z
_atom_type_partial_charge
C1    C     C_R   0.259965 0.499920 0.500035 0.834154
C2    C     C_R   0.496541 0.500022 0.739547 0.868801
C3    C     C_R   0.285671 0.621975 0.130593 -0.192026
C4    C     C_R   0.285601 0.621770 0.868322 -0.177426
C5    C     C_R   0.186890 0.681035 0.064643 -0.138196
C6    C     C_R   0.186832 0.680889 0.933736 -0.135187
C7    C     C_R   0.387233 0.562715 0.933792 0.095853
C8    C     C_R   0.387241 0.562757 0.065648 0.095027
C9    C     C_R   0.487999 0.499643 0.128225 -0.097640
C10   C     C_R   0.488032 0.499668 0.871721 -0.096058
C11   C     C_R   0.583382 0.433368 0.064450 -0.206280
C12   C     C_R   0.740057 0.499986 0.500124 0.863906
C13   C     C_R   0.583404 0.433387 0.935966 -0.213527
C14   C     C_R   0.063878 0.382097 0.464916 -0.188080
C15   C     C_R   0.935852 0.382114 0.464982 -0.201734
C16   C     C_R   0.872538 0.499998 0.500269 -0.010912
C17   C     C_R   0.127545 0.499920 0.500245 -0.005945
C18   C     C_R   0.936222 0.617812 0.535713 -0.194872
C19   C     C_R   0.064270 0.617755 0.535755 -0.212621
C20   C     C_R   0.580330 0.071999 0.575479 -0.070608
C21   C     C_R   0.419635 0.071822 0.424541 -0.068443
C22   C     C_R   0.580329 0.928174 0.575480 -0.068317
C23   C     C_R   0.419644 0.927986 0.424525 -0.069823
C24   C     C_R   0.496488 0.500005 0.260441 0.869917
H1    H     H_    0.659264 0.384103 0.114511 0.151101
H2    H     H_    0.113411 0.708929 0.564435 0.153245
H3    H     H_    0.644579 0.126496 0.635866 0.126930
H4    H     H_    0.355355 0.126182 0.364185 0.125832
H5    H     H_    0.644592 0.873808 0.635847 0.124937
H6    H     H_    0.355404 0.873463 0.364124 0.127270
H7    H     H_    0.659289 0.384117 0.886281 0.147834
H8    H     H_    0.280501 0.621469 0.232123 0.143641
H9    H     H_    0.280392 0.621098 0.766784 0.145733
H10   H     H_    0.109590 0.725845 0.115285 0.137769
H11   H     H_    0.109478 0.725554 0.882667 0.134250
H12   H     H_    0.112693 0.290862 0.436317 0.150833
H13   H     H_    0.886755 0.290858 0.436471 0.155345
H14   H     H_    0.887398 0.709048 0.564289 0.150185
N1    N     N_R   0.500000 0.857200 0.500000 -0.080219
N2    N     N_R   0.500000 0.142810 0.500000 -0.080398
O1    O     O_R   0.316770 0.614620 0.499990 -0.641244
O2    O     O_R   0.683230 0.614620 0.500010 -0.622858
O3    O     O_R   0.316800 0.385290 0.500000 -0.622570
O4    O     O_R   0.683200 0.385290 0.500000 -0.629143
O5    O     O_R   0.500010 0.614690 0.316770 -0.616712
O6    O     O_R   0.499990 0.614690 0.683230 -0.621832
O7    O     O_R   0.500040 0.385360 0.316770 -0.615940
O8    O     O_R   0.499960 0.385360 0.683230 -0.611660
Zn1   Zn    Zn3+2 0.500000 0.653120 0.500000 0.941053
Zn2   Zn    Zn3+2 0.500000 0.346880 0.500000 0.946654

loop_
_geom_bond_atom_site_label_1
_geom_bond_atom_site_label_2
_ccdc_geom_bond_type
C7    C10   A    
C23   H6    S    
C9    C24   S    
C20   H3    S    
C9    C11   A    
C1    C17   S    
C14   C17   A    
O5    Zn1   S    
C5    H10   S    
O8    Zn2   S    
C18   H14   S    
C7    C8    A    
C12   O4    A    
C22   H5    S    
C2    O6    A    
C1    O1    A    
C11   C13   A    
O6    Zn1   S    
C5    C6    A    
C21   N2    A    
C4    C7    A    
C23   N1    A    
C24   O5    A    
O1    Zn1   S    
C17   C19   A    
C21   H4    S    
C20   C22   A    
C3    C8    A    
O7    Zn2   S    
C21   C23   A    
C14   H12   S    
C3    H8    S    
C20   N2    A    
N2    Zn2   S    
N1    Zn1   S    
C4    C6    A    
C11   H1    S    
O2    Zn1   S    
C15   C16   A    
C2    C10   S    
O3    Zn2   S    
C6    H11   S    
C1    O3    A    
C16   C18   A    
C18   C19   A    
O4    Zn2   S    
C19   H2    S    
C14   C15   A    
C15   H13   S    
C12   O2    A    
C2    O8    A    
C4    H9    S    
C24   O7    A    
C22   N1    A    
C13   H7    S    
C12   C16   S    
C8    C9    A    
C3    C5    A    
C10   C13   A    
