data_mof_unit_52610.cif
_audit_creation_date              2013-03-05T16:34:13-0500
_audit_creation_method            fapswitch 2.2
_symmetry_space_group_name_H-M    P1
_symmetry_Int_Tables_number       1
_space_group_crystal_system       triclinic
_cell_length_a                    10.996042
_cell_length_b                    10.813247
_cell_length_c                    9.680572
_cell_angle_alpha                 90.122254
_cell_angle_beta                  90.428381
_cell_angle_gamma                 91.305791
_cell_volume                      1150.71412611

loop_
_atom_site_label
_atom_site_type_symbol
_atom_site_description
_atom_site_fract_x
_atom_site_fract_y
_atom_site_fract_z
_atom_type_partial_charge
O1    O     O_R   0.500000 0.319640 0.618810 -0.580524
O2    O     O_R   0.500010 0.319680 0.381230 -0.573265
C1    C     C_R   0.499462 0.262612 0.500090 0.851654
O3    O     O_R   0.319640 0.499990 0.618790 -0.542564
O4    O     O_R   0.319650 0.500030 0.381210 -0.587133
C2    C     C_R   0.262435 0.493559 0.499238 0.871632
Cu1   Cu    Cu3+1 0.499990 0.499980 0.640670 0.999528
Cu2   Cu    Cu3+1 0.500010 0.500020 0.359330 1.016751
O5    O     O_R   0.499990 0.680320 0.618770 -0.579913
O6    O     O_R   0.500000 0.680360 0.381190 -0.593962
O7    O     O_R   0.680350 0.499970 0.618790 -0.598607
O8    O     O_R   0.680360 0.500010 0.381210 -0.529641
C3    C     C_R   0.502145 0.737024 0.500251 0.805948
C4    C     C_R   0.737856 0.492405 0.500774 0.891114
C5    C     C_R   0.143088 0.723827 0.118213 -0.049676
H1    H     H_    0.134832 0.823073 0.109624 0.195103
C6    C     C_R   0.098649 0.662119 0.234057 -0.139818
H2    H     H_    0.055954 0.715127 0.314741 0.187756
C7    C     C_R   0.108321 0.533191 0.246543 0.019834
C8    C     C_R   0.169480 0.465616 0.142903 0.442319
C9    C     C_R   0.210305 0.530003 0.025261 -0.183293
C10   C     C_R   0.197376 0.657560 0.013167 -0.165846
C11   C     C_R   0.934056 0.447140 0.379591 0.340756
C12   C     C_R   0.872723 0.473736 0.502489 -0.226283
C13   C     C_R   0.940993 0.463410 0.625992 -0.061189
C14   C     C_R   0.066913 0.440481 0.620402 0.339671
C15   C     C_R   0.128459 0.472838 0.497785 -0.212916
C16   C     C_R   0.059157 0.476760 0.374048 -0.042703
C17   C     C_R   0.881828 0.567120 0.844006 0.293262
C18   C     C_R   0.832832 0.557930 0.977966 0.185765
C19   C     C_R   0.777216 0.444946 0.018480 -0.256231
C20   C     C_R   0.774556 0.340556 0.930916 0.356779
C21   C     C_R   0.826066 0.350730 0.801130 -0.141566
C22   C     C_R   0.880744 0.461651 0.759202 -0.017212
C23   C     C_R   0.460102 0.061886 0.614127 0.131823
C24   C     C_R   0.505268 0.128878 0.501661 -0.106632
C25   C     C_R   0.563501 0.065669 0.395148 -0.121955
C26   C     C_R   0.566443 0.936792 0.395882 -0.168755
C27   C     C_R   0.509627 0.870350 0.502627 -0.086943
C28   C     C_R   0.462253 0.934147 0.614403 0.123718
C29   C     C_3   0.337364 0.921540 0.672660 -0.481857
C30   C     C_3   0.334269 0.061064 0.671476 -0.338942
H3    H     H_    0.271220 0.877000 0.599457 0.219290
H4    H     H_    0.336019 0.882623 0.778572 0.203582
H5    H     H_    0.331707 0.101951 0.776869 0.249926
C31   C     C_R   0.482448 0.605969 0.072571 0.217311
N1    N     N_R   0.500790 0.500930 0.147930 -0.212799
C32   C     C_R   0.494138 0.392598 0.073676 -0.025247
C33   C     C_R   0.494161 0.392520 0.925728 -0.041253
N2    N     N_R   0.500790 0.500890 0.852020 -0.210735
C34   C     C_R   0.485376 0.606226 0.927420 0.174525
C35   C     C_3   0.555846 0.725363 0.924271 -0.389929
C36   C     C_3   0.546094 0.728426 0.081302 -0.441358
H6    H     H_    0.649711 0.714057 0.886344 0.249828
H7    H     H_    0.633262 0.725947 0.137413 0.270579
H8    H     H_    0.232610 0.705509 0.923469 0.181849
H9    H     H_    0.735978 0.438321 0.118844 0.239565
N3    N     N_R   0.721733 0.223752 0.972989 0.139101
O9    O     O_R   0.701138 0.135745 0.883248 -0.343054
O10   O     O_R   0.696044 0.202900 0.101440 -0.335298
H10   H     H_    0.826952 0.271319 0.732622 0.200449
H11   H     H_    0.604286 0.115498 0.310497 0.239600
H12   H     H_    0.610328 0.889540 0.312000 0.185076
H13   H     H_    0.266333 0.095959 0.596313 0.245704
H14   H     H_    0.490647 0.305147 0.126990 0.207136
H15   H     H_    0.491685 0.304810 0.872243 0.190097
H16   H     H_    0.505463 0.800641 0.874157 0.201075
H17   H     H_    0.484103 0.801111 0.118095 0.191286
N4    N     N_R   0.196239 0.335736 0.157500 0.160134
O11   O     O_R   0.190022 0.280620 0.276670 -0.334423
O12   O     O_R   0.235035 0.272876 0.052518 -0.322706
H18   H     H_    0.257059 0.482337 0.944097 0.210575
N5    N     N_R   0.884873 0.350946 0.291154 0.139242
O13   O     O_R   0.945116 0.314471 0.184129 -0.278355
O14   O     O_R   0.799103 0.277725 0.337787 -0.350123
N6    N     N_R   0.127569 0.371950 0.728362 0.134691
O15   O     O_R   0.079902 0.357433 0.849732 -0.329637
O16   O     O_R   0.215103 0.299113 0.695737 -0.378376
N7    N     N_R   0.928316 0.682584 0.791126 0.159836
O17   O     O_R   0.041641 0.693659 0.754870 -0.385794
O18   O     O_R   0.852490 0.766303 0.751618 -0.309082
N8    N     N_R   0.843015 0.659084 0.075174 0.105651
O19   O     O_R   0.868517 0.771489 0.035477 -0.283081
O20   O     O_R   0.826434 0.639445 0.206134 -0.410842

loop_
_geom_bond_atom_site_label_1
_geom_bond_atom_site_label_2
_geom_bond_distance
_ccdc_geom_bond_type
C29   H3    1.112652 S    
C29   C30   1.509939 S    
C7    C8    1.422026 A    
C20   N3    1.439034 S    
C25   H11   1.076733 S    
Cu1   Cu2   2.723534 S    
Cu1   O7    1.996101 S    
C14   C15   1.411521 A    
C25   C26   1.394728 A    
C24   C25   1.402567 A    
N6    O16   1.297910 A    
C26   C27   1.402380 A    
O7    C4    1.313210 A    
N3    O10   1.296312 A    
C5    H1    1.082384 S    
Cu1   O5    1.962000 S    
N5    O13   1.299321 A    
C4    C12   1.501197 S    
N4    O12   1.301383 A    
C23   C30   1.494575 S    
O5    C3    1.302163 A    
C5    C10   1.389019 A    
C19   C20   1.409829 A    
C14   N6    1.449722 S    
C11   C12   1.404413 A    
C32   H14   1.078325 S    
C13   C22   1.454133 S    
C9    C10   1.394921 A    
N5    O14   1.301543 A    
C11   N5    1.439110 S    
O3    Cu1   1.992842 S    
C36   H17   1.111809 S    
C35   H6    1.107376 S    
C21   C22   1.392023 A    
C36   H7    1.099073 S    
C33   H15   1.079283 S    
C9    H18   1.078755 S    
C34   C35   1.488628 S    
N1    C32   1.373314 A    
C12   C13   1.412944 A    
O3    C2    1.314044 A    
C27   C28   1.392743 A    
N7    O18   1.300808 A    
C10   H8    1.081998 S    
N2    C34   1.366012 A    
N3    O9    1.302040 A    
C31   C34   1.405762 A    
O1    C1    1.303018 A    
C23   C24   1.397066 A    
C18   N8    1.443230 S    
C17   C18   1.410823 A    
C2    C15   1.485054 S    
C17   N7    1.435189 S    
C18   C19   1.411386 A    
Cu2   O8    1.992843 S    
C6    H2    1.083909 S    
C11   C16   1.406726 A    
N6    O15   1.298491 A    
C7    C16   1.478612 S    
C35   H16   1.105940 S    
Cu2   O6    1.961063 S    
C28   C29   1.491951 S    
O8    C4    1.318335 A    
N8    O19   1.300668 A    
N8    O20   1.299396 A    
C29   H4    1.109189 S    
C8    N4    1.448454 S    
C30   H13   1.111637 S    
C35   C36   1.525072 S    
C26   H12   1.081039 S    
C5    C6    1.392178 A    
C31   N1    1.369203 A    
C32   C33   1.432224 A    
O1    Cu1   1.961063 S    
O2    Cu2   1.962002 S    
Cu1   N2    2.045945 S    
O6    C3    1.303975 A    
O4    Cu2   1.996101 S    
C20   C21   1.385587 A    
C19   H9    1.077085 S    
O2    C1    1.306811 A    
C13   C14   1.413600 A    
Cu2   N1    2.046600 S    
O4    C2    1.309686 A    
C1    C24   1.449070 S    
C17   C22   1.403569 A    
C31   C36   1.485503 S    
C6    C7    1.405991 A    
C23   C28   1.382024 A    
N4    O11   1.301152 A    
C3    C27   1.442283 S    
N7    O17   1.300104 A    
C8    C9    1.407129 A    
C21   H10   1.084123 S    
C33   N2    1.374075 A    
C15   C16   1.416110 A    
C30   H5    1.111883 S    
