data_mof_unit_43172.cif
_audit_creation_date              2012-10-26T18:47:56-0400
_audit_creation_method            fapswitch 2.2
_symmetry_space_group_name_H-M    P1
_symmetry_Int_Tables_number       1
_space_group_crystal_system       triclinic
_cell_length_a                    15.85278
_cell_length_b                    8.723115
_cell_length_c                    7.465132
_cell_angle_alpha                 103.162078
_cell_angle_beta                  94.360609
_cell_angle_gamma                 92.567915
_cell_volume                      1000.23801668

loop_
_atom_site_label
_atom_site_type_symbol
_atom_type_description
_atom_site_fract_x
_atom_site_fract_y
_atom_site_fract_z
_atom_type_partial_charge
C1    C     C_R   0.498404 0.199899 0.453704 0.568384
C2    C     C_2   0.517699 0.968914 0.574321 0.203767
C3    C     C_R   0.340359 0.499804 0.502087 0.547139
C4    C     C_R   0.506652 0.800198 0.546982 0.524658
C5    C     C_R   0.659647 0.500141 0.497923 0.537206
C6    C     C_3   0.051258 0.412927 0.648708 -0.145365
C7    C     C_3   0.041598 0.412727 0.311942 -0.260787
C8    C     C_3   0.943736 0.412203 0.307964 -0.204340
C9    C     C_1   0.749113 0.499365 0.494013 -0.022714
C10   C     C_3   0.083098 0.500515 0.505183 0.034241
C11   C     C_3   0.953421 0.415854 0.649871 0.130317
C12   C     C_3   0.917041 0.498589 0.498795 0.055042
C13   C     C_3   0.955814 0.670882 0.544263 -0.231914
C14   C     C_3   0.054072 0.672583 0.545898 0.120218
C15   C     C_1   0.824698 0.498901 0.494520 -0.061139
C16   C     C_1   0.175346 0.500448 0.506920 -0.020994
C17   C     C_1   0.250890 0.500256 0.506245 0.003991
C18   C     C_2   0.496082 0.032189 0.431276 -0.088832
Cu1   Cu    Cu3+1 0.509300 0.517380 0.684380 1.073324
Cu2   Cu    Cu3+1 0.490700 0.482620 0.315620 1.008080
H1    H     H_    0.082054 0.466748 0.789228 0.087634
H2    H     H_    0.930374 0.733004 0.438924 0.115926
H3    H     H_    0.570607 0.995290 0.827084 0.333719
H4    H     H_    0.391002 0.297706 0.005577 0.338227
H5    H     H_    0.063555 0.470762 0.203963 0.108101
H6    H     H_    0.060922 0.289027 0.277596 0.143098
H7    H     H_    0.071060 0.730149 0.816476 0.321541
H8    H     H_    0.072936 0.727980 0.433268 0.165179
H9    H     H_    0.939007 0.484375 0.788669 0.090982
H10   H     H_    0.473604 0.959746 0.295833 0.089369
H11   H     H_    0.565816 0.622719 0.051341 0.191170
H12   H     H_    0.070126 0.288861 0.614293 0.174308
H13   H     H_    0.916060 0.288398 0.270380 0.177133
H14   H     H_    0.918920 0.471197 0.199130 0.102662
H15   H     H_    0.936591 0.736182 0.679663 0.132293
H16   H     H_    0.863609 0.265697 0.677910 0.328764
N1    N     N_2   0.476670 0.456430 0.038530 0.036402
N2    N     N_2   0.523330 0.543570 0.961470 -0.165141
O1    O     O_R   0.506050 0.286130 0.619770 -0.374786
O2    O     O_3   0.551099 0.062351 0.743523 -0.661549
O3    O     O_3   0.420509 0.353414 0.924353 -0.526282
O4    O     O_3   0.094406 0.765849 0.712250 -0.692925
O5    O     O_R   0.490330 0.256780 0.308370 -0.525062
O6    O     O_R   0.387300 0.514690 0.655770 -0.443867
O7    O     O_R   0.371580 0.485340 0.344370 -0.516925
O8    O     O_R   0.509670 0.743220 0.691630 -0.520894
O9    O     O_R   0.493950 0.713870 0.380230 -0.546363
O10   O     O_R   0.628420 0.514660 0.655630 -0.508844
O11   O     O_R   0.612700 0.485310 0.344230 -0.515592
O12   O     O_3   0.917863 0.260329 0.619203 -0.708557

loop_
_geom_bond_atom_site_label_1
_geom_bond_atom_site_label_2
_ccdc_geom_bond_type
C6    C10   S    
C7    C10   S    
C2    C4    S    
C11   C12   S    
C12   C15   S    
C5    C9    S    
Cu2   O11   S    
Cu2   N1    S    
Cu1   N2    S    
C2    C18   D    
C6    H12   S    
Cu2   O7    S    
C7    H5    S    
H11   N2    S    
C8    C12   S    
C14   O4    S    
C9    C15   T    
Cu1   O8    S    
C7    C8    S    
C11   O12   S    
C4    O8    A    
C13   C14   S    
C12   C13   S    
H4    O3    S    
H7    O4    S    
C5    O11   A    
C1    C18   S    
N1    N2    D    
C7    H6    S    
Cu1   O1    S    
C18   H10   S    
C1    O5    A    
C13   H2    S    
C3    C17   S    
C8    H13   S    
N1    O3    S    
C5    O10   A    
C3    O6    A    
Cu2   O9    S    
C1    O1    A    
H3    O2    S    
C2    O2    S    
Cu2   O5    S    
H16   O12   S    
Cu1   O6    S    
C11   H9    S    
C10   C14   S    
C6    C11   S    
Cu1   O10   S    
C10   C16   S    
C14   H8    S    
C8    H14   S    
C6    H1    S    
C3    O7    A    
C13   H15   S    
Cu1   Cu2   S    
C16   C17   T    
C4    O9    A    
