data_mof_unit_35243.cif
_audit_creation_date              2012-12-10T16:57:05-0500
_audit_creation_method            fapswitch 2.2
_symmetry_space_group_name_H-M    P1
_symmetry_Int_Tables_number       1
_space_group_crystal_system       triclinic
_cell_length_a                    7.762349
_cell_length_b                    8.630768
_cell_length_c                    16.698912
_cell_angle_alpha                 91.949857
_cell_angle_beta                  80.695633
_cell_angle_gamma                 93.493886
_cell_volume                      1101.64139715

loop_
_atom_site_label
_atom_site_type_symbol
_atom_type_description
_atom_site_fract_x
_atom_site_fract_y
_atom_site_fract_z
_atom_type_partial_charge
C1    C     C_R   0.545290 0.794457 0.499176 0.881673
C2    C     C_R   0.454690 0.205543 0.500898 0.888140
C3    C     C_2   0.563715 0.957526 0.509935 0.184915
C4    C     C_2   0.436178 0.042453 0.490244 0.182398
C5    C     C_R   0.479337 0.511769 0.653964 0.856261
C6    C     C_R   0.522622 0.497785 0.345571 0.860974
C7    C     C_R   0.477516 0.566779 0.737099 -0.030073
C8    C     C_R   0.537732 0.506691 0.258047 -0.031090
C9    C     C_R   0.628956 0.643494 0.758310 -0.167458
C10   C     C_R   0.386631 0.505422 0.222120 -0.188495
C11   C     C_R   0.627803 0.703898 0.836214 -0.076929
C12   C     C_R   0.401278 0.526578 0.139468 -0.089049
C13   C     C_R   0.476470 0.684583 0.893721 0.093468
C14   C     C_R   0.566806 0.550980 0.092586 0.121939
C15   C     C_R   0.321580 0.618390 0.871443 -0.174845
C16   C     C_R   0.718012 0.546616 0.127486 -0.199441
C17   C     C_R   0.321746 0.560111 0.792872 -0.173363
C18   C     C_R   0.703703 0.524576 0.210175 -0.170591
C19   C     C_2   0.492651 0.688603 0.979526 0.317219
C20   C     C_2   0.581372 0.576048 0.005749 0.330626
H1    H     H_    0.748707 0.655555 0.714997 0.139720
H2    H     H_    0.257539 0.489889 0.257843 0.152301
H3    H     H_    0.822155 0.525480 0.236757 0.160013
H4    H     H_    0.202544 0.505321 0.776535 0.161085
H5    H     H_    0.204930 0.601340 0.916303 0.144745
H6    H     H_    0.846252 0.563289 0.091049 0.143897
H7    H     H_    0.283802 0.525126 0.112052 0.141804
H8    H     H_    0.748250 0.753732 0.853661 0.136512
H9    H     H_    0.023248 0.380530 0.439585 0.189420
H10   H     H_    0.976759 0.619503 0.560400 0.186455
N1    N     N_2   0.953500 0.457650 0.478520 -0.155295
N2    N     N_2   0.046500 0.542350 0.521480 -0.153711
O1    O     O_R   0.388470 0.738640 0.505270 -0.553332
O2    O     O_R   0.611530 0.261360 0.494730 -0.550566
O3    O     O_R   0.679650 0.711510 0.491500 -0.646142
O4    O     O_R   0.320350 0.288490 0.508500 -0.642218
O5    O     O_R   0.337210 0.515200 0.623500 -0.621756
O6    O     O_R   0.662790 0.484800 0.376500 -0.626035
O7    O     O_R   0.628380 0.488060 0.609730 -0.615202
O8    O     O_R   0.371620 0.511940 0.390270 -0.618857
Zn1   Zn    Zn3+2 0.305580 0.518120 0.509190 0.984476
Zn2   Zn    Zn3+2 0.694420 0.481880 0.490810 0.982827
O9    O     O_3   0.675350 0.476815 0.950462 -0.792347
H11   H     H_    0.721405 0.395859 0.980681 0.336270
O10   O     O_3   0.400536 0.790255 0.033716 -0.792151
H12   H     H_    0.341491 0.860152 0.002212 0.336854
O11   O     O_3   0.698034 0.023353 0.548106 -0.765429
H13   H     H_    0.768678 0.940757 0.563663 0.340641
O12   O     O_3   0.301736 0.976581 0.452161 -0.763611
H14   H     H_    0.230705 0.059090 0.436832 0.343353

loop_
_geom_bond_atom_site_label_1
_geom_bond_atom_site_label_2
_ccdc_geom_bond_type
C2    C4    S    
N2    Zn1   S    
C19   O10   S    
C15   C17   A    
N1    Zn2   S    
C5    O5    A    
C3    O11   S    
C11   C13   A    
O11   H13   S    
O2    Zn2   S    
C4    O12   S    
O9    H11   S    
O1    Zn1   S    
C2    O2    A    
C19   C20   D    
C5    O7    A    
C1    O1    A    
H9    N1    S    
O10   H12   S    
C10   H2    S    
H10   N2    S    
C9    C11   A    
C9    H1    S    
O4    Zn1   S    
C10   C12   A    
C11   H8    S    
C16   C18   A    
O8    Zn1   S    
C12   C14   A    
O6    Zn2   S    
O7    Zn2   S    
C14   C16   A    
C13   C15   A    
O5    Zn1   S    
C6    O8    A    
C15   H5    S    
C17   H4    S    
C13   C19   S    
C12   H7    S    
C18   H3    S    
C7    C9    A    
C20   O9    S    
C1    O3    A    
C14   C20   S    
C8    C10   A    
O12   H14   S    
C2    O4    A    
C5    C7    S    
O3    Zn2   S    
C6    C8    S    
C1    C3    S    
C6    O6    A    
C8    C18   A    
C3    C4    D    
N1    N2    D    
C7    C17   A    
C16   H6    S    
