data_mof_unit_46505.cif
_audit_creation_date              2013-03-05T15:40:57-0500
_audit_creation_method            fapswitch 2.2
_symmetry_space_group_name_H-M    P1
_symmetry_Int_Tables_number       1
_space_group_crystal_system       triclinic
_cell_length_a                    7.875141
_cell_length_b                    8.559898
_cell_length_c                    13.576482
_cell_angle_alpha                 93.701805
_cell_angle_beta                  92.175606
_cell_angle_gamma                 94.182672
_cell_volume                      910.016613803

loop_
_atom_site_label
_atom_site_type_symbol
_atom_site_description
_atom_site_fract_x
_atom_site_fract_y
_atom_site_fract_z
_atom_type_partial_charge
O1    O     O_R   0.891570 0.738930 0.506190 -0.597078
O2    O     O_R   0.108430 0.261070 0.493810 -0.593483
O3    O     O_R   0.174650 0.711050 0.490030 -0.582321
O4    O     O_R   0.825350 0.288950 0.509970 -0.580540
C1    C     C_R   0.044938 0.794513 0.497327 0.938484
C2    C     C_R   0.954958 0.205438 0.502322 0.943747
O5    O     O_R   0.909850 0.521900 0.644940 -0.573389
O6    O     O_R   0.090150 0.478100 0.355060 -0.581943
O7    O     O_R   0.192930 0.494020 0.628780 -0.600929
O8    O     O_R   0.807070 0.505980 0.371220 -0.595508
C3    C     C_R   0.061438 0.512329 0.683164 0.871800
C4    C     C_R   0.937822 0.484007 0.317128 0.876656
Zn1   Zn    Zn3+2 0.810990 0.518620 0.510790 1.125867
Zn2   Zn    Zn3+2 0.189010 0.481380 0.489210 1.119930
C5    C     C_R   0.087761 0.523456 0.790884 -0.174915
C6    C     C_R   0.906230 0.451379 0.210867 -0.173435
C7    C     C_R   0.046155 0.644826 0.953534 -0.250724
C8    C     C_R   0.910303 0.276219 0.063804 -0.245696
C9    C     C_R   0.987562 0.610713 0.855482 0.305266
C10   C     C_R   0.982269 0.330491 0.156424 0.303847
C11   C     C_R   0.231920 0.458434 0.827923 -0.237145
C12   C     C_R   0.767546 0.519596 0.169992 -0.261267
C13   C     C_R   0.290552 0.489880 0.925973 0.098601
C14   C     C_R   0.681874 0.452888 0.083721 0.115661
C15   C     C_R   0.199916 0.590989 0.987651 0.084425
C16   C     C_R   0.758643 0.332721 0.028680 0.085139
C17   C     C_R   0.444431 0.433300 0.961419 0.095163
C18   C     C_R   0.519349 0.498061 0.053024 0.096340
C19   C     C_R   0.425397 0.599584 0.112907 -0.113278
C20   C     C_R   0.524652 0.313198 0.908510 -0.129249
C21   C     C_R   0.266261 0.641195 0.081595 -0.162390
C22   C     C_R   0.679438 0.264719 0.941555 -0.150924
H1    H     H_    0.197238 0.717179 0.130123 0.176245
H2    H     H_    0.735745 0.171099 0.899570 0.187936
H3    H     H_    0.722680 0.619103 0.211254 0.167187
H4    H     H_    0.305022 0.393500 0.776201 0.188142
H5    H     H_    0.973754 0.717263 0.002366 0.182044
H6    H     H_    0.967906 0.183478 0.021701 0.183463
H7    H     H_    0.467224 0.643721 0.186560 0.168557
H8    H     H_    0.467450 0.249428 0.843035 0.159673
C23   C     C_2   0.067832 0.958047 0.494469 -0.310461
C24   C     C_2   0.931819 0.041813 0.504540 -0.319114
H9    H     H_    0.195588 0.008730 0.483549 0.248615
H10   H     H_    0.803974 0.991084 0.515308 0.245916
N1    N     N_2   0.440860 0.456490 0.474790 0.040994
N2    N     N_2   0.559140 0.543510 0.525210 0.047044
N3    N     N_R   0.123009 0.253802 0.196126 0.213750
O9    O     O_R   0.266349 0.334400 0.220469 -0.349163
O10   O     O_R   0.119841 0.101282 0.188742 -0.392216
N4    N     N_R   0.832459 0.672396 0.822433 0.220373
O11   O     O_R   0.806643 0.818423 0.845472 -0.390808
O12   O     O_R   0.703853 0.576427 0.790140 -0.357872
N5    N     N_R   0.486791 0.306013 0.450874 0.312681
O13   O     O_R   0.469500 0.199504 0.514626 -0.373688
O14   O     O_R   0.526113 0.265931 0.361082 -0.318964
N6    N     N_R   0.513038 0.693388 0.550653 0.307108
O15   O     O_R   0.524984 0.799793 0.486542 -0.375613
O16   O     O_R   0.492047 0.735646 0.642850 -0.318540

loop_
_geom_bond_atom_site_label_1
_geom_bond_atom_site_label_2
_geom_bond_distance
_ccdc_geom_bond_type
C15   C21   1.389334 A    
O5    Zn1   1.951034 S    
N4    O12   1.300468 A    
O7    Zn2   1.889916 S    
C21   H1    1.084438 S    
C16   C22   1.388928 A    
C13   C17   1.416369 A    
C20   C22   1.384074 A    
C23   H9    1.085534 S    
C23   C24   1.338143 D    
N3    O9    1.299258 A    
C8    C16   1.399490 A    
C6    C10   1.414544 A    
O6    C4    1.293106 A    
C7    C15   1.399843 A    
C19   H7    1.076660 S    
C13   C15   1.414791 A    
N4    O11   1.301160 A    
C8    H6    1.084593 S    
C20   H8    1.078026 S    
C19   C21   1.386501 A    
C11   H4    1.077230 S    
C7    H5    1.084558 S    
N1    N2    1.294450 D    
C17   C20   1.416274 A    
O5    C3    1.293772 A    
C12   H3    1.077726 S    
O7    C3    1.307208 A    
C9    N4    1.433573 S    
O2    C2    1.278527 A    
O3    Zn2   1.976760 S    
C24   H10   1.085894 S    
O1    C1    1.278369 A    
O8    C4    1.304905 A    
O4    C2    1.291696 A    
C18   C19   1.418394 A    
C7    C9    1.397782 A    
C14   C16   1.416945 A    
C5    C9    1.415486 A    
Zn2   N1    2.025623 S    
C8    C10   1.396518 A    
N5    O14   1.299948 A    
C11   C13   1.395212 A    
Zn1   N2    2.025624 S    
O2    Zn2   1.951050 S    
C12   C14   1.396610 A    
C10   N3    1.434003 S    
O1    Zn1   1.951051 S    
N1    N5    1.385008 S    
C14   C18   1.419107 A    
C5    C11   1.391564 A    
N6    O15   1.300815 A    
N3    O10   1.301271 A    
C2    C24   1.401596 S    
N2    N6    1.384669 S    
C17   C18   1.417623 A    
C1    C23   1.401528 S    
C6    C12   1.389452 A    
O6    Zn2   1.951035 S    
N5    O13   1.300628 A    
C3    C5    1.465244 S    
C4    C6    1.460051 S    
O4    Zn1   1.976759 S    
N6    O16   1.300356 A    
O3    C1    1.291779 A    
O8    Zn1   1.889918 S    
C22   H2    1.084343 S    
