data_mof_unit_41324.cif
_audit_creation_date              2012-12-10T17:51:24-0500
_audit_creation_method            fapswitch 2.2
_symmetry_space_group_name_H-M    P1
_symmetry_Int_Tables_number       1
_space_group_crystal_system       triclinic
_cell_length_a                    9.913181
_cell_length_b                    10.621014
_cell_length_c                    16.627796
_cell_angle_alpha                 91.995743
_cell_angle_beta                  85.740362
_cell_angle_gamma                 90.856898
_cell_volume                      1744.67859785

loop_
_atom_site_label
_atom_site_type_symbol
_atom_type_description
_atom_site_fract_x
_atom_site_fract_y
_atom_site_fract_z
_atom_type_partial_charge
C1    C     C_R   0.500914 0.739123 0.496400 0.903717
C2    C     C_R   0.527101 0.484981 0.258406 -0.232535
C3    C     C_R   0.358017 0.860254 0.373722 -0.318269
C4    C     C_R   0.483176 0.474152 0.649937 0.997831
C5    C     C_R   0.280317 0.921826 0.320200 0.602936
C6    C     C_R   0.287248 0.052734 0.317662 -0.215959
C7    C     C_R   0.361991 0.122088 0.371902 -0.304512
C8    C     C_R   0.429186 0.061280 0.431654 0.115513
C9    C     C_R   0.429207 0.929433 0.431735 0.049798
C10   C     C_R   0.501784 0.871145 0.490016 -0.044506
C11   C     C_R   0.571224 0.939512 0.546840 -0.169130
C12   C     C_R   0.352385 0.365328 0.763653 0.476492
C13   C     C_R   0.569988 0.067819 0.547320 -0.217962
C14   C     C_R   0.498951 0.127898 0.491006 -0.072138
C15   C     C_R   0.856501 0.707089 0.567425 -0.148808
C16   C     C_R   0.499564 0.260508 0.496736 0.823949
C17   C     C_R   0.922763 0.823678 0.569958 -0.338852
C18   C     C_R   0.064414 0.828835 0.556354 0.455725
C19   C     C_R   0.130429 0.714885 0.565627 0.389064
C20   C     C_R   0.069339 0.603388 0.533107 -0.042932
C21   C     C_R   0.925304 0.601737 0.533366 0.167829
C22   C     C_R   0.931022 0.401930 0.467945 -0.023393
C23   C     C_R   0.410614 0.485166 0.134763 0.522726
C24   C     C_R   0.074034 0.401741 0.468243 -0.125575
C25   C     C_R   0.518189 0.498071 0.346364 0.890592
C26   C     C_R   0.478571 0.407883 0.727463 -0.329721
C27   C     C_R   0.599091 0.373766 0.764087 0.361174
C28   C     C_R   0.586569 0.325040 0.840715 -0.250540
C29   C     C_R   0.460850 0.316191 0.883421 0.013198
C30   C     C_R   0.343630 0.326872 0.843411 -0.169652
C31   C     C_3   0.105151 0.781281 0.308700 -0.249044
C32   C     C_3   0.084345 0.038271 0.523239 -0.313014
C33   C     C_3   0.859887 0.504530 0.238854 -0.240599
C34   C     C_R   0.411555 0.508711 0.217563 -0.345125
C35   C     C_3   0.211819 0.245073 0.690879 -0.099384
C36   C     C_R   0.646040 0.441655 0.215094 0.534836
C37   C     C_R   0.643888 0.414772 0.132662 -0.308548
C38   C     C_R   0.526960 0.433619 0.092996 -0.065397
C39   C     C_2   0.454204 0.323374 0.971535 -0.068960
C40   C     C_2   0.535534 0.407106 0.006756 -0.114319
H1    H     H_    0.733335 0.376406 0.099676 0.189147
H2    H     H_    0.321165 0.544882 0.250465 0.221756
H3    H     H_    0.129687 0.321844 0.441841 0.132385
H4    H     H_    0.612679 0.459484 0.971473 0.166764
H5    H     H_    0.245296 0.312344 0.874969 0.190646
H6    H     H_    0.374650 0.273828 0.006562 0.189848
H7    H     H_    0.676148 0.305414 0.871339 0.191212
H8    H     H_    0.905800 0.390882 0.816651 0.379990
H9    H     H_    0.051850 0.834325 0.360292 0.116740
H10   H     H_    0.150296 0.694405 0.329872 0.154944
H11   H     H_    0.027409 0.751768 0.267070 0.199280
H12   H     H_    0.622204 0.893321 0.592857 0.156179
H13   H     H_    0.994422 0.080374 0.557192 0.190121
H14   H     H_    0.060040 0.006543 0.461409 0.144169
H15   H     H_    0.162078 0.114034 0.516652 0.195745
H16   H     H_    0.145977 0.821330 0.776323 0.385696
H17   H     H_    0.946353 0.485511 0.275202 0.190094
H18   H     H_    0.822473 0.600436 0.257169 0.139155
H19   H     H_    0.898375 0.501367 0.174279 0.187569
H20   H     H_    0.095845 0.650006 0.111343 0.379538
H21   H     H_    0.188419 0.177010 0.739512 0.168391
H22   H     H_    0.298856 0.211634 0.649893 0.124105
H23   H     H_    0.361983 0.758818 0.368692 0.160160
H24   H     H_    0.122367 0.248301 0.654729 0.219182
H25   H     H_    0.233355 0.101186 0.273870 0.178550
H26   H     H_    0.365730 0.223174 0.366411 0.183425
H27   H     H_    0.621874 0.120578 0.593031 0.189474
H28   H     H_    0.879588 0.322047 0.441368 0.151891
H29   H     H_    0.755864 0.699673 0.595250 0.233461
H30   H     H_    0.866065 0.906887 0.589166 0.190546
N1    N     N_R   0.857140 0.501200 0.500750 -0.083534
N2    N     N_R   0.142740 0.501280 0.500770 -0.103790
O1    O     O_R   0.385310 0.683220 0.500000 -0.618986
O2    O     O_2   0.805248 0.525989 0.712935 -0.275050
O3    O     O_3   0.879073 0.322846 0.778521 -0.537566
O4    O     O_3   0.203841 0.855811 0.266123 -0.566018
O5    O     O_3   0.137106 0.940532 0.566516 -0.551825
O6    O     O_2   0.149639 0.590394 0.702080 -0.201925
O7    O     O_2   0.336846 0.737102 0.663379 -0.310841
O8    O     O_3   0.110181 0.828352 0.722628 -0.514546
O9    O     O_3   0.758992 0.411689 0.254353 -0.593276
O10   O     O_2   0.302955 0.574956 0.004313 -0.270929
O11   O     O_2   0.177158 0.408306 0.077343 -0.342871
O12   O     O_R   0.614640 0.683250 0.500010 -0.662930
O13   O     O_3   0.175459 0.633924 0.141963 -0.550971
O14   O     O_3   0.235886 0.367052 0.723263 -0.540022
O15   O     O_R   0.371780 0.500010 0.615800 -0.497937
O16   O     O_R   0.601110 0.500030 0.615800 -0.562398
O17   O     O_R   0.385360 0.316750 0.499990 -0.654568
O18   O     O_R   0.614690 0.316780 0.500000 -0.595801
O19   O     O_R   0.398890 0.499970 0.384200 -0.655196
O20   O     O_R   0.628220 0.499990 0.384200 -0.572563
O21   O     O_2   0.781786 0.323775 0.639148 -0.291168
S1    S     S_3+6 0.768529 0.388929 0.720916 0.042588
S2    S     S_3+6 0.186972 0.713470 0.664552 0.111360
S3    S     S_3+6 0.264189 0.524288 0.086244 0.007204
Zn1   Zn    Zn3+2 0.346870 0.499980 0.499990 0.984044
Zn2   Zn    Zn3+2 0.653130 0.500020 0.500010 1.012852

loop_
_geom_bond_atom_site_label_1
_geom_bond_atom_site_label_2
_ccdc_geom_bond_type
C28   H7    S    
C16   O18   A    
C33   H18   S    
O2    S1    D    
C30   H5    S    
C19   C20   A    
C34   H2    S    
O20   Zn2   S    
C7    C8    A    
C4    O15   A    
C1    O12   A    
O1    Zn1   S    
C26   C27   A    
C37   C38   A    
C21   N1    A    
C36   C37   A    
C5    C6    A    
O13   S3    S    
C23   S3    S    
C18   C19   A    
C11   H12   S    
C32   O5    S    
C6    H25   S    
C8    C9    A    
C8    C14   A    
C35   H24   S    
C2    C25   S    
C9    C10   A    
O6    S2    D    
C32   H15   S    
C2    C34   A    
C16   O17   A    
C33   H19   S    
C13   C14   A    
H8    O3    S    
C31   H9    S    
C32   H14   S    
N2    Zn1   S    
C15   H29   S    
N1    Zn2   S    
C25   O19   A    
O10   S3    D    
C22   N1    A    
C39   C40   D    
C12   C26   A    
O7    S2    D    
C29   C30   A    
C3    C9    A    
C15   C21   A    
C36   O9    S    
C23   C34   A    
C29   C39   S    
C17   C18   A    
C35   H21   S    
O21   S1    D    
O19   Zn1   S    
O8    S2    S    
C22   H28   S    
C39   H6    S    
C14   C16   S    
C31   H10   S    
C32   H13   S    
C19   S2    S    
C24   N2    A    
C13   H27   S    
C2    C36   A    
C15   C17   A    
C28   C29   A    
C25   O20   A    
C33   H17   S    
C12   C30   A    
C1    C10   S    
C31   H11   S    
C3    C5    A    
C4    C26   S    
H20   O13   S    
C6    C7    A    
C4    O16   A    
C3    H23   S    
C23   C38   A    
H16   O8    S    
C12   O14   S    
C1    O1    A    
C5    O4    S    
O12   Zn2   S    
C7    H26   S    
C38   C40   S    
C11   C13   A    
C31   O4    S    
C33   O9    S    
C18   O5    S    
O11   S3    D    
C35   O14   S    
C35   H22   S    
C22   C24   A    
C37   H1    S    
C10   C11   A    
C40   H4    S    
C20   C21   A    
O17   Zn1   S    
C27   C28   A    
C24   H3    S    
C20   N2    A    
C27   S1    S    
C17   H30   S    
O18   Zn2   S    
O16   Zn2   S    
O3    S1    S    
O15   Zn1   S    
