data_mof_unit_41818.cif
_audit_creation_date              2012-12-10T17:47:03-0500
_audit_creation_method            fapswitch 2.2
_symmetry_space_group_name_H-M    P1
_symmetry_Int_Tables_number       1
_space_group_crystal_system       triclinic
_cell_length_a                    10.007762
_cell_length_b                    10.590735
_cell_length_c                    13.563619
_cell_angle_alpha                 90.251681
_cell_angle_beta                  82.03527
_cell_angle_gamma                 91.405888
_cell_volume                      1423.30489754

loop_
_atom_site_label
_atom_site_type_symbol
_atom_type_description
_atom_site_fract_x
_atom_site_fract_y
_atom_site_fract_z
_atom_type_partial_charge
C1    C     C_R   0.503835 0.738291 0.482909 0.977564
C2    C     C_R   0.629127 0.938941 0.422540 0.390512
C3    C     C_R   0.624150 0.070462 0.417436 0.382552
C4    C     C_R   0.474850 0.500487 0.685550 0.953903
C5    C     C_R   0.501024 0.130001 0.447591 -0.268192
C6    C     C_R   0.853818 0.577745 0.673759 0.278305
C7    C     C_R   0.903441 0.557285 0.764505 0.273560
C8    C     C_R   0.013012 0.477389 0.766567 0.269104
C9    C     C_R   0.088068 0.439846 0.676347 0.302779
C10   C     C_R   0.052497 0.485407 0.586574 -0.029928
C11   C     C_R   0.915607 0.517172 0.586798 -0.009914
C12   C     C_1   0.455153 0.504073 0.789879 -0.057928
C13   C     C_R   0.947289 0.501218 0.413085 0.229409
C14   C     C_R   0.089031 0.510366 0.414575 -0.057345
C15   C     C_R   0.500853 0.261129 0.484158 0.947484
C16   C     C_R   0.524976 0.497427 0.314480 0.881878
C17   C     C_1   0.542774 0.480442 0.210990 -0.081919
C18   C     C_2   0.540615 0.449979 0.021207 0.304569
C19   C     C_2   0.444227 0.510234 0.982203 0.298922
C20   C     C_1   0.444776 0.507345 0.878077 0.136669
C21   C     C_1   0.547910 0.464284 0.123911 0.100970
C22   C     C_3   0.241416 0.219810 0.362963 -0.692462
C23   C     C_R   0.268308 0.861522 0.413376 0.389369
C24   C     C_3   0.902217 0.499430 0.312308 -0.645769
C25   C     C_R   0.142299 0.912712 0.442188 -0.232468
C26   C     C_R   0.135827 0.041204 0.462130 0.442832
C27   C     C_R   0.252810 0.115317 0.435698 0.155302
C28   C     C_R   0.379517 0.060354 0.441217 -0.044190
C29   C     C_R   0.385265 0.928351 0.434467 -0.069317
C30   C     C_R   0.507569 0.869077 0.445988 -0.247687
Cl1   Cl    Cl    0.322223 0.603170 0.053709 -0.447290
Cl2   Cl    Cl    0.764390 0.157962 0.357635 -0.482664
Cl3   Cl    Cl    0.759852 0.714635 0.664119 -0.444175
Cl4   Cl    Cl    0.829557 0.632043 0.874604 -0.377105
Cl5   Cl    Cl    0.060170 0.429574 0.881063 -0.358697
Cl6   Cl    Cl    0.181733 0.300941 0.675444 -0.447771
Cl7   Cl    Cl    0.658818 0.352309 0.950747 -0.457551
Cl8   Cl    Cl    0.785129 0.864215 0.391167 -0.487940
Cl9   Cl    Cl    0.280859 0.744517 0.320873 -0.533836
Cl10  Cl    Cl    0.980977 0.110782 0.502720 -0.443600
H1    H     H_    0.156507 0.513853 0.345280 0.204191
H2    H     H_    0.051285 0.856644 0.439152 0.242829
H3    H     H_    0.184230 0.295703 0.402419 0.258028
H4    H     H_    0.341328 0.255640 0.326834 0.215384
H5    H     H_    0.185397 0.185203 0.302535 0.250702
H6    H     H_    0.847026 0.586746 0.301732 0.272054
H7    H     H_    0.988666 0.498354 0.251343 0.232121
H8    H     H_    0.842296 0.412087 0.303067 0.276602
N1    N     N_R   0.857120 0.501200 0.500900 -0.059513
N2    N     N_R   0.142720 0.501280 0.500940 -0.105152
O1    O     O_R   0.385310 0.683220 0.500000 -0.600853
O2    O     O_R   0.614640 0.683250 0.500010 -0.529440
O3    O     O_R   0.368830 0.499960 0.640340 -0.585813
O4    O     O_R   0.598160 0.499980 0.640350 -0.583261
O5    O     O_R   0.385360 0.316750 0.499990 -0.580052
O6    O     O_R   0.614690 0.316780 0.500000 -0.554855
O7    O     O_R   0.401840 0.500020 0.359650 -0.604326
O8    O     O_R   0.631170 0.500040 0.359660 -0.640346
Zn1   Zn    Zn3+2 0.346870 0.499980 0.499990 1.021118
Zn2   Zn    Zn3+2 0.653130 0.500020 0.500010 1.072649

loop_
_geom_bond_atom_site_label_1
_geom_bond_atom_site_label_2
_ccdc_geom_bond_type
C25   H2    S    
C9    Cl6   S    
C17   C21   T    
C6    C7    A    
C11   N1    A    
O5    Zn1   S    
C4    O3    A    
C4    C12   S    
C18   C21   S    
C9    C10   A    
C2    Cl8   S    
C19   C20   S    
C6    Cl3   S    
C2    C30   A    
C19   Cl1   S    
C15   O6    A    
C12   C20   T    
C2    C3    A    
O3    Zn1   S    
C5    C28   A    
C24   H6    S    
C7    C8    A    
C16   O8    A    
C13   C14   A    
C1    O1    A    
C26   Cl10  S    
C26   C27   A    
C29   C30   A    
N1    Zn2   S    
C14   H1    S    
C13   N1    A    
N2    Zn1   S    
C23   C29   A    
C28   C29   A    
C7    Cl4   S    
C18   Cl7   S    
C16   O7    A    
C23   C25   A    
C22   C27   S    
C1    O2    A    
C23   Cl9   S    
C5    C15   S    
O7    Zn1   S    
C10   C11   A    
C14   N2    A    
O8    Zn2   S    
C24   H8    S    
C16   C17   S    
O6    Zn2   S    
C6    C11   A    
C22   H5    S    
O1    Zn1   S    
C18   C19   D    
C27   C28   A    
C1    C30   S    
O4    Zn2   S    
O2    Zn2   S    
C3    Cl2   S    
C4    O4    A    
C25   C26   A    
C24   H7    S    
C22   H4    S    
C22   H3    S    
C13   C24   S    
C15   O5    A    
C8    C9    A    
C3    C5    A    
C8    Cl5   S    
C10   N2    A    
