data_mof_unit_14399.cif
_audit_creation_date              2012-10-26T18:47:59-0400
_audit_creation_method            fapswitch 2.2
_symmetry_space_group_name_H-M    P1
_symmetry_Int_Tables_number       1
_space_group_crystal_system       triclinic
_cell_length_a                    15.852333
_cell_length_b                    8.748843
_cell_length_c                    7.460386
_cell_angle_alpha                 102.851181
_cell_angle_beta                  94.348708
_cell_angle_gamma                 92.590123
_cell_volume                      1003.80455281

loop_
_atom_site_label
_atom_site_type_symbol
_atom_type_description
_atom_site_fract_x
_atom_site_fract_y
_atom_site_fract_z
_atom_type_partial_charge
C1    C     C_R   0.500065 0.200544 0.453963 0.556485
C2    C     C_2   0.490123 0.965497 0.568634 0.234371
C3    C     C_R   0.340350 0.499773 0.502117 0.534692
C4    C     C_R   0.499833 0.799507 0.546100 0.566588
C5    C     C_R   0.659650 0.500387 0.497931 0.541380
C6    C     C_3   0.044778 0.340153 0.520083 -0.238045
C7    C     C_3   0.045266 0.537208 0.322329 -0.259259
C8    C     C_3   0.947405 0.536948 0.318036 -0.209728
C9    C     C_1   0.749156 0.500946 0.494136 0.000016
C10   C     C_3   0.083179 0.502934 0.506243 0.048806
C11   C     C_3   0.947218 0.342135 0.520722 -0.272387
C12   C     C_3   0.917203 0.504062 0.499726 0.081466
C13   C     C_3   0.958514 0.632085 0.666677 0.142553
C14   C     C_3   0.057252 0.633785 0.667732 0.148818
C15   C     C_1   0.824787 0.502085 0.494871 -0.016306
C16   C     C_1   0.175381 0.501722 0.507500 -0.015734
C17   C     C_1   0.250899 0.500799 0.506479 0.004144
C18   C     C_2   0.509736 0.034684 0.431587 0.240730
Cu1   Cu    Cu3+1 0.509300 0.517380 0.684380 1.038637
Cu2   Cu    Cu3+1 0.490700 0.482620 0.315620 1.082962
H1    H     H_    0.916841 0.247390 0.405766 0.138463
H2    H     H_    0.560685 0.023099 0.197969 0.336066
H3    H     H_    0.439494 0.977277 0.802626 0.341464
H4    H     H_    0.432590 0.380900 0.949458 0.225476
H5    H     H_    0.612873 0.693973 0.992285 0.343276
H6    H     H_    0.060780 0.248458 0.400364 0.131714
H7    H     H_    0.069276 0.527251 0.872720 0.311723
H8    H     H_    0.937996 0.603138 0.795857 0.119403
H9    H     H_    0.072251 0.306240 0.646127 0.129910
H10   H     H_    0.071395 0.653202 0.306273 0.138969
H11   H     H_    0.063114 0.446984 0.203165 0.125005
H12   H     H_    0.918498 0.445426 0.197929 0.107138
H13   H     H_    0.926423 0.652152 0.298069 0.173556
H14   H     H_    0.081257 0.748963 0.644905 0.182725
H15   H     H_    0.927762 0.316599 0.651886 0.112885
H16   H     H_    0.946495 0.851626 0.778356 0.325560
N1    N     N_2   0.476670 0.456430 0.038530 -0.159319
N2    N     N_2   0.523330 0.543570 0.961470 0.026041
O1    O     O_R   0.506050 0.286130 0.619770 -0.473564
O2    O     O_3   0.543268 0.950796 0.275463 -0.687764
O3    O     O_3   0.456677 0.049568 0.724922 -0.728768
O4    O     O_3   0.582758 0.639373 0.073895 -0.508013
O5    O     O_3   0.095642 0.621180 0.840071 -0.725413
O6    O     O_R   0.490330 0.256780 0.308370 -0.530285
O7    O     O_R   0.387300 0.514690 0.655770 -0.514735
O8    O     O_R   0.371580 0.485340 0.344370 -0.512009
O9    O     O_R   0.509670 0.743220 0.691630 -0.536080
O10   O     O_R   0.493950 0.713870 0.380230 -0.407054
O11   O     O_R   0.628420 0.514660 0.655630 -0.522487
O12   O     O_R   0.612700 0.485310 0.344230 -0.447942
O13   O     O_3   0.930572 0.780343 0.655783 -0.726130

loop_
_geom_bond_atom_site_label_1
_geom_bond_atom_site_label_2
_ccdc_geom_bond_type
H5    O4    S    
C6    C10   S    
C7    C10   S    
C2    C4    S    
C11   C12   S    
Cu1   O7    S    
C13   H8    S    
C5    C9    S    
N1    N2    D    
Cu1   N2    S    
C2    C18   D    
Cu1   O11   S    
C1    O6    A    
Cu1   Cu2   S    
H3    O3    S    
C12   C15   S    
C8    C12   S    
H2    O2    S    
C11   H15   S    
H4    N1    S    
C9    C15   T    
C7    C8    S    
C7    H10   S    
C10   C16   S    
C13   C14   S    
Cu2   N1    S    
C3    O8    A    
C5    O11   A    
C1    C18   S    
C6    H6    S    
H16   O13   S    
Cu1   O1    S    
Cu2   O6    S    
C3    O7    A    
N2    O4    S    
C8    H13   S    
C10   C14   S    
Cu1   O9    S    
C5    O12   A    
C14   H14   S    
C1    O1    A    
C2    O3    S    
C8    H12   S    
H7    O5    S    
C6    H9    S    
C7    H11   S    
C12   C13   S    
C4    O10   A    
C6    C11   S    
C18   O2    S    
C14   O5    S    
Cu2   O12   S    
Cu2   O10   S    
C13   O13   S    
C4    O9    A    
C11   H1    S    
C3    C17   S    
C16   C17   T    
Cu2   O8    S    
