data_mof_unit_55728.cif
_audit_creation_date              2012-12-11T17:45:22-0500
_audit_creation_method            fapswitch 2.2
_symmetry_space_group_name_H-M    P1
_symmetry_Int_Tables_number       1
_space_group_crystal_system       triclinic
_cell_length_a                    15.007469
_cell_length_b                    15.000096
_cell_length_c                    15.153263
_cell_angle_alpha                 110.302365
_cell_angle_beta                  109.303933
_cell_angle_gamma                 108.675082
_cell_volume                      2629.8185764

loop_
_atom_site_label
_atom_site_type_symbol
_atom_type_description
_atom_site_fract_x
_atom_site_fract_y
_atom_site_fract_z
_atom_type_partial_charge
C1    C     C_R   0.965591 0.239399 0.053392 0.425422
C2    C     C_R   0.321098 0.771675 0.323532 0.051964
C3    C     C_R   0.300587 0.500111 0.932676 0.099983
C4    C     C_R   0.944282 0.501793 0.304845 0.116335
C5    C     C_R   0.686610 0.408381 0.932852 -0.135521
C6    C     C_R   0.019786 0.591992 0.782201 -0.245464
C7    C     C_R   0.790010 0.198540 0.699030 -0.042729
C8    C     C_R   0.998383 0.801781 0.093592 -0.139357
C9    C     C_R   0.089424 0.803257 0.003886 -0.096172
C10   C     C_R   0.702662 0.197650 0.792515 -0.105989
C11   C     C_R   0.776649 0.591401 0.023599 -0.136244
C12   C     C_R   0.313818 0.751240 0.223655 -0.100955
C13   C     C_R   0.942698 0.411267 0.686058 0.797618
C14   C     C_R   0.674831 0.499712 0.947338 0.109590
C15   C     C_R   0.956649 0.504399 0.678696 -0.031777
C16   C     C_R   0.698382 0.136040 0.697829 0.027507
C17   C     C_R   0.055880 0.865482 0.063304 0.085765
C18   C     C_R   0.631547 0.252580 0.090370 -0.181224
C19   C     C_R   0.695356 0.340389 0.196814 -0.257921
C20   C     C_R   0.752242 0.326837 0.281273 -0.022608
C21   C     C_R   0.735617 0.221448 0.258579 0.805088
C22   C     C_R   0.666975 0.132961 0.152466 -0.165718
C23   C     C_R   0.209742 0.409251 0.904205 -0.166166
C24   C     C_R   0.617025 0.149096 0.068167 -0.007391
C25   C     C_R   0.846913 0.430805 0.483218 0.836724
C26   C     C_R   0.938813 0.514602 0.583468 -0.138987
C27   C     C_R   0.019804 0.601291 0.589353 0.149223
C28   C     C_R   0.010808 0.597704 0.495349 -0.213222
C29   C     C_R   0.927599 0.507760 0.395093 -0.029595
C30   C     C_R   0.841789 0.424153 0.387251 -0.144671
C31   C     C_R   0.132027 0.792259 0.750199 0.394322
C32   C     C_R   0.229784 0.874930 0.844680 -0.518789
C33   C     C_R   0.318667 0.858587 0.877608 0.619851
C34   C     C_R   0.996814 0.591492 0.298940 -0.171201
C35   C     C_R   0.311525 0.760458 0.814626 0.654097
C36   C     C_R   0.213757 0.676408 0.720951 -0.467488
C37   C     C_R   0.122828 0.691019 0.689100 -0.066429
C38   C     C_R   0.143623 0.918747 0.424767 -0.078075
C39   C     C_R   0.245763 0.939087 0.437405 -0.054548
C40   C     C_R   0.313240 0.923353 0.513178 0.063901
C41   C     C_R   0.284105 0.903666 0.586340 -0.195965
C42   C     C_R   0.185857 0.893488 0.579071 0.011958
C43   C     C_R   0.114445 0.898718 0.497030 -0.067068
C44   C     C_R   0.507876 0.009460 0.605729 -0.194868
C45   C     C_R   0.299100 0.590791 0.995539 -0.007337
C46   C     C_R   0.607560 0.028178 0.612457 0.073041
C47   C     C_R   0.613268 0.951040 0.531746 0.023373
C48   C     C_R   0.517474 0.862529 0.440312 -0.193191
C49   C     C_R   0.417341 0.850797 0.429086 0.050129
C50   C     C_R   0.412853 0.924176 0.515086 0.036604
C51   C     C_R   0.749674 0.004120 0.475441 -0.002517
C52   C     C_R   0.857946 0.045952 0.501017 0.005417
C53   C     C_R   0.931077 0.038601 0.580268 -0.167077
C54   C     C_R   0.896363 0.992299 0.636480 -0.060837
C55   C     C_R   0.790153 0.957897 0.617036 -0.116464
C56   C     C_R   0.915408 0.410320 0.213331 -0.088613
C57   C     C_R   0.716983 0.965467 0.537611 0.023743
C58   C     C_3   0.471029 0.397096 0.829114 -0.500207
C59   C     C_3   0.367568 0.393713 0.829971 0.635181
C60   C     C_3   0.567181 0.501939 0.035130 -0.518899
C61   C     C_3   0.570867 0.601027 0.930593 -0.413412
C62   C     C_3   0.572767 0.499603 0.934073 0.172678
C63   C     C_3   0.397470 0.500698 0.928070 -0.117789
C64   C     C_3   0.469128 0.510820 0.035589 0.613089
C65   C     C_3   0.463609 0.597761 0.919304 -0.217210
C66   C     C_R   0.264359 0.140915 0.869383 0.826631
C67   C     C_R   0.217786 0.731951 0.307816 -0.136483
C68   C     C_R   0.192173 0.113250 0.906589 -0.374331
C69   C     C_R   0.227972 0.166160 0.017971 0.013609
C70   C     C_R   0.336402 0.246099 0.091901 -0.083752
C71   C     C_R   0.409021 0.270971 0.054738 -0.192310
C72   C     C_R   0.373288 0.217792 0.943611 -0.324539
C73   C     C_R   0.156217 0.032453 0.065519 -0.184531
C74   C     C_R   0.087232 0.980742 0.096459 0.030096
C75   C     C_R   0.046403 0.040188 0.150556 0.116573
C76   C     C_R   0.068025 0.141565 0.161498 -0.087649
C77   C     C_R   0.100757 0.169034 0.094540 0.014998
C78   C     C_R   0.070138 0.255346 0.976231 -0.189260
C79   C     C_R   0.159102 0.122952 0.058565 0.090152
C80   C     C_R   0.856739 0.934253 0.103790 -0.200050
C81   C     C_R   0.780342 0.893585 0.132555 -0.294309
C82   C     C_R   0.814585 0.906162 0.235782 0.805801
C83   C     C_R   0.924861 0.969687 0.313652 -0.451206
C84   C     C_R   0.000383 0.022022 0.289184 0.435732
C85   C     C_R   0.967472 0.996105 0.181468 -0.047879
C86   C     C_R   0.050666 0.222468 0.046245 -0.023653
H1    H     H_    0.038179 0.674603 0.807796 0.191420
H2    H     H_    0.819330 0.174791 0.644757 0.171399
H3    H     H_    0.976347 0.827286 0.154787 0.091855
H4    H     H_    0.148151 0.830602 0.979907 0.107885
H5    H     H_    0.653393 0.169598 0.825729 0.107026
H6    H     H_    0.796706 0.675958 0.059264 0.107315
H7    H     H_    0.568898 0.082018 0.985251 0.191454
H8    H     H_    0.596136 0.265592 0.024664 0.129054
H9    H     H_    0.707963 0.420716 0.211937 0.165430
H10   H     H_    0.379404 0.771521 0.206173 0.133408
H11   H     H_    0.656456 0.052711 0.134767 0.190985
H12   H     H_    0.077308 0.661092 0.501623 0.138614
H13   H     H_    0.236760 0.951421 0.893677 0.221032
H14   H     H_    0.208578 0.599969 0.673294 0.228439
H15   H     H_    0.035980 0.885298 0.488318 0.136395
H16   H     H_    0.181020 0.324920 0.848498 0.128005
H17   H     H_    0.085934 0.914768 0.356690 0.128340
H18   H     H_    0.267452 0.955680 0.381132 0.135491
H19   H     H_    0.336287 0.894070 0.647314 0.134720
H20   H     H_    0.163856 0.879006 0.635297 0.177798
H21   H     H_    0.501829 0.068153 0.666463 0.133567
H22   H     H_    0.521080 0.805568 0.375652 0.173344
H23   H     H_    0.694726 0.012965 0.415849 0.165562
H24   H     H_    0.885483 0.087291 0.461619 0.191449
H25   H     H_    0.014780 0.070043 0.599105 0.185508
H26   H     H_    0.952526 0.986573 0.697699 0.169050
H27   H     H_    0.017492 0.674531 0.349403 0.111121
H28   H     H_    0.765948 0.928837 0.665985 0.145232
H29   H     H_    0.469111 0.320187 0.820905 0.139867
H30   H     H_    0.471772 0.399776 0.756872 0.235941
H31   H     H_    0.326121 0.322272 0.836135 0.030146
H32   H     H_    0.562738 0.426946 0.035710 0.114259
H33   H     H_    0.421506 0.445423 0.045883 0.027573
H34   H     H_    0.638377 0.675345 0.007082 0.187322
H35   H     H_    0.581293 0.605352 0.862569 0.187644
H36   H     H_    0.415480 0.587494 0.839367 0.250351
H37   H     H_    0.353437 0.675227 0.025934 0.121578
H38   H     H_    0.483163 0.677246 0.983233 0.218608
H39   H     H_    0.642063 0.571953 0.111133 0.237089
H40   H     H_    0.429417 0.236458 0.914568 0.129000
H41   H     H_    0.109193 0.049471 0.849683 0.197512
H42   H     H_    0.365547 0.285396 0.178303 0.145522
H43   H     H_    0.492758 0.331994 0.112641 0.161300
H44   H     H_    0.202302 0.999071 0.038671 0.141973
H45   H     H_    0.040586 0.188586 0.206587 0.189625
H46   H     H_    0.866561 0.327083 0.188375 0.170436
H47   H     H_    0.829806 0.919484 0.021869 0.203598
H48   H     H_    0.694922 0.851532 0.074397 0.180506
H49   H     H_    0.952366 0.979264 0.393320 0.177278
H50   H     H_    0.193922 0.727056 0.366286 0.125208
H51   H     H_    0.128827 0.255210 0.951132 0.140252
H52   H     H_    0.624380 0.323837 0.885283 0.095171
N1    N     N_R   0.947080 0.293830 0.002870 -0.072676
N2    N     N_R   0.054040 0.556820 0.847890 -0.086516
N3    N     N_R   0.848290 0.293830 0.791110 -0.060420
N4    N     N_R   0.995680 0.706170 0.053910 -0.041615
N5    N     N_R   0.052920 0.706170 0.997130 -0.044276
N6    N     N_R   0.791050 0.293830 0.847890 -0.045908
N7    N     N_R   0.846330 0.556820 0.053910 -0.044152
N8    N     N_R   0.997640 0.443180 0.791110 -0.125130
N9    N     N_R   0.208950 0.706170 0.152110 -0.048088
N10   N     N_R   0.153670 0.443180 0.946090 -0.048357
N11   N     N_R   0.002360 0.556820 0.208890 -0.046413
N12   N     N_R   0.210070 0.556820 0.002870 -0.057859
N13   N     N_R   0.945960 0.443180 0.152110 -0.050956
N14   N     N_R   0.151710 0.706170 0.208890 -0.048707
N15   N     N_R   0.004320 0.293830 0.946090 -0.064095
N16   N     N_R   0.789930 0.443180 0.997130 -0.041968
Ni1   Ni    Ni4+2 0.869690 0.369690 0.000000 0.243333
Ni2   Ni    Ni4+2 0.130310 0.630310 0.000000 0.219232
Ni3   Ni    Ni4+2 0.000970 0.369690 0.869780 0.244782
Ni4   Ni    Ni4+2 0.999030 0.630310 0.130220 0.205344
Cl1   Cl    Cl    0.861284 0.154785 0.063443 -0.756649
F1    F     F_    0.897569 0.308903 0.602828 -0.672430
F2    F     F_    0.791951 0.205559 0.336935 -0.651524
F3    F     F_    0.764460 0.353830 0.478972 -0.645103
Cl2   Cl    Cl    0.020127 0.814314 0.713862 -0.706890
F4    F     F_    0.411427 0.937605 0.971583 -0.693187
F5    F     F_    0.399812 0.747336 0.844212 -0.702455
F6    F     F_    0.297421 0.379485 0.733151 -0.640049
F7    F     F_    0.504131 0.609867 0.123885 -0.662475
F8    F     F_    0.229262 0.092032 0.761685 -0.716456
F9    F     F_    0.740811 0.858472 0.260711 -0.680666
Cl3   Cl    Cl    0.134528 0.120474 0.394071 -0.602873

loop_
_geom_bond_atom_site_label_1
_geom_bond_atom_site_label_2
_ccdc_geom_bond_type
C58   C62   S    
C66   C68   A    
C63   C65   S    
C40   C41   A    
C38   H17   S    
C41   C42   A    
C3    C23   A    
C35   C36   A    
C2    C12   A    
C81   C82   A    
C9    N5    A    
C39   H18   S    
N8    Ni3   S    
C20   C30   S    
C53   C54   A    
C45   H37   S    
C34   H27   S    
C5    H52   S    
C26   C27   A    
C29   C30   A    
C64   H33   S    
C41   H19   S    
C83   C84   A    
C18   C24   A    
C12   N9    A    
C61   H35   S    
C28   C29   A    
N10   N12   A    
C18   C19   A    
C64   F7    S    
C84   Cl3   S    
N11   N13   A    
C31   Cl2   S    
C38   C39   A    
C33   C35   A    
C11   C14   A    
C23   H16   S    
C47   C57   S    
N1    N15   A    
C28   H12   S    
C5    N16   A    
C14   C62   S    
C1    C86   A    
C1    Cl1   S    
C60   C62   S    
C45   N12   A    
C73   C74   A    
C65   H38   S    
C35   F5    S    
C6    C15   A    
C73   H44   S    
C11   H6    S    
C75   C85   S    
C66   C72   A    
C7    H2    S    
C68   C69   A    
C36   C37   A    
N15   Ni3   S    
C60   H32   S    
C70   C71   A    
C51   C57   A    
C52   H24   S    
C5    C14   A    
N11   Ni4   S    
C13   F1    S    
C83   H49   S    
C4    C29   S    
C1    N1    A    
C78   C86   A    
C82   F9    S    
C51   H23   S    
C22   H11   S    
N12   Ni2   S    
C21   C22   A    
C4    C56   A    
C61   H34   S    
C58   H30   S    
C9    C17   A    
C69   C70   A    
C13   N8    A    
N4    Ni4   S    
C34   N11   A    
C44   C46   A    
C4    C34   A    
C77   C79   A    
N14   Ni4   S    
C21   F2    S    
C74   C75   A    
C51   C52   A    
C81   H48   S    
C33   F4    S    
C76   C77   A    
C2    C67   A    
N3    N6    A    
C16   C46   S    
C39   C40   A    
C11   N7    A    
C15   C26   S    
C58   C59   S    
C3    C45   A    
C80   H47   S    
C31   C37   A    
C72   H40   S    
C75   C76   A    
C43   H15   S    
C80   C85   A    
C2    C49   S    
C71   H43   S    
C47   C48   A    
N1    Ni1   S    
C25   F3    S    
C70   H42   S    
C73   C79   A    
C54   H26   S    
C36   H14   S    
C10   N6    A    
C65   H36   S    
C84   C85   A    
C56   N13   A    
N9    Ni2   S    
C42   H20   S    
C68   H41   S    
N16   Ni1   S    
C56   H46   S    
C59   F6    S    
N2    Ni2   S    
N7    N16   A    
N3    Ni3   S    
C48   C49   A    
C10   H5    S    
C49   C50   A    
N13   Ni1   S    
C13   C15   A    
C48   H22   S    
C17   C74   S    
C18   H8    S    
C22   C24   A    
C69   C79   S    
C42   C43   A    
N2    N8    A    
C78   H51   S    
C7    N3    A    
C19   H9    S    
C52   C53   A    
C44   H21   S    
C44   C50   A    
C25   C30   A    
C54   C55   A    
C60   H39   S    
C67   N14   A    
C31   C32   A    
C7    C16   A    
C80   C81   A    
C9    H4    S    
C77   C86   S    
C78   N15   A    
C55   H28   S    
C3    C63   S    
C23   N10   A    
C19   C20   A    
C59   C63   S    
C8    C17   A    
C32   H13   S    
C66   F8    S    
C60   C64   S    
C32   C33   A    
N6    Ni1   S    
C55   C57   A    
C67   H50   S    
C25   C26   A    
C38   C43   A    
C10   C16   A    
C24   H7    S    
N7    Ni4   S    
C53   H25   S    
N5    Ni2   S    
C58   H29   S    
C27   C37   S    
C40   C50   S    
C76   H45   S    
N9    N14   A    
N10   Ni3   S    
C6    N2    A    
C61   C62   S    
C46   C47   A    
C6    H1    S    
C63   C64   S    
C61   C65   S    
C71   C72   A    
C20   C21   A    
C59   H31   S    
C82   C83   A    
C27   C28   A    
N4    N5    A    
C12   H10   S    
C8    N4    A    
C8    H3    S    
