data_mof_unit_55371.cif
_audit_creation_date              2012-12-11T20:51:06-0500
_audit_creation_method            fapswitch 2.2
_symmetry_space_group_name_H-M    P1
_symmetry_Int_Tables_number       1
_space_group_crystal_system       triclinic
_cell_length_a                    30.346443
_cell_length_b                    34.005101
_cell_length_c                    8.752692
_cell_angle_alpha                 90.325552
_cell_angle_beta                  90.160839
_cell_angle_gamma                 89.876079
_cell_volume                      9031.99703119

loop_
_atom_site_label
_atom_site_type_symbol
_atom_type_description
_atom_site_fract_x
_atom_site_fract_y
_atom_site_fract_z
_atom_type_partial_charge
Ba1   Ba    Ba6+2 0.999930 0.472870 0.844940 1.691289
Ba2   Ba    Ba6+2 0.999930 0.527130 0.344940 1.709437
Ba3   Ba    Ba6+2 0.499930 0.972870 0.844940 1.703297
Ba4   Ba    Ba6+2 0.499930 0.027130 0.344940 1.719483
C1    C     C_3   0.982570 0.265053 0.590112 -0.037131
C2    C     C_R   0.212469 0.331891 0.528835 0.576497
C3    C     C_R   0.400193 0.085909 0.699796 -0.022082
C4    C     C_R   0.872005 0.383937 0.147844 -0.178185
C5    C     C_R   0.876928 0.618962 0.644941 -0.181488
C6    C     C_R   0.368524 0.886158 0.156333 -0.193419
C7    C     C_R   0.368528 0.114858 0.660204 -0.203076
C8    C     C_R   0.855945 0.355573 0.253271 0.160576
C9    C     C_R   0.862949 0.649479 0.747127 0.204916
C10   C     C_R   0.352305 0.858212 0.262909 0.176673
C11   C     C_R   0.355633 0.145469 0.763014 0.245447
C12   C     C_2   0.070614 0.597140 0.880653 -0.354654
C13   C     C_R   0.684723 0.182615 0.149120 0.581685
C14   C     C_2   0.069615 0.402896 0.381255 -0.302379
C15   C     C_2   0.570430 0.096960 0.877854 -0.358438
C16   C     C_2   0.567945 0.901754 0.382564 -0.282056
C17   C     C_3   0.151346 0.482533 0.155152 0.433751
C18   C     C_3   0.152262 0.515933 0.652986 0.376737
C19   C     C_3   0.650609 0.981700 0.154474 0.432136
C20   C     C_3   0.651856 0.016458 0.652108 0.377779
C21   C     C_3   0.201567 0.474981 0.149329 -0.136620
C22   C     C_3   0.203055 0.521231 0.652236 0.004353
C23   C     C_3   0.700713 0.973637 0.145282 -0.130270
C24   C     C_R   0.713800 0.835606 0.553922 0.575464
C25   C     C_3   0.702584 0.022271 0.647993 0.008759
C26   C     C_3   0.860374 0.517194 0.982550 0.235399
C27   C     C_3   0.849577 0.496834 0.447820 0.306179
C28   C     C_3   0.346915 0.999293 0.945036 0.240256
C29   C     C_3   0.347799 0.999774 0.443383 0.288782
C30   C     C_3   0.811864 0.530325 0.971808 -0.235607
C31   C     C_3   0.803919 0.477801 0.467165 -0.267470
C32   C     C_3   0.302044 0.019750 0.967604 -0.263109
C33   C     C_3   0.303561 0.978202 0.464303 -0.261401
C34   C     C_3   0.990919 0.311200 0.588886 0.462987
C35   C     C_R   0.155477 0.724888 0.957469 0.698680
C36   C     C_3   0.997364 0.685795 0.095807 0.473521
C37   C     C_3   0.486908 0.811598 0.561295 0.505178
C38   C     C_3   0.498675 0.185061 0.075595 0.444440
C39   C     C_R   0.923765 0.410928 0.325556 -0.309607
C40   C     C_R   0.923727 0.588916 0.829939 -0.318209
C41   C     C_R   0.421400 0.912511 0.331341 -0.290818
C42   C     C_R   0.421057 0.088054 0.835133 -0.256275
C43   C     C_2   0.804303 0.557976 0.841790 0.469218
C44   C     C_2   0.790550 0.455835 0.325228 0.466360
C45   C     C_2   0.285049 0.036061 0.819734 0.490415
C46   C     C_R   0.160331 0.281333 0.467922 0.654414
C47   C     C_2   0.284934 0.965968 0.312515 0.404436
C48   C     C_2   0.796631 0.549693 0.117537 0.452770
C49   C     C_2   0.802470 0.450490 0.601729 0.522131
C50   C     C_2   0.303717 0.052123 0.085237 0.503777
C51   C     C_2   0.306191 0.942389 0.564633 0.457036
C52   C     C_2   0.019646 0.242970 0.509977 0.619678
C53   C     C_2   0.037518 0.750646 0.045555 0.488303
C54   C     C_2   0.517010 0.743594 0.478811 0.517646
C55   C     C_2   0.526323 0.249140 0.946693 0.564425
C56   C     C_2   0.977439 0.249796 0.751291 0.546939
C57   C     C_R   0.656336 0.224413 0.956700 0.662088
C58   C     C_2   0.991996 0.745559 0.273381 0.604383
C59   C     C_2   0.486650 0.750283 0.736589 0.554137
C60   C     C_2   0.511563 0.250932 0.221644 0.645686
C61   C     C_2   0.822102 0.212859 0.426687 0.557741
C62   C     C_2   0.837459 0.799353 0.893812 0.563187
C63   C     C_2   0.319605 0.715280 0.435470 0.546255
C64   C     C_2   0.354145 0.302076 0.774372 0.550195
C65   C     C_2   0.128272 0.453094 0.059218 0.459344
C66   C     C_2   0.130364 0.546104 0.554254 0.500960
C67   C     C_2   0.626732 0.951753 0.062435 0.465099
C68   C     C_R   0.686223 0.790335 0.371328 0.661451
C69   C     C_2   0.629097 0.046614 0.555463 0.495579
C70   C     C_R   0.186179 0.754654 0.000248 -0.028968
C71   C     C_R   0.190692 0.252017 0.514494 -0.042012
C72   C     C_R   0.687549 0.253812 0.998160 -0.038508
C73   C     C_3   0.995879 0.732298 0.108735 -0.033550
C74   C     C_R   0.712587 0.759921 0.430677 -0.028052
C75   C     C_R   0.219631 0.745817 0.106373 -0.050299
C76   C     C_R   0.232234 0.263188 0.572775 -0.051094
C77   C     C_R   0.721329 0.244546 0.102354 -0.050442
C78   C     C_R   0.742541 0.768491 0.548434 -0.046100
C79   C     C_R   0.251835 0.700612 0.287647 -0.047321
C80   C     C_R   0.284118 0.314369 0.640235 -0.045291
C81   C     C_R   0.753641 0.198927 0.281775 -0.046547
C82   C     C_R   0.777299 0.816280 0.714177 -0.031664
C83   C     C_R   0.789363 0.224374 0.308218 -0.047796
C84   C     C_3   0.482459 0.764977 0.574226 -0.042769
C85   C     C_R   0.807485 0.787772 0.766633 -0.048336
C86   C     C_R   0.287136 0.726421 0.315595 -0.044923
C87   C     C_R   0.314208 0.286459 0.696319 -0.055387
C88   C     C_R   0.790637 0.261404 0.232444 -0.072634
C89   C     C_R   0.805981 0.748648 0.705702 -0.076127
C90   C     C_R   0.288167 0.763469 0.240033 -0.075443
C91   C     C_R   0.304378 0.245381 0.683834 -0.074233
C92   C     C_R   0.754893 0.272237 0.138044 -0.036099
C93   C     C_R   0.772161 0.739031 0.601087 -0.037006
C94   C     C_R   0.252635 0.773903 0.143911 -0.035760
C95   C     C_3   0.497048 0.232165 0.071138 -0.053495
C96   C     C_R   0.262973 0.234115 0.622900 -0.038534
C97   C     C_R   0.184342 0.792971 0.939993 -0.054272
C98   C     C_R   0.180278 0.211790 0.505335 -0.039857
C99   C     C_R   0.685994 0.292130 0.937871 -0.045933
C100  C     C_R   0.710456 0.721466 0.371354 -0.051237
C101  C     C_3   0.980202 0.335517 0.058701 0.334507
C102  C     C_3   0.983075 0.664409 0.569275 0.331814
C103  C     C_3   0.480058 0.831896 0.999145 0.354592
C104  C     C_3   0.479070 0.160917 0.560952 0.368034
C105  C     C_R   0.717445 0.320352 0.980298 -0.063119
C106  C     C_R   0.218652 0.709663 0.181394 -0.051875
C107  C     C_R   0.736850 0.691696 0.431682 -0.054614
C108  C     C_R   0.215123 0.821603 0.984521 -0.063625
C109  C     C_R   0.210386 0.183208 0.553035 -0.060087
C110  C     C_R   0.752524 0.310692 0.079280 -0.025938
C111  C     C_R   0.768294 0.700126 0.545629 -0.028532
C112  C     C_R   0.249893 0.812367 0.085463 -0.022659
C113  C     C_R   0.251956 0.193811 0.612004 -0.031472
C114  C     C_R   0.784661 0.338735 0.124223 0.611208
C115  C     C_R   0.796080 0.670481 0.604136 0.606125
C116  C     C_R   0.281372 0.840800 0.132593 0.603230
C117  C     C_R   0.243151 0.303340 0.579660 -0.048956
C118  C     C_R   0.282510 0.164896 0.660532 0.609971
C119  C     C_R   0.826567 0.287829 0.244062 0.549026
C120  C     C_R   0.838101 0.719256 0.738762 0.603090
C121  C     C_R   0.323658 0.790317 0.253491 0.549815
C122  C     C_R   0.334703 0.215191 0.725629 0.586841
C123  C     C_2   0.117525 0.650315 0.803137 0.098790
C124  C     C_2   0.121463 0.353985 0.289900 0.075744
C125  C     C_2   0.616981 0.150827 0.801218 0.092993
C126  C     C_2   0.610793 0.846521 0.306820 0.088658
C127  C     C_3   0.092069 0.616027 0.754649 -0.058968
C128  C     C_R   0.720194 0.208341 0.177065 -0.047487
C129  C     C_3   0.091400 0.385573 0.251065 -0.027701
C130  C     C_3   0.590824 0.117121 0.752275 -0.056908
C131  C     C_3   0.586815 0.880598 0.255745 -0.037243
C132  C     C_1   0.095520 0.588855 0.008778 0.055484
C133  C     C_1   0.093029 0.409719 0.514253 0.075944
C134  C     C_1   0.595673 0.088582 0.005667 0.050576
C135  C     C_1   0.594070 0.909964 0.509290 0.059136
C136  C     C_2   0.130525 0.614040 0.042140 0.132133
C137  C     C_2   0.121519 0.379755 0.559079 0.059456
C138  C     C_2   0.631002 0.113508 0.037628 0.130446
C139  C     C_R   0.744788 0.807121 0.605335 -0.044244
C140  C     C_2   0.625919 0.881718 0.548435 0.083058
C141  C     C_2   0.132303 0.653222 0.959475 0.201898
C142  C     C_2   0.138117 0.350864 0.440906 0.239360
C143  C     C_2   0.632679 0.152937 0.956700 0.198237
C144  C     C_2   0.641559 0.851832 0.428236 0.195523
C145  C     C_R   0.872197 0.356221 0.399581 0.143366
C146  C     C_R   0.877255 0.648389 0.894811 0.110955
C147  C     C_R   0.369058 0.858698 0.408676 0.144457
C148  C     C_R   0.373719 0.146759 0.905350 0.154660
C149  C     C_3   0.951213 0.300956 0.106137 -0.125711
C150  C     C_R   0.183520 0.683652 0.152550 0.596519
C151  C     C_3   0.956986 0.701596 0.611090 -0.110002
C152  C     C_3   0.441012 0.806648 0.049021 -0.139860
C153  C     C_3   0.450164 0.196547 0.591577 -0.104896
C154  C     C_R   0.911080 0.381019 0.436016 0.066132
C155  C     C_R   0.912797 0.620424 0.938268 -0.007608
C156  C     C_R   0.408160 0.883307 0.443957 0.099744
C157  C     C_R   0.410205 0.119314 0.945418 0.042767
C158  C     C_R   0.903188 0.412940 0.190351 0.010316
C159  C     C_R   0.904193 0.587496 0.692643 0.004392
C160  C     C_R   0.400803 0.914329 0.196132 -0.024976
H1    H     H_    0.218637 0.495740 0.227019 0.147667
H2    H     H_    0.845233 0.522053 0.369362 0.088052
H3    H     H_    0.540063 0.240063 0.283248 0.008683
H4    H     H_    0.840692 0.234868 0.489107 0.031547
H5    H     H_    0.849066 0.777842 0.975573 0.058964
H6    H     H_    0.337688 0.737507 0.498525 0.030093
H7    H     H_    0.367758 0.287601 0.873937 0.070011
H8    H     H_    0.815732 0.344262 0.515299 0.195212
H9    H     H_    0.853856 0.307734 0.522176 0.180812
H10   H     H_    0.878799 0.687423 0.070159 0.202082
H11   H     H_    0.840979 0.651652 0.087072 0.219213
H12   H     H_    0.313012 0.843902 0.522806 0.171482
H13   H     H_    0.340263 0.971026 0.884964 0.095791
H14   H     H_    0.354317 0.810067 0.535152 0.191791
H15   H     H_    0.381675 0.190672 0.059241 0.185845
H16   H     H_    0.344554 0.156346 0.109243 0.215167
H17   H     H_    0.198658 0.611656 0.036180 0.172340
H18   H     H_    0.174805 0.590021 0.190858 0.280906
H19   H     H_    0.145640 0.350173 0.742898 0.186962
H20   H     H_    0.167366 0.395446 0.715570 0.209377
H21   H     H_    0.699097 0.110868 0.030078 0.176246
H22   H     H_    0.675426 0.089008 0.184694 0.278242
H23   H     H_    0.642713 0.844776 0.723982 0.202046
H24   H     H_    0.340499 0.027703 0.382655 0.044867
H25   H     H_    0.655319 0.893041 0.751727 0.221706
H26   H     H_    0.115541 0.688252 0.625224 0.244244
H27   H     H_    0.155812 0.653915 0.614171 0.216063
H28   H     H_    0.117356 0.312807 0.122225 0.228009
H29   H     H_    0.153799 0.349498 0.088154 0.166617
H30   H     H_    0.614212 0.189159 0.624890 0.235932
H31   H     H_    0.654388 0.154820 0.610296 0.217261
H32   H     H_    0.562366 0.805855 0.316237 0.204205
H33   H     H_    0.593913 0.803082 0.156586 0.240728
H34   H     H_    0.915041 0.270404 0.563564 0.201969
H35   H     H_    0.881514 0.542158 0.017924 0.024002
H36   H     H_    0.942308 0.264383 0.398639 0.227543
H37   H     H_    0.928875 0.735672 0.062662 0.242531
H38   H     H_    0.960650 0.742100 0.908354 0.183126
H39   H     H_    0.414233 0.768098 0.577438 0.204846
H40   H     H_    0.435078 0.758015 0.403043 0.216788
H41   H     H_    0.431100 0.239843 0.128649 0.208270
H42   H     H_    0.439666 0.230108 0.942813 0.205252
H43   H     H_    0.000102 0.261397 0.045905 0.245835
H44   H     H_    0.955063 0.241052 0.124402 0.217288
H45   H     H_    0.007520 0.735022 0.699784 0.202170
H46   H     H_    0.873216 0.475411 0.398552 -0.007662
H47   H     H_    0.963849 0.760880 0.638698 0.231377
H48   H     H_    0.425908 0.749944 0.103286 0.220384
H49   H     H_    0.478758 0.761609 0.138370 0.212155
H50   H     H_    0.443514 0.253237 0.524158 0.238825
H51   H     H_    0.439872 0.220254 0.383045 0.191704
H52   H     H_    0.146584 0.450794 0.347271 0.103021
H53   H     H_    0.103308 0.480886 0.317007 0.167210
H54   H     H_    0.148240 0.548015 0.845098 0.122274
H55   H     H_    0.102703 0.521585 0.807668 0.123649
H56   H     H_    0.646943 0.950878 0.348429 0.100442
H57   H     H_    0.368870 0.017950 0.875369 0.046272
H58   H     H_    0.603638 0.981097 0.319271 0.167883
H59   H     H_    0.648622 0.048164 0.844781 0.125049
H60   H     H_    0.603122 0.021374 0.809597 0.124638
H61   H     H_    0.145947 0.432335 0.987106 0.009184
H62   H     H_    0.094766 0.546773 0.551637 0.006639
H63   H     H_    0.644014 0.930673 0.990728 0.001382
H64   H     H_    0.593474 0.046896 0.553888 0.010610
H65   H     H_    0.370627 0.981366 0.375181 0.031047
H66   H     H_    0.791418 0.503592 0.952412 0.119596
H67   H     H_    0.779585 0.501711 0.488359 0.138091
H68   H     H_    0.278370 0.997314 0.008614 0.126588
H69   H     H_    0.218405 0.499338 0.728445 0.105783
H70   H     H_    0.280246 0.999088 0.519214 0.140200
H71   H     H_    0.934402 0.309060 0.213679 0.140731
H72   H     H_    0.942190 0.697538 0.725202 0.121971
H73   H     H_    0.428177 0.817534 0.159862 0.129638
H74   H     H_    0.456735 0.207919 0.707789 0.136949
H75   H     H_    0.714671 0.349615 0.932935 0.137890
H76   H     H_    0.733486 0.662237 0.385381 0.141274
H77   H     H_    0.212098 0.850856 0.937242 0.135169
H78   H     H_    0.200907 0.152597 0.543489 0.144703
H79   H     H_    0.158790 0.801092 0.859423 0.131787
H80   H     H_    0.718558 0.994221 0.221676 0.142670
H81   H     H_    0.148661 0.202210 0.461234 0.152783
H82   H     H_    0.660205 0.300548 0.858678 0.149518
H83   H     H_    0.687421 0.714072 0.280908 0.136105
H84   H     H_    0.250490 0.672912 0.348189 0.156906
H85   H     H_    0.292139 0.345344 0.649910 0.159873
H86   H     H_    0.752177 0.171217 0.342221 0.157486
H87   H     H_    0.778457 0.845720 0.762152 0.157909
H88   H     H_    0.858280 0.385086 0.033803 0.158348
H89   H     H_    0.864865 0.618454 0.528662 0.162891
H90   H     H_    0.354727 0.887165 0.042347 0.145958
H91   H     H_    0.718735 0.000666 0.723576 0.106001
H92   H     H_    0.353098 0.113132 0.548729 0.121815
H93   H     H_    0.947458 0.433033 0.359883 0.081591
H94   H     H_    0.945415 0.565515 0.866963 0.080296
H95   H     H_    0.446019 0.934028 0.363331 0.080213
H96   H     H_    0.445012 0.065984 0.867448 0.076880
H97   H     H_    0.037249 0.586000 0.870194 0.068506
H98   H     H_    0.035968 0.413516 0.371800 0.070207
H99   H     H_    0.538076 0.083826 0.864713 0.069813
H100  H     H_    0.533744 0.911085 0.380141 0.068704
H101  H     H_    0.980284 0.338054 0.933200 0.060234
H102  H     H_    0.209063 0.444537 0.188206 0.062587
H103  H     H_    0.976139 0.656128 0.449058 0.072506
H104  H     H_    0.494435 0.819426 0.895108 0.106620
H105  H     H_    0.472802 0.149793 0.443617 0.092173
H106  H     H_    0.964635 0.362082 0.107872 -0.013232
H107  H     H_    0.970506 0.640880 0.644547 -0.017341
H108  H     H_    0.466532 0.861565 0.975556 0.044846
H109  H     H_    0.468258 0.138671 0.645057 -0.039882
H110  H     H_    0.924881 0.296162 0.019610 0.082844
H111  H     H_    0.929401 0.705348 0.528508 0.120198
H112  H     H_    0.414160 0.809664 0.963177 0.105192
H113  H     H_    0.211982 0.551077 0.695187 0.068973
H114  H     H_    0.415343 0.186927 0.583693 0.084534
H115  H     H_    0.033128 0.309544 0.775217 0.190624
H116  H     H_    0.036748 0.350594 0.671442 0.197896
H117  H     H_    0.036422 0.676417 0.285360 0.197369
H118  H     H_    0.039789 0.640741 0.155021 0.190647
H119  H     H_    0.542142 0.813745 0.703629 0.233450
H120  H     H_    0.533592 0.854356 0.604576 0.173525
H121  H     H_    0.536797 0.175603 0.266498 0.202247
H122  H     H_    0.542773 0.141658 0.133656 0.189663
H123  H     H_    0.250493 0.467954 0.992866 0.193321
H124  H     H_    0.708064 0.943151 0.184002 0.056814
H125  H     H_    0.223490 0.510723 0.981346 0.206286
H126  H     H_    0.253563 0.526321 0.500765 0.187543
H127  H     H_    0.224150 0.485078 0.481677 0.200080
H128  H     H_    0.748321 0.965574 0.984599 0.198532
H129  H     H_    0.722574 0.008992 0.976256 0.204882
H130  H     H_    0.751989 0.028057 0.492533 0.188573
H131  H     H_    0.723468 0.986238 0.476899 0.199938
H132  H     H_    0.817563 0.587337 0.847240 0.031506
H133  H     H_    0.810937 0.432100 0.282590 0.056169
H134  H     H_    0.305031 0.056247 0.754216 0.041685
H135  H     H_    0.711342 0.052246 0.690014 0.069052
H136  H     H_    0.304065 0.947448 0.236131 0.042797
H137  H     H_    0.767515 0.538889 0.175077 0.085240
H138  H     H_    0.778078 0.455054 0.690549 0.048004
H139  H     H_    0.278830 0.053573 0.173878 0.052287
H140  H     H_    0.276381 0.925961 0.588396 0.041708
H141  H     H_    0.002460 0.353595 0.424704 0.119870
H142  H     H_    0.018350 0.309281 0.375463 0.210047
H143  H     H_    0.025532 0.686670 0.882597 0.172698
H144  H     H_    0.001542 0.644681 0.919734 0.127320
H145  H     H_    0.490909 0.849918 0.379114 0.132853
H146  H     H_    0.870920 0.505952 0.869677 0.068282
H147  H     H_    0.489327 0.802526 0.330724 0.167057
H148  H     H_    0.526890 0.177388 0.864868 0.163750
H149  H     H_    0.498031 0.139684 0.913639 0.122629
H150  H     H_    0.014422 0.230310 0.397275 0.028805
H151  H     H_    0.038026 0.761958 0.929966 0.050001
H152  H     H_    0.507089 0.726167 0.380296 0.009974
H153  H     H_    0.519810 0.242151 0.827696 0.041695
H154  H     H_    0.951220 0.261561 0.821111 -0.008411
H155  H     H_    0.018610 0.739386 0.352541 0.051522
H156  H     H_    0.457872 0.738345 0.792774 0.046402
N1    N     N_R   0.157594 0.687376 0.021698 -0.412966
N2    N     N_3   0.037910 0.671146 0.168133 -0.473256
N3    N     N_3   0.532346 0.823839 0.596777 -0.482817
N4    N     N_3   0.539756 0.171933 0.148536 -0.506269
N5    N     N_3   0.219008 0.480483 0.996365 -0.505934
N6    N     N_3   0.221369 0.515415 0.500092 -0.452589
N7    N     N_3   0.717260 0.978854 0.990907 -0.496901
N8    N     N_3   0.720069 0.016550 0.494582 -0.450791
N9    N     N_3   0.992682 0.324323 0.429380 -0.510581
N10   N     N_3   0.997394 0.674856 0.933007 -0.520050
N11   N     N_3   0.475994 0.823112 0.404805 -0.510718
N12   N     N_R   0.170868 0.320875 0.479600 -0.422207
N13   N     N_3   0.497190 0.170179 0.917297 -0.529703
N14   N     N_3   0.849402 0.338033 0.524102 -0.446999
N15   N     N_3   0.855350 0.671149 0.010168 -0.467435
N16   N     N_3   0.347063 0.839970 0.533649 -0.461737
N17   N     N_3   0.356156 0.173088 0.018172 -0.466458
N18   N     N_3   0.171994 0.594891 0.073518 -0.482718
N19   N     N_3   0.138271 0.379112 0.712341 -0.437513
N20   N     N_3   0.672429 0.094129 0.067550 -0.483721
N21   N     N_3   0.631824 0.873607 0.707805 -0.429201
N22   N     N_3   0.139345 0.673123 0.688352 -0.453145
N23   N     N_R   0.658381 0.186770 0.019510 -0.419156
N24   N     N_3   0.141532 0.330641 0.171774 -0.464421
N25   N     N_3   0.638322 0.173877 0.686107 -0.449348
N26   N     N_3   0.594289 0.807810 0.274660 -0.400395
N27   N     N_3   0.941149 0.255420 0.511768 -0.513496
N28   N     N_3   0.958019 0.748435 0.024260 -0.460958
N29   N     N_3   0.438769 0.752423 0.519583 -0.538365
N30   N     N_3   0.451997 0.245541 0.036782 -0.463259
N31   N     N_3   0.976614 0.264947 0.131592 -0.474755
N32   N     N_3   0.984213 0.736960 0.612288 -0.444208
N33   N     N_3   0.453035 0.765165 0.060363 -0.480860
N34   N     N_R   0.680122 0.825308 0.452832 -0.416671
N35   N     N_3   0.457795 0.227432 0.481306 -0.450001
N36   N     N_3   0.137580 0.478996 0.311711 -0.458718
N37   N     N_3   0.137104 0.520599 0.807821 -0.473602
N38   N     N_3   0.637858 0.978976 0.312053 -0.457824
N39   N     N_3   0.637523 0.020740 0.807767 -0.472082
N40   N     N_R   0.821687 0.327279 0.207043 -0.417440
N41   N     N_R   0.831742 0.680038 0.696687 -0.411141
N42   N     N_R   0.318282 0.829712 0.216805 -0.416370
N43   N     N_R   0.323639 0.175564 0.715545 -0.409121
N44   N     N_3   0.033227 0.320117 0.663447 -0.463441
O1    O     O_2   0.914200 0.445720 0.903420 -0.436638
O2    O     O_3   0.028721 0.669664 0.589682 -0.613311
O3    O     O_3   0.513071 0.832028 0.111500 -0.660557
O4    O     O_3   0.524137 0.169665 0.580370 -0.611977
O5    O     O_3   0.049930 0.518940 0.045960 -0.450641
O6    O     O_3   0.049930 0.481060 0.545960 -0.517047
O7    O     O_3   0.549930 0.018940 0.045960 -0.451252
O8    O     O_3   0.549930 0.981060 0.545960 -0.515376
O9    O     O_2   0.174981 0.659003 0.248449 -0.572923
O10   O     O_2   0.222913 0.366576 0.527537 -0.600339
O11   O     O_2   0.676306 0.157835 0.244639 -0.575639
O12   O     O_2   0.914200 0.554280 0.403420 -0.453397
O13   O     O_2   0.717889 0.869735 0.595378 -0.600839
O14   O     O_2   0.126018 0.733134 0.868098 -0.574991
O15   O     O_2   0.124473 0.271638 0.416888 -0.542254
O16   O     O_2   0.626701 0.233003 0.868812 -0.551377
O17   O     O_2   0.671814 0.786459 0.242206 -0.574109
O18   O     O_2   0.779424 0.373196 0.090055 -0.574859
O19   O     O_2   0.788240 0.636130 0.573011 -0.554831
O20   O     O_2   0.275701 0.875249 0.099016 -0.590652
O21   O     O_2   0.272281 0.130183 0.654897 -0.581579
O22   O     O_2   0.862711 0.275421 0.281365 -0.642308
O23   O     O_2   0.414200 0.945720 0.903420 -0.437992
O24   O     O_2   0.872529 0.728848 0.800248 -0.637438
O25   O     O_2   0.359923 0.778342 0.291600 -0.648408
O26   O     O_2   0.371534 0.224118 0.768526 -0.656395
O27   O     O_3   0.950020 0.480960 0.143730 -0.472827
O28   O     O_3   0.950020 0.519040 0.643730 -0.470561
O29   O     O_3   0.450020 0.980960 0.143730 -0.450113
O30   O     O_3   0.450020 0.019040 0.643730 -0.457772
O31   O     O_3   0.985090 0.412220 0.642040 -0.492569
O32   O     O_3   0.985090 0.587780 0.142040 -0.493922
O33   O     O_3   0.485090 0.912220 0.642040 -0.490748
O34   O     O_2   0.414200 0.054280 0.403420 -0.449089
O35   O     O_3   0.485090 0.087780 0.142040 -0.487794
O36   O     O_2   0.907013 0.388052 0.743716 -0.404076
O37   O     O_2   0.908264 0.613838 0.248351 -0.444088
O38   O     O_2   0.408683 0.886514 0.754538 -0.417904
O39   O     O_2   0.410618 0.116367 0.259551 -0.456159
O40   O     O_3   0.862884 0.488061 0.094104 -0.656180
O41   O     O_3   0.865233 0.509101 0.591250 -0.628215
O42   O     O_3   0.367133 0.993259 0.087565 -0.649586
O43   O     O_3   0.367040 0.007004 0.586822 -0.627566
O44   O     O_3   0.955998 0.329559 0.672308 -0.634897
O45   O     O_3   0.143892 0.477550 0.601591 -0.633030
O46   O     O_3   0.959774 0.670867 0.174413 -0.624792
O47   O     O_3   0.457052 0.829480 0.665978 -0.644190
O48   O     O_3   0.462008 0.171649 0.163835 -0.632323
O49   O     O_2   0.085560 0.445380 0.786390 -0.403647
O50   O     O_2   0.085560 0.554620 0.286390 -0.448275
O51   O     O_2   0.585560 0.945380 0.786390 -0.417721
O52   O     O_2   0.585560 0.054620 0.286390 -0.446657
O53   O     O_3   0.014550 0.412170 0.047860 -0.433654
O54   O     O_3   0.014550 0.587830 0.547860 -0.500244
O55   O     O_3   0.514550 0.912170 0.047860 -0.425911
O56   O     O_3   0.143444 0.520671 0.102176 -0.596869
O57   O     O_3   0.514550 0.087830 0.547860 -0.504402
O58   O     O_2   0.077683 0.368310 0.935728 -0.475289
O59   O     O_2   0.082467 0.625734 0.433989 -0.426416
O60   O     O_2   0.573274 0.863436 0.937363 -0.471873
O61   O     O_2   0.580648 0.126640 0.430352 -0.429741
O62   O     O_2   0.781943 0.548151 0.732057 -0.543282
O63   O     O_2   0.756544 0.464172 0.257926 -0.541392
O64   O     O_2   0.248482 0.027063 0.772962 -0.528860
O65   O     O_2   0.247923 0.976268 0.274862 -0.527264
O66   O     O_2   0.816017 0.578141 0.170374 -0.585843
O67   O     O_3   0.643687 0.978022 0.601264 -0.630107
O68   O     O_2   0.828271 0.423086 0.612173 -0.577490
O69   O     O_2   0.332157 0.077338 0.080741 -0.606137
O70   O     O_2   0.340880 0.931495 0.620929 -0.560025
O71   O     O_2   0.055935 0.239811 0.569286 -0.501551
O72   O     O_2   0.071260 0.752285 0.121865 -0.565186
O73   O     O_2   0.556207 0.745728 0.510029 -0.517459
O74   O     O_2   0.555716 0.272591 0.975575 -0.521537
O75   O     O_2   0.000179 0.223093 0.801602 -0.538446
O76   O     O_2   0.960177 0.764479 0.317825 -0.544127
O77   O     O_2   0.521832 0.750271 0.804834 -0.542029
O78   O     O_3   0.642966 0.019803 0.100284 -0.598039
O79   O     O_2   0.493783 0.280883 0.268995 -0.516338
O80   O     O_2   0.827997 0.178330 0.458723 -0.555504
O81   O     O_2   0.848699 0.833556 0.911220 -0.546707
O82   O     O_2   0.325836 0.680824 0.467920 -0.561580
O83   O     O_2   0.371618 0.332292 0.730580 -0.541666
O84   O     O_2   0.088389 0.452255 0.064569 -0.550497
O85   O     O_2   0.151470 0.570847 0.485132 -0.558316
O86   O     O_2   0.586910 0.950640 0.071001 -0.552436
O87   O     O_2   0.649609 0.071888 0.487053 -0.557105
O88   O     O_3   0.023597 0.330753 0.112076 -0.615096
P1    P     P_3+3 0.909970 0.458430 0.077330 1.012384
P2    P     P_3+3 0.054925 0.623670 0.582540 0.949090
P3    P     P_3+3 0.548160 0.872207 0.087334 0.982191
P4    P     P_3+3 0.553398 0.124948 0.579643 0.944436
P5    P     P_3+3 0.942401 0.622874 0.123135 0.960537
P6    P     P_3+3 0.941233 0.378066 0.619627 1.008404
P7    P     P_3+3 0.442585 0.123293 0.125433 0.972385
P8    P     P_3+3 0.440847 0.878309 0.622294 1.004987
P9    P     P_3+3 0.909970 0.541570 0.577330 1.017274
P10   P     P_3+3 0.409970 0.958430 0.077330 1.010516
P11   P     P_3+3 0.409970 0.041570 0.577330 1.007601
P12   P     P_3+3 0.089830 0.458070 0.612460 0.995960
P13   P     P_3+3 0.089830 0.541930 0.112460 1.066829
P14   P     P_3+3 0.589830 0.958070 0.612460 0.993184
P15   P     P_3+3 0.589830 0.041930 0.112460 1.067606
P16   P     P_3+3 0.052429 0.374663 0.086986 0.995029

loop_
_geom_bond_atom_site_label_1
_geom_bond_atom_site_label_2
_ccdc_geom_bond_type
C31   C49   S    
C44   O63   D    
C58   C73   S    
O35   P7    S    
O33   P8    S    
Ba2   O50   S    
C39   C154  S    
C23   H80   S    
H12   N16   S    
C102  H103  S    
C1    N27   S    
O51   P14   D    
H42   N30   S    
O12   P9    D    
C104  H105  S    
C49   H138  S    
C14   H98   S    
C119  O22   D    
C22   N6    S    
O40   P1    S    
O2    P2    S    
Ba1   O6    S    
C82   H87   S    
H58   N38   S    
C14   C129  A    
C35   C70   A    
C24   N34   Am   
C37   C84   S    
C5    C9    A    
C1    C52   S    
C23   H124  S    
C103  O3    S    
C10   C147  D    
C45   O64   D    
H131  N8    S    
C116  O20   D    
C2    N12   Am   
H116  N44   S    
C80   C87   A    
C93   C111  A    
H126  N6    S    
H34   N27   S    
C150  O9    D    
C132  C136  A    
H143  N10   S    
C72   C99   A    
C80   H85   S    
Ba3   O7    S    
H26   N22   S    
C92   C110  A    
C41   C156  S    
C120  N41   Am   
C47   H136  S    
C52   H150  S    
C82   C139  A    
C61   C83   S    
C62   C85   S    
C76   C117  A    
C105  H75   S    
C42   H96   S    
C146  C155  S    
C13   O11   D    
C58   O76   D    
C59   H156  S    
H41   N30   S    
C104  H109  S    
C88   C119  A    
O41   P9    S    
C121  N42   Am   
C20   O67   S    
H148  N13   S    
C37   O47   S    
C133  P12   S    
C14   C133  A    
H32   N26   S    
C73   N28   S    
C74   C78   A    
H56   N38   S    
O56   P13   S    
C32   H68   S    
C100  H83   S    
C7    H92   S    
Ba4   P15   S    
C18   N37   S    
C123  C141  A    
C70   C97   A    
O36   P6    D    
H59   N39   S    
H30   N25   S    
C70   C75   A    
C27   O41   S    
Ba2   O5    S    
C134  P15   S    
Ba4   O57   S    
C11   N43   S    
C101  H106  S    
C47   O65   D    
C103  H108  S    
C48   H137  S    
C5    H89   S    
C66   H62   S    
C59   O77   D    
C54   C84   S    
C136  C141  S    
C152  H73   S    
C118  O21   D    
C61   O80   D    
C17   O56   S    
C4    C158  A    
O32   P5    S    
C25   H135  S    
H44   N31   S    
O37   P5    D    
C149  N31   S    
C25   H91   S    
C140  N21   S    
C123  C127  A    
C152  H112  S    
C40   H94   S    
C153  H74   S    
H49   N33   S    
H39   N29   S    
H20   N19   S    
C9    N41   S    
C17   C65   S    
C40   C155  S    
C24   O13   D    
C36   N2    S    
C96   C113  A    
C159  P9    S    
C16   H100  S    
C104  O4    S    
C115  O19   D    
C38   N4    S    
C58   H155  S    
C37   N11   S    
H8    N14   S    
H119  N3    S    
Ba2   P9    S    
C97   C108  A    
C61   H4    S    
C28   C32   S    
C16   C135  A    
C79   C86   A    
C60   H3    S    
C69   O87   D    
O28   P9    S    
C154  P6    S    
C64   H7    S    
C51   H140  S    
C101  H101  S    
H121  N4    S    
C88   C92   A    
C144  N34   S    
Ba4   P11   S    
O67   P14   S    
C121  O25   D    
C12   C127  A    
C68   C74   A    
O3    P3    S    
C20   C25   S    
Ba3   P10   S    
Ba4   O8    S    
C60   C95   S    
C46   O15   D    
H127  N6    S    
C156  P8    S    
C26   O40   S    
C40   C159  D    
C145  C154  S    
C148  C157  S    
C50   O69   D    
Ba2   O32   S    
Ba1   O49   S    
C102  H107  S    
O78   P15   S    
O49   P12   D    
C7    C11   A    
C29   H65   S    
C57   C72   A    
C34   N44   S    
C125  C143  A    
C26   C30   S    
C74   C100  A    
C132  P13   S    
C3    C42   D    
C10   N42   S    
H120  N3    S    
C6    C10   A    
H142  N9    S    
C129  P16   S    
C104  C153  S    
C114  O18   D    
C80   C117  A    
C63   C86   S    
C112  C116  A    
C49   O68   D    
C114  N40   Am   
C145  N14   S    
C152  N33   S    
C113  C118  A    
O45   P12   S    
H15   N17   S    
C4    C8    A    
Ba4   O35   S    
C118  N43   Am   
C79   C106  A    
C68   N34   Am   
C130  P4    S    
C158  P1    S    
C151  N32   S    
C105  C110  A    
H55   N37   S    
C57   O16   D    
Ba3   O23   S    
C12   H97   S    
H48   N33   S    
C111  C115  A    
O61   P4    D    
C18   C22   S    
C109  C113  A    
C19   N38   S    
H53   N36   S    
C54   H152  S    
O47   P8    S    
C12   C132  A    
C89   C93   A    
C108  C112  A    
O46   P5    S    
C56   H154  S    
C90   C121  A    
H45   N32   S    
C17   C21   S    
C4    H88   S    
C1    C56   S    
C36   C73   S    
C138  C143  S    
C50   H139  S    
O27   P1    S    
O30   P11   S    
H23   N21   S    
H43   N31   S    
H125  N5    S    
Ba1   O28   S    
O54   P2    S    
C107  H76   S    
C25   N8    S    
Ba3   P14   S    
H129  N7    S    
C122  N43   Am   
C91   C122  A    
C124  C142  A    
H52   N36   S    
Ba1   O5    S    
C151  H72   S    
C34   O44   S    
O59   P2    D    
C29   H24   S    
H141  N9    S    
H27   N22   S    
C85   C89   A    
C32   C50   S    
C119  N40   Am   
C87   C91   A    
C33   C51   S    
C39   C158  D    
H18   N18   S    
C109  H78   S    
C103  H104  S    
C17   N36   S    
C2    C117  A    
O43   P11   S    
C83   C88   A    
O23   P10   D    
O4    P4    S    
Ba3   Ba4   S    
H37   N28   S    
H14   N16   S    
C55   O74   D    
C38   O48   S    
O60   P3    D    
C46   N12   Am   
C59   C84   S    
C137  N19   S    
C62   H5    S    
O1    P1    D    
C126  C131  A    
C28   H57   S    
C95   N30   S    
Ba3   O30   S    
Ba4   O52   S    
H47   N32   S    
C9    C146  D    
C20   C69   S    
C21   N5    S    
C90   C94   A    
C43   O62   D    
C23   N7    S    
C102  O2    S    
H60   N39   S    
C5    C159  A    
C84   N29   S    
O38   P8    D    
O58   P16   D    
C13   N23   Am   
C157  P7    S    
C42   C157  S    
H128  N7    S    
C138  N20   S    
H147  N11   S    
C160  P10   S    
C1    C34   S    
C13   C128  A    
Ba2   O6    S    
H145  N11   S    
C98   H81   S    
C124  N24   S    
C66   O85   D    
C31   C44   S    
C11   C148  D    
C36   N10   S    
C146  N15   S    
C86   C90   A    
O29   P10   S    
C63   H6    S    
O53   P16   S    
H130  N8    S    
C60   O79   D    
C19   C67   S    
O42   P10   S    
C151  H111  S    
C134  C138  A    
C77   C92   A    
C91   C96   A    
C78   C139  A    
C21   H1    S    
C2    O10   D    
C29   C33   S    
C15   C130  A    
C52   O71   D    
C72   C77   A    
C53   C73   S    
C147  N16   S    
Ba3   O33   S    
C148  N17   S    
Ba2   O54   S    
C37   N3    S    
C24   C139  A    
C122  O26   D    
C34   N9    S    
C137  C142  S    
C54   O73   D    
C108  H77   S    
C8    N40   S    
H51   N35   S    
Ba3   O8    S    
Ba4   O34   S    
C78   C93   A    
C27   C31   S    
C28   H13   S    
C155  P5    S    
H38   N28   S    
C44   H133  S    
C62   O81   D    
C18   C66   S    
O52   P15   D    
C133  C137  A    
C57   N23   Am   
C75   C106  A    
C6    H90   S    
C8    C145  D    
C82   C85   A    
C65   H61   S    
C69   H64   S    
H40   N29   S    
C30   C48   S    
O7    P15   S    
C99   C105  A    
O39   P7    D    
H21   N20   S    
O5    P13   S    
C98   C109  A    
C46   C71   A    
Ba3   O51   S    
C35   N1    Am   
H16   N17   S    
C27   H46   S    
C31   H67   S    
C45   H134  S    
C55   H153  S    
C15   H99   S    
H33   N26   S    
H123  N5    S    
H29   N24   S    
C29   O43   S    
Ba2   O12   S    
C67   O86   D    
C142  N12   S    
C30   C43   S    
C64   O83   D    
C124  C129  A    
C18   O45   S    
C22   H113  S    
C32   C45   S    
C101  O88   S    
C55   C95   S    
C75   C94   A    
C89   C120  A    
C140  C144  S    
C36   O46   S    
C33   H70   S    
C123  N22   S    
C3    C7    A    
C41   C160  D    
H144  N10   S    
C81   C128  A    
C33   C47   S    
C51   O70   D    
C136  N18   S    
C48   O66   D    
C64   C87   S    
C149  H71   S    
Ba1   Ba2   S    
Ba2   P13   S    
O8    P14   S    
C153  H114  S    
H28   N24   S    
Ba1   P1    S    
O6    P12   S    
C79   H84   S    
C19   O78   S    
C149  H110  S    
C19   C23   S    
C71   C76   A    
Ba2   O27   S    
H11   N15   S    
C68   O17   D    
C20   N39   S    
O50   P13   D    
C26   H35   S    
O55   P3    S    
C81   H86   S    
C16   C131  A    
C76   C96   A    
O44   P6    S    
C30   H66   S    
C41   H95   S    
C143  N23   S    
C81   C83   A    
H10   N15   S    
C99   H82   S    
C126  C144  A    
H118  N2    S    
H149  N13   S    
H31   N25   S    
C28   O42   S    
C38   N13   S    
O57   P4    S    
C126  N26   S    
C77   C128  A    
C101  C149  S    
O88   P16   S    
H9    N14   S    
C106  C150  A    
C53   O72   D    
C135  C140  A    
Ba4   O7    S    
C94   C112  A    
C27   H2    S    
C63   O82   D    
O34   P11   D    
C43   H132  S    
C26   H146  S    
C110  C114  A    
C35   O14   D    
C22   H69   S    
C153  N35   S    
C39   H93   S    
C120  O24   D    
Ba1   P12   S    
C6    C160  A    
Ba1   O1    S    
Ba4   O29   S    
C67   H63   S    
H36   N27   S    
H117  N2    S    
C103  C152  S    
H17   N18   S    
O31   P6    S    
C141  N1    S    
C100  C107  A    
C107  C111  A    
H54   N37   S    
H22   N20   S    
Ba1   O31   S    
Ba3   O55   S    
C147  C156  S    
C56   O75   D    
Ba1   O53   S    
C38   C95   S    
C131  P3    S    
H50   N35   S    
O48   P7    S    
H25   N21   S    
C15   C134  A    
H115  N44   S    
C65   O84   D    
C115  N41   Am   
C135  P14   S    
C97   H79   S    
C125  C130  A    
C53   H151  S    
H19   N19   S    
C127  P2    S    
C3    P11   S    
C102  C151  S    
C125  N25   S    
C116  N42   Am   
C150  N1    Am   
C71   C98   A    
H122  N4    S    
C21   H102  S    
