data_mof_unit_65392.cif
_audit_creation_date              2012-12-10T19:01:14-0500
_audit_creation_method            fapswitch 2.2
_symmetry_space_group_name_H-M    P1
_symmetry_Int_Tables_number       1
_space_group_crystal_system       triclinic
_cell_length_a                    15.846477
_cell_length_b                    14.260022
_cell_length_c                    13.382526
_cell_angle_alpha                 90.000082
_cell_angle_beta                  90.0
_cell_angle_gamma                 90.000017
_cell_volume                      3024.06426342

loop_
_atom_site_label
_atom_site_type_symbol
_atom_type_description
_atom_site_fract_x
_atom_site_fract_y
_atom_site_fract_z
_atom_type_partial_charge
C1    C     C_R   0.500000 0.326569 0.500000 0.917162
C2    C     C_1   0.500000 0.499976 0.950478 -0.028647
C3    C     C_R   0.335940 0.499614 0.500000 0.936069
C4    C     C_R   0.664060 0.499614 0.500000 0.936069
C5    C     C_R   0.500000 0.673451 0.500000 0.943441
C6    C     C_3   0.048664 0.454761 0.595425 -0.468897
C7    C     C_3   0.048664 0.450076 0.407369 -0.469012
C8    C     C_3   0.951336 0.454761 0.595425 -0.468897
C9    C     C_3   0.951336 0.450076 0.407369 -0.469011
C10   C     C_1   0.752345 0.501027 0.499995 -0.161345
C11   C     C_1   0.247655 0.501027 0.499995 -0.161345
C12   C     C_1   0.500000 0.141349 0.500000 0.008045
C13   C     C_3   0.082012 0.503769 0.499945 0.012581
C14   C     C_3   0.917988 0.503769 0.499945 0.012582
C15   C     C_3   0.950899 0.606495 0.497039 1.031024
C16   C     C_3   0.049101 0.606495 0.497039 1.031024
C17   C     C_1   0.827137 0.502375 0.499977 0.075248
C18   C     C_1   0.172863 0.502375 0.499977 0.075248
C19   C     C_1   0.500000 0.225916 0.500000 -0.211291
C20   C     C_1   0.500000 0.042290 0.500000 0.030118
C21   C     C_1   0.500000 0.957729 0.500000 0.035886
C22   C     C_1   0.500000 0.858670 0.500000 0.025133
C23   C     C_1   0.500000 0.774104 0.500000 -0.188372
C24   C     C_1   0.500000 0.499977 0.169450 0.097244
C25   C     C_1   0.500000 0.499977 0.830550 0.096540
C26   C     C_1   0.500000 0.499976 0.049522 -0.028518
F1    F     F_    0.079038 0.655389 0.579447 -0.619062
F2    F     F_    0.079038 0.651217 0.411984 -0.618971
F3    F     F_    0.920961 0.655389 0.579447 -0.619062
F4    F     F_    0.920962 0.651217 0.411984 -0.618971
H1    H     H_    0.927951 0.381188 0.598715 0.211709
H2    H     H_    0.927952 0.376444 0.408243 0.211796
H3    H     H_    0.072049 0.381188 0.598715 0.211709
H4    H     H_    0.072048 0.376444 0.408243 0.211796
H5    H     H_    0.072226 0.483161 0.337391 0.237008
H6    H     H_    0.072227 0.491283 0.663434 0.237181
H7    H     H_    0.927774 0.483161 0.337391 0.237008
H8    H     H_    0.927773 0.491283 0.663434 0.237181
N1    N     N_1   0.500000 0.499980 0.261870 -0.060026
N2    N     N_1   0.500000 0.499980 0.738130 -0.060166
O1    O     O_R   0.500000 0.373720 0.576470 -0.599135
O2    O     O_R   0.500000 0.373720 0.423530 -0.599160
O3    O     O_R   0.377150 0.500010 0.576490 -0.604950
O4    O     O_R   0.377150 0.500010 0.423510 -0.604267
O5    O     O_R   0.622850 0.500010 0.576490 -0.604949
O6    O     O_R   0.622850 0.500010 0.423510 -0.604267
O7    O     O_R   0.500000 0.626290 0.576440 -0.592568
O8    O     O_R   0.500000 0.626290 0.423560 -0.592303
Zn1   Zn    Zn3+2 0.500000 0.500010 0.602090 0.996780
Zn2   Zn    Zn3+2 0.500000 0.500010 0.397910 0.997610

loop_
_geom_bond_atom_site_label_1
_geom_bond_atom_site_label_2
_ccdc_geom_bond_type
C16   F2    S    
C6    C8    S    
C9    C14   S    
C11   C18   T    
O4    Zn2   S    
O6    Zn2   S    
C5    C23   S    
C6    H3    S    
O5    Zn1   S    
C12   C20   S    
C16   F1    S    
O8    Zn2   S    
O7    Zn1   S    
C4    O6    A    
C21   C22   S    
C6    C13   S    
C5    O7    A    
C14   C17   S    
C3    O3    A    
C8    H8    S    
C13   C18   S    
O2    Zn2   S    
C12   C19   T    
C1    O1    A    
C5    O8    A    
C24   C26   S    
C15   F3    S    
C2    C25   S    
C4    O5    A    
C25   N2    T    
C7    H4    S    
C3    O4    A    
C1    C19   S    
C3    C11   S    
C10   C17   T    
C4    C10   S    
C15   C16   S    
C1    O2    A    
C7    C13   S    
N1    Zn2   S    
C20   C21   T    
C15   F4    S    
C2    C26   T    
C9    H7    S    
C13   C16   S    
O1    Zn1   S    
C7    C9    S    
C14   C15   S    
O3    Zn1   S    
C8    C14   S    
C9    H2    S    
C22   C23   T    
C8    H1    S    
C7    H5    S    
C24   N1    T    
N2    Zn1   S    
C6    H6    S    
