data_mof_unit_9546.cif
_audit_creation_date              2012-12-10T18:57:04-0500
_audit_creation_method            fapswitch 2.2
_symmetry_space_group_name_H-M    P1
_symmetry_Int_Tables_number       1
_space_group_crystal_system       triclinic
_cell_length_a                    10.717914
_cell_length_b                    9.94399
_cell_length_c                    10.757769
_cell_angle_alpha                 87.890124
_cell_angle_beta                  92.894648
_cell_angle_gamma                 89.701037
_cell_volume                      1144.28245499

loop_
_atom_site_label
_atom_site_type_symbol
_atom_type_description
_atom_site_fract_x
_atom_site_fract_y
_atom_site_fract_z
_atom_type_partial_charge
C1    C     C_R   0.260199 0.500162 0.499731 0.906661
C2    C     C_R   0.739747 0.499874 0.498853 0.892927
C3    C     C_R   0.588704 0.067574 0.569177 0.277967
C4    C     C_R   0.414947 0.075337 0.426549 0.260639
C5    C     C_R   0.585581 0.924531 0.572812 0.274334
C6    C     C_R   0.414026 0.932207 0.427855 0.234242
C7    C     C_R   0.506351 0.501920 0.261031 0.981163
C8    C     C_R   0.499040 0.497212 0.740116 0.926389
C9    C     C_R   0.477497 0.614849 0.057358 -0.014791
C10   C     C_R   0.475850 0.611891 0.930216 0.075675
C11   C     C_R   0.522594 0.505203 0.130441 -0.203205
C12   C     C_R   0.505164 0.493192 0.873479 -0.264589
C13   C     C_R   0.573782 0.393516 0.073936 0.235086
C14   C     C_R   0.550080 0.380234 0.946681 0.277645
C15   C     C_3   0.354865 0.687754 0.914870 0.058753
C16   C     C_3   0.354855 0.688100 0.055590 0.086262
C17   C     C_R   0.063497 0.379747 0.481544 -0.110934
C18   C     C_R   0.935676 0.379939 0.479380 -0.108041
C19   C     C_R   0.872272 0.500294 0.496375 -0.041198
C20   C     C_R   0.127509 0.500370 0.498453 -0.036252
C21   C     C_R   0.936235 0.621240 0.511787 -0.125888
C22   C     C_R   0.064033 0.621189 0.513341 -0.120064
H1    H     H_    0.278551 0.628526 0.869669 0.156083
H2    H     H_    0.364240 0.790109 0.092955 0.222854
H3    H     H_    0.111482 0.285402 0.470052 0.203956
H4    H     H_    0.887117 0.286243 0.464498 0.205868
H5    H     H_    0.888255 0.715594 0.523446 0.203301
H6    H     H_    0.112577 0.715164 0.527158 0.201558
N1    N     N_R   0.500000 0.857200 0.500000 -0.169499
N2    N     N_R   0.500000 0.142810 0.500000 -0.169393
O1    O     O_R   0.316770 0.614620 0.499990 -0.591488
O2    O     O_R   0.683230 0.614620 0.500010 -0.610495
O3    O     O_R   0.316800 0.385290 0.500000 -0.604386
O4    O     O_R   0.683200 0.385290 0.500000 -0.591830
O5    O     O_R   0.500000 0.614690 0.316780 -0.595777
O6    O     O_R   0.500000 0.614690 0.683220 -0.567210
O7    O     O_R   0.500020 0.385360 0.316780 -0.557978
O8    O     O_R   0.499980 0.385360 0.683220 -0.569570
Zn1   Zn    Zn3+2 0.500000 0.653120 0.500000 1.062416
Zn2   Zn    Zn3+2 0.500000 0.346880 0.500000 1.084406
Br1   Br    Br    0.673795 0.257402 0.167023 -0.356108
Br2   Br    Br    0.548107 0.199494 0.888885 -0.265384
Br3   Br    Br    0.375428 0.865558 0.838334 -0.359799
Br4   Br    Br    0.219550 0.579256 0.119622 -0.391850
Br5   Br    Br    0.728105 0.151735 0.653567 -0.340996
Br6   Br    Br    0.301286 0.173863 0.312651 -0.334953
Br7   Br    Br    0.699582 0.825863 0.686374 -0.345389
Br8   Br    Br    0.286820 0.845216 0.330181 -0.381118

loop_
_geom_bond_atom_site_label_1
_geom_bond_atom_site_label_2
_ccdc_geom_bond_type
C3    N2    A    
O5    Zn1   S    
C11   C13   A    
C9    C10   A    
C16   Br4   S    
C18   H4    S    
C8    C12   S    
C14   Br2   S    
C17   H3    S    
C2    O4    A    
C13   Br1   S    
C17   C18   A    
C21   H5    S    
C15   Br3   S    
C16   H2    S    
C22   H6    S    
C21   C22   A    
O8    Zn2   S    
C9    C11   A    
N1    Zn1   S    
C6    Br8   S    
O4    Zn2   S    
C10   C12   A    
C15   H1    S    
C5    Br7   S    
C9    C16   S    
O1    Zn1   S    
C7    C11   S    
O7    Zn2   S    
C5    N1    A    
C10   C15   S    
C8    O8    A    
C7    O7    A    
O3    Zn2   S    
C1    O3    A    
C15   C16   S    
C12   C14   A    
C1    O1    A    
C6    N1    A    
C2    O2    A    
C4    C6    A    
C8    O6    A    
O2    Zn1   S    
N2    Zn2   S    
C18   C19   A    
C1    C20   S    
C4    Br6   S    
C19   C21   A    
C2    C19   S    
C13   C14   A    
C7    O5    A    
C17   C20   A    
C3    Br5   S    
O6    Zn1   S    
C4    N2    A    
C20   C22   A    
C3    C5    A    
