data_mof_unit_67718.cif
_audit_creation_date              2012-12-10T19:48:33-0500
_audit_creation_method            fapswitch 2.2
_symmetry_space_group_name_H-M    P1
_symmetry_Int_Tables_number       1
_space_group_crystal_system       triclinic
_cell_length_a                    11.153052
_cell_length_b                    10.662237
_cell_length_c                    9.634031
_cell_angle_alpha                 91.563202
_cell_angle_beta                  91.337599
_cell_angle_gamma                 93.483727
_cell_volume                      1142.74357916

loop_
_atom_site_label
_atom_site_type_symbol
_atom_type_description
_atom_site_fract_x
_atom_site_fract_y
_atom_site_fract_z
_atom_type_partial_charge
Br1   Br    Br    0.142752 0.190290 0.828941 -0.353588
Br2   Br    Br    0.225170 0.085007 0.497942 -0.412809
Br3   Br    Br    0.646192 0.109954 0.779639 -0.313363
Br4   Br    Br    0.353807 0.890046 0.220360 -0.313363
Br5   Br    Br    0.857248 0.809708 0.171058 -0.353588
Br6   Br    Br    0.497926 0.785564 0.906937 -0.380686
Br7   Br    Br    0.502076 0.214436 0.093063 -0.380686
Br8   Br    Br    0.152402 0.509526 0.883531 -0.483982
Br9   Br    Br    0.847598 0.490472 0.116467 -0.483984
Br10  Br    Br    0.121076 0.628307 0.199089 -0.383916
Br11  Br    Br    0.878926 0.371691 0.800909 -0.383915
Br12  Br    Br    0.774829 0.914993 0.502056 -0.412810
C1    C     C_R   0.501708 0.260404 0.498890 0.889868
C2    C     C_3   0.388367 0.036505 0.497194 0.225416
C3    C     C_3   0.497190 0.876491 0.501693 -0.226765
C4    C     C_3   0.502809 0.123508 0.498307 -0.226765
C5    C     C_3   0.442516 0.959457 0.613781 -0.233670
C6    C     C_3   0.557483 0.040543 0.386218 -0.233669
C7    C     C_3   0.589990 0.567254 0.055684 -0.088110
C8    C     C_3   0.410010 0.432746 0.944316 -0.088109
C9    C     C_3   0.494518 0.611255 0.955265 0.379019
C10   C     C_3   0.505482 0.388745 0.044735 0.379021
C11   C     C_3   0.595801 0.454844 0.950091 -0.086430
C12   C     C_R   0.498291 0.739596 0.501110 0.889868
C13   C     C_3   0.404199 0.545156 0.049908 -0.086430
C14   C     C_R   0.262579 0.498771 0.498024 0.809033
C15   C     C_R   0.737421 0.501229 0.501976 0.809033
C16   C     C_R   0.135449 0.396728 0.033426 0.184227
C17   C     C_R   0.864551 0.603271 0.966572 0.184225
C18   C     C_R   0.123646 0.447059 0.168025 0.265087
C19   C     C_R   0.876354 0.552939 0.831973 0.265088
C20   C     C_R   0.096080 0.365552 0.276792 -0.013314
C21   C     C_R   0.903920 0.634447 0.723206 -0.013315
C22   C     C_R   0.079952 0.235897 0.249899 -0.172808
C23   C     C_R   0.871894 0.500139 0.505684 -0.024486
C24   C     C_R   0.920047 0.764103 0.750100 -0.172808
C25   C     C_R   0.099511 0.185821 0.118184 -0.113577
C26   C     C_R   0.900488 0.814178 0.881814 -0.113576
C27   C     C_R   0.126677 0.265470 0.009383 0.286850
C28   C     C_R   0.873322 0.734529 0.990616 0.286849
C29   C     C_R   0.927003 0.416001 0.418115 -0.094021
C30   C     C_R   0.072997 0.583999 0.581884 -0.094022
C31   C     C_R   0.128106 0.499861 0.494314 -0.024486
C32   C     C_R   0.947274 0.580460 0.593998 0.087778
C33   C     C_R   0.052726 0.419540 0.406001 0.087778
C34   C     C_3   0.557826 0.047536 0.614204 0.306866
C35   C     C_3   0.442173 0.952463 0.385795 0.306866
C36   C     C_3   0.611632 0.963495 0.502805 0.225416
Cu1   Cu    Cu3+1 0.500030 0.499990 0.643150 1.053476
Cu2   Cu    Cu3+1 0.499970 0.500010 0.356850 1.053475
H1    H     H_    0.870983 0.350644 0.352988 0.183354
H2    H     H_    0.912249 0.914799 0.900777 0.219021
H3    H     H_    0.390200 0.928480 0.704278 0.247451
H4    H     H_    0.609799 0.071520 0.295722 0.247451
H5    H     H_    0.129017 0.649356 0.647011 0.183355
H6    H     H_    0.655908 0.636342 0.106077 0.211440
H7    H     H_    0.344093 0.363657 0.893922 0.211439
H8    H     H_    0.668790 0.403724 0.906528 0.228608
H9    H     H_    0.331212 0.596279 0.093471 0.228609
H10   H     H_    0.046111 0.174320 0.329204 0.233618
H11   H     H_    0.953886 0.825680 0.670794 0.233619
H12   H     H_    0.087750 0.085201 0.099222 0.219021
N1    N     N_3   0.500090 0.499970 0.858290 -0.215279
N2    N     N_3   0.499910 0.500030 0.141710 -0.215280
O1    O     O_R   0.500060 0.316850 0.620870 -0.546447
O2    O     O_R   0.499940 0.683150 0.379130 -0.546447
O3    O     O_R   0.500000 0.316860 0.379090 -0.550556
O4    O     O_R   0.500000 0.683140 0.620910 -0.550556
O5    O     O_R   0.319670 0.500010 0.620890 -0.536894
O6    O     O_R   0.680330 0.499990 0.379110 -0.536894
O7    O     O_R   0.319620 0.500010 0.379110 -0.580412
O8    O     O_R   0.680380 0.499990 0.620890 -0.580412

loop_
_geom_bond_atom_site_label_1
_geom_bond_atom_site_label_2
_ccdc_geom_bond_type
C7    H6    S    
C11   H8    S    
C26   C28   A    
Cu1   N1    S    
Cu1   O4    S    
C22   C25   A    
Cu2   N2    S    
C20   C33   S    
C3    C35   S    
Br12  C36   S    
C6    C35   S    
C25   H12   S    
C1    O1    A    
Cu1   O1    S    
C7    C9    S    
C26   H2    S    
C8    C13   S    
C21   C24   A    
Cu1   O8    S    
C19   C21   A    
Cu2   O3    S    
C12   O2    A    
C11   N1    S    
Br11  C19   S    
Cu1   O5    S    
C22   H10   S    
C14   O7    A    
C2    C5    S    
C30   C32   A    
C3    C36   S    
C23   C29   A    
C14   C31   S    
C34   C36   S    
C5    C34   S    
C4    C34   S    
C6    H4    S    
C16   C27   A    
C15   C23   S    
C12   O4    A    
C13   N2    S    
C20   C22   A    
C7    C11   S    
Cu2   O7    S    
C30   H5    S    
C31   C33   A    
Br10  C18   S    
C7    N2    S    
C23   C32   A    
Cu2   O2    S    
C15   O6    A    
C4    C6    S    
C3    C12   S    
C8    C10   S    
Br8   C16   S    
C2    C4    S    
Br5   C28   S    
C30   C31   A    
C24   H11   S    
C5    H3    S    
C1    O3    A    
C3    C5    S    
C9    C13   S    
C21   C32   S    
C6    C36   S    
C2    C35   S    
Br9   C17   S    
Br7   C10   S    
Br3   C34   S    
C8    N1    S    
C24   C26   A    
Cu2   O6    S    
C17   C19   A    
C18   C20   A    
Br6   C9    S    
C17   C28   A    
C16   C18   A    
Br2   C2    S    
C9    N1    S    
Br1   C27   S    
C10   N2    S    
C25   C27   A    
Cu1   Cu2   S    
C1    C4    S    
C14   O5    A    
C29   C33   A    
C10   C11   S    
C13   H9    S    
C8    H7    S    
C29   H1    S    
C15   O8    A    
Br4   C35   S    
