data_mof_unit_30589.cif
_audit_creation_date              2013-03-05T16:11:32-0500
_audit_creation_method            fapswitch 2.2
_symmetry_space_group_name_H-M    P1
_symmetry_Int_Tables_number       1
_space_group_crystal_system       triclinic
_cell_length_a                    10.672944
_cell_length_b                    9.843764
_cell_length_c                    15.75221
_cell_angle_alpha                 90.014783
_cell_angle_beta                  90.012853
_cell_angle_gamma                 89.957571
_cell_volume                      1654.95722172

loop_
_atom_site_label
_atom_site_type_symbol
_atom_site_description
_atom_site_fract_x
_atom_site_fract_y
_atom_site_fract_z
_atom_type_partial_charge
O1    O     O_R   0.316750 0.614620 0.499990 -0.628500
O2    O     O_R   0.316750 0.385380 0.499990 -0.629845
C1    C     C_R   0.260266 0.500046 0.500035 0.892769
O3    O     O_R   0.499990 0.614720 0.377140 -0.616526
O4    O     O_R   0.499990 0.385280 0.377140 -0.593012
C2    C     C_R   0.500045 0.499977 0.338232 0.928260
Zn1   Zn    Zn3+2 0.499980 0.653120 0.500000 1.010528
Zn2   Zn    Zn3+2 0.499980 0.346880 0.500000 1.003393
O5    O     O_R   0.683220 0.614710 0.500000 -0.586850
O6    O     O_R   0.683220 0.385290 0.500000 -0.596901
O7    O     O_R   0.499980 0.614620 0.622860 -0.596104
O8    O     O_R   0.499980 0.385380 0.622860 -0.635305
C3    C     C_R   0.739943 0.499928 0.500174 1.001129
C4    C     C_R   0.499661 0.500003 0.661737 0.935539
C5    C     C_3   0.411477 0.598998 0.049893 -0.473829
C6    C     C_3   0.476283 0.354869 0.049730 -0.423017
C7    C     C_3   0.482460 0.351001 0.951111 0.006420
C8    C     C_3   0.403150 0.593405 0.951977 0.043659
H1    H     H_    0.311627 0.546198 0.934523 0.157663
H2    H     H_    0.389264 0.318078 0.926435 0.142711
H3    H     H_    0.318329 0.570763 0.076492 0.185855
H4    H     H_    0.379394 0.329295 0.070518 0.171442
H5    H     H_    0.538346 0.276429 0.078345 0.243912
H6    H     H_    0.428943 0.703614 0.073061 0.240927
C9    C     C_1   0.501862 0.499911 0.750474 -0.117480
C10   C     C_3   0.512891 0.498302 0.082634 0.057500
C11   C     C_3   0.508294 0.498266 0.917247 0.105537
C12   C     C_3   0.638503 0.547813 0.948967 -0.446808
C13   C     C_3   0.648337 0.534620 0.048241 0.508591
C14   C     C_1   0.504599 0.499356 0.825660 -0.054197
C15   C     C_1   0.508682 0.499105 0.174212 0.031959
C16   C     C_1   0.504247 0.499761 0.249429 -0.068534
H7    H     H_    0.653871 0.654336 0.928513 0.199766
H8    H     H_    0.713560 0.492256 0.914908 0.218122
C17   C     C_R   0.065988 0.408381 0.448197 -0.224069
C18   C     C_R   0.065826 0.591389 0.552264 -0.228228
H9    H     H_    0.117909 0.340413 0.406925 0.184077
H10   H     H_    0.117618 0.659331 0.593583 0.188739
C19   C     C_R   0.937064 0.409649 0.445705 0.282702
C20   C     C_R   0.936893 0.589527 0.555026 0.301278
C21   C     C_R   0.872746 0.499687 0.500299 -0.286888
C22   C     C_R   0.128422 0.500077 0.500104 -0.130777
C23   C     C_R   0.580152 0.071891 0.551096 -0.034650
C24   C     C_R   0.580120 0.928019 0.551118 -0.030651
H11   H     H_    0.644247 0.126349 0.591981 0.145456
H12   H     H_    0.644128 0.873500 0.592050 0.186294
N1    N     N_R   0.499970 0.857200 0.499980 -0.097798
N2    N     N_R   0.499970 0.142800 0.499980 -0.089816
C25   C     C_R   0.419812 0.928112 0.448853 -0.041506
C26   C     C_R   0.419801 0.071988 0.448859 -0.032177
H13   H     H_    0.355720 0.873651 0.407971 0.143610
H14   H     H_    0.355683 0.126531 0.407993 0.137168
N3    N     N_2   0.577267 0.253560 0.923059 -0.245977
H15   H     H_    0.621570 0.276641 0.866741 0.250588
C27   C     C_3   0.540660 0.111982 0.926411 -0.689551
H16   H     H_    0.623587 0.046834 0.913866 0.266535
H17   H     H_    0.468540 0.090933 0.877297 0.209350
H18   H     H_    0.502918 0.085186 0.989903 0.256054
N4    N     N_2   0.408648 0.729182 0.914846 -0.290229
H19   H     H_    0.484683 0.787089 0.932452 0.270595
C28   C     C_3   0.292459 0.805057 0.915296 -0.730854
H20   H     H_    0.305386 0.902002 0.880426 0.238663
H21   H     H_    0.263789 0.828279 0.981519 0.249688
H22   H     H_    0.217302 0.746534 0.883026 0.257626
N5    N     N_R   0.693787 0.664664 0.084287 0.194785
O9    O     O_R   0.795228 0.668396 0.130167 -0.292579
O10   O     O_R   0.639920 0.779358 0.065370 -0.435633
N6    N     N_R   0.737382 0.424853 0.072702 0.214313
O11   O     O_R   0.802343 0.357455 0.016826 -0.368737
O12   O     O_R   0.755315 0.396502 0.152492 -0.290103
N7    N     N_R   0.873637 0.323707 0.385595 0.230926
O13   O     O_R   0.917661 0.203426 0.368560 -0.348465
O14   O     O_R   0.784647 0.372795 0.338208 -0.332510
N8    N     N_R   0.873261 0.674358 0.615682 0.209346
O15   O     O_R   0.786377 0.623502 0.664095 -0.424397
O16   O     O_R   0.915714 0.795409 0.632293 -0.390970

loop_
_geom_bond_atom_site_label_1
_geom_bond_atom_site_label_2
_geom_bond_distance
_ccdc_geom_bond_type
C18   C22   1.388656 A    
C28   H22   1.110873 S    
C26   H14   1.081840 S    
C23   C24   1.416242 A    
Zn2   N2    2.008915 S    
C1    C22   1.407166 S    
C27   H17   1.110795 S    
C5    C8    1.545913 S    
C13   N6    1.489205 S    
C23   N2    1.366384 A    
C2    C16   1.399569 S    
C15   C16   1.185812 T    
C24   N1    1.366352 A    
C5    H3    1.114371 S    
Zn2   O8    1.971977 S    
C27   H16   1.110329 S    
C3    C21   1.417405 S    
O2    C1    1.279255 A    
O8    C4    1.283664 A    
C12   H8    1.108170 S    
N7    O13   1.301447 A    
C19   C21   1.412550 A    
N4    H19   1.030004 S    
C5    H6    1.108384 S    
N3    H15   1.030847 S    
C11   C14   1.443270 S    
Zn1   O7    1.972169 S    
C23   H11   1.081793 S    
O4    C2    1.284816 A    
C17   C22   1.388375 A    
N8    O16   1.301625 A    
O3    Zn1   1.971790 S    
C13   N5    1.482177 S    
C17   C19   1.376591 A    
C9    C14   1.184707 T    
N2    C26   1.366296 A    
C20   C21   1.412166 A    
C17   H9    1.084798 S    
C24   H12   1.081614 S    
C12   H7    1.109375 S    
C8    H1    1.116332 S    
C6    H5    1.112397 S    
Zn1   O5    1.991650 S    
N3    C27   1.448647 S    
C4    C9    1.398003 S    
C6    C10   1.554078 S    
C28   H20   1.109924 S    
O7    C4    1.283892 A    
N4    C28   1.447179 S    
O4    Zn2   1.971982 S    
N5    O10   1.301209 A    
N8    O15   1.301272 A    
O3    C2    1.284930 A    
C18   H10   1.084730 S    
C7    C11   1.569426 S    
C7    N3    1.462094 S    
C8    N4    1.460286 S    
C18   C20   1.376926 A    
C7    H2    1.116129 S    
C10   C13   1.585023 S    
N1    C25   1.366341 A    
C25   C26   1.416280 A    
C27   H18   1.110220 S    
N7    O14   1.300759 A    
C11   C12   1.555446 S    
C28   H21   1.110854 S    
N6    O12   1.301618 A    
O5    C3    1.281466 A    
C12   C13   1.572674 S    
C5    C10   1.555157 S    
C6    H4    1.113791 S    
C25   H13   1.081762 S    
C19   N7    1.438985 S    
O1    Zn1   1.992262 S    
C10   C15   1.443282 S    
N5    O9    1.302128 A    
N6    O11   1.301868 A    
Zn2   O6    1.992200 S    
O2    Zn2   1.991711 S    
C8    C11   1.560177 S    
C20   N8    1.438931 S    
C6    C7    1.555345 S    
O1    C1    1.279235 A    
O6    C3    1.281001 A    
Zn1   N1    2.008915 S    
