data_mof_unit_48472.cif
_audit_creation_date              2012-12-10T17:41:01-0500
_audit_creation_method            fapswitch 2.2
_symmetry_space_group_name_H-M    P1
_symmetry_Int_Tables_number       1
_space_group_crystal_system       triclinic
_cell_length_a                    14.710711
_cell_length_b                    15.577396
_cell_length_c                    9.977505
_cell_angle_alpha                 89.599262
_cell_angle_beta                  86.501721
_cell_angle_gamma                 90.088555
_cell_volume                      2282.07021159

loop_
_atom_site_label
_atom_site_type_symbol
_atom_type_description
_atom_site_fract_x
_atom_site_fract_y
_atom_site_fract_z
_atom_type_partial_charge
C1    C     C_R   0.385764 0.874930 0.503312 0.995760
C2    C     C_R   0.743263 0.198849 0.387618 -0.147976
C3    C     C_R   0.243492 0.302908 0.387988 -0.158050
C4    C     C_R   0.244491 0.697969 0.387428 -0.146550
C5    C     C_R   0.677508 0.804680 0.492588 -0.136889
C6    C     C_R   0.676050 0.196605 0.492623 -0.141105
C7    C     C_R   0.176118 0.303704 0.492644 -0.131804
C8    C     C_R   0.177093 0.695994 0.492358 -0.137911
C9    C     C_R   0.320917 0.987396 0.139277 0.353316
C10   C     C_R   0.820172 0.494406 0.138877 0.354675
C11   C     C_R   0.244382 0.976735 0.059984 0.425364
C12   C     C_R   0.385324 0.124718 0.502783 0.997029
C13   C     C_R   0.743114 0.488937 0.059116 0.427802
C14   C     C_R   0.254348 0.983236 0.922597 0.261773
C15   C     C_R   0.753860 0.492364 0.921631 0.258999
C16   C     C_R   0.339306 0.993043 0.862136 -0.305021
C17   C     C_R   0.839273 0.497793 0.861602 -0.305198
C18   C     C_R   0.418636 0.995020 0.931956 0.006207
C19   C     C_R   0.918442 0.499024 0.931757 0.014167
C20   C     C_R   0.415021 0.994388 0.077073 0.015258
C21   C     C_R   0.914734 0.497993 0.076927 0.011907
C22   C     C_R   0.578175 0.006304 0.064500 0.385714
C23   C     C_R   0.885324 0.375219 0.503354 1.001992
C24   C     C_R   0.078204 0.500644 0.065785 0.417618
C25   C     C_R   0.614923 0.124289 0.497505 0.937182
C26   C     C_R   0.615517 0.876171 0.497848 0.931601
C27   C     C_R   0.115313 0.624077 0.497402 0.932284
C28   C     C_R   0.114991 0.375829 0.497939 0.934132
C29   C     C_R   0.578318 0.006891 0.921230 0.173970
C30   C     C_R   0.078977 0.497007 0.923025 0.177365
C31   C     C_R   0.284992 0.190326 0.759716 -0.156134
C32   C     C_R   0.293946 0.795457 0.761158 -0.140707
C33   C     C_R   0.788018 0.694398 0.760405 -0.148736
C34   C     C_R   0.885857 0.625103 0.502785 1.000977
C35   C     C_R   0.791223 0.299078 0.761295 -0.140980
C36   C     C_R   0.217439 0.196943 0.863942 0.349264
C37   C     C_R   0.231059 0.777327 0.868573 0.374775
C38   C     C_R   0.721053 0.703156 0.865171 0.355456
C39   C     C_R   0.727447 0.283438 0.868497 0.361277
C40   C     C_R   0.631197 0.716744 0.835065 -0.165343
C41   C     C_R   0.637044 0.268659 0.842916 -0.163106
C42   C     C_R   0.128054 0.212541 0.833520 -0.163820
C43   C     C_R   0.140241 0.763752 0.843937 -0.140666
C44   C     C_R   0.612153 0.737864 0.703885 0.376225
C45   C     C_R   0.316971 0.248808 0.394336 0.435671
C46   C     C_R   0.614319 0.254771 0.711474 0.391849
C47   C     C_R   0.109752 0.236244 0.703092 0.385771
C48   C     C_R   0.116494 0.753081 0.712230 0.395615
C49   C     C_R   0.683996 0.751147 0.605819 -0.006485
C50   C     C_R   0.683845 0.247174 0.608168 0.001693
C51   C     C_R   0.181938 0.249512 0.605400 -0.012761
C52   C     C_R   0.185381 0.746221 0.608075 0.001199
C53   C     C_R   0.265466 0.211084 0.625565 -0.033597
C54   C     C_R   0.269666 0.783384 0.627213 -0.024773
C55   C     C_R   0.767713 0.713306 0.626022 -0.028430
C56   C     C_R   0.319309 0.750620 0.395538 0.434747
C57   C     C_R   0.767918 0.284934 0.627287 -0.023727
C58   C     C_R   0.325487 0.198366 0.510500 -0.116757
C59   C     C_R   0.327576 0.799857 0.511468 -0.122438
C60   C     C_R   0.827116 0.699633 0.510680 -0.123809
C61   C     C_R   0.826271 0.300781 0.511539 -0.122048
C62   C     C_3   0.720689 0.945805 0.829068 -0.541113
C63   C     C_3   0.220577 0.416204 0.871694 -0.563422
C64   C     C_R   0.818678 0.750039 0.394523 0.433649
C65   C     C_R   0.817894 0.251552 0.395539 0.437261
C66   C     C_R   0.745028 0.804105 0.387991 -0.154405
Cl1   Cl    Cl    0.402109 0.254515 0.261699 -0.450637
Cl2   Cl    Cl    0.759761 0.283952 0.034199 -0.544120
Cl3   Cl    Cl    0.500370 0.727903 0.657717 -0.587563
Cl4   Cl    Cl    0.500004 0.262920 0.675297 -0.595870
Cl5   Cl    Cl    0.997758 0.228887 0.657075 -0.596380
Cl6   Cl    Cl    0.002266 0.763677 0.676919 -0.590543
Cl7   Cl    Cl    0.681656 0.012881 0.142877 -0.569224
Cl8   Cl    Cl    0.181044 0.508262 0.146242 -0.547536
Cl9   Cl    Cl    0.276498 0.002379 0.304820 -0.471872
Cl10  Cl    Cl    0.776479 0.501368 0.306221 -0.473242
Cl11  Cl    Cl    0.131284 0.957938 0.129474 -0.321901
Cl12  Cl    Cl    0.408599 0.742524 0.269635 -0.439094
Cl13  Cl    Cl    0.628494 0.478662 0.127599 -0.315051
Cl14  Cl    Cl    0.904425 0.755809 0.262823 -0.443581
Cl15  Cl    Cl    0.906385 0.243777 0.268265 -0.445722
Cl16  Cl    Cl    0.160187 0.982731 0.820604 -0.486284
Cl17  Cl    Cl    0.660326 0.491110 0.818352 -0.482996
Cl18  Cl    Cl    0.244236 0.186191 0.031975 -0.545044
Cl19  Cl    Cl    0.265047 0.773167 0.033182 -0.533767
Cl20  Cl    Cl    0.748893 0.696450 0.033090 -0.537271
H1    H     H_    0.340335 0.999425 0.757172 0.266327
H2    H     H_    0.088662 0.761657 0.926131 0.227276
H3    H     H_    0.742228 0.847663 0.303156 0.236229
H4    H     H_    0.740320 0.156569 0.302358 0.248513
H5    H     H_    0.240843 0.346504 0.303185 0.232940
H6    H     H_    0.241512 0.655561 0.302303 0.250021
H7    H     H_    0.695153 0.075284 0.864475 0.251054
H8    H     H_    0.681866 0.885112 0.843191 0.217642
H9    H     H_    0.773494 0.948296 0.903848 0.279143
H10   H     H_    0.755332 0.946145 0.727092 0.236346
H11   H     H_    0.171956 0.514568 0.754060 0.280338
H12   H     H_    0.840723 0.499833 0.756403 0.267892
H13   H     H_    0.187359 0.371644 0.947134 0.246165
H14   H     H_    0.233727 0.381354 0.776052 0.211611
H15   H     H_    0.287179 0.436832 0.907119 0.299602
H16   H     H_    0.352566 0.174928 0.787871 0.239861
H17   H     H_    0.362032 0.812301 0.785283 0.232436
H18   H     H_    0.855629 0.678564 0.787856 0.239347
H19   H     H_    0.859237 0.315734 0.786062 0.233562
H20   H     H_    0.576830 0.712123 0.913013 0.235491
H21   H     H_    0.584903 0.267865 0.924387 0.230086
H22   H     H_    0.073346 0.207315 0.910855 0.233123
N1    N     N_R   0.498810 0.000000 0.142780 -0.122434
N2    N     N_R   0.998810 0.500000 0.142780 -0.132477
N3    N     N_R   0.498740 0.000000 0.857170 -0.120254
N4    N     N_R   0.998740 0.500000 0.857170 -0.138399
N5    N     N_2   0.661222 0.019570 0.842760 -0.270334
N6    N     N_2   0.165112 0.491198 0.849754 -0.288470
O1    O     O_R   0.408390 0.908380 0.614690 -0.655964
O2    O     O_R   0.591620 0.908390 0.614640 -0.613843
O3    O     O_R   0.091620 0.591610 0.614640 -0.648844
O4    O     O_R   0.091620 0.408390 0.614640 -0.633875
O5    O     O_R   0.591610 0.091610 0.385310 -0.569133
O6    O     O_R   0.591610 0.908390 0.385310 -0.571046
O7    O     O_R   0.091610 0.591610 0.385310 -0.564490
O8    O     O_R   0.091610 0.408390 0.385310 -0.573437
O9    O     O_R   0.408390 0.091620 0.614690 -0.656435
O10   O     O_R   0.908390 0.408380 0.614690 -0.654463
O11   O     O_R   0.908390 0.591620 0.614690 -0.653613
O12   O     O_R   0.408370 0.908380 0.385360 -0.551397
O13   O     O_R   0.408370 0.091620 0.385360 -0.537175
O14   O     O_R   0.908370 0.408380 0.385360 -0.547250
O15   O     O_R   0.908370 0.591620 0.385360 -0.538740
O16   O     O_R   0.591620 0.091610 0.614640 -0.604751
Zn1   Zn    Zn3+2 0.500010 0.000000 0.653130 0.985396
Zn2   Zn    Zn3+2 0.000010 0.500000 0.653130 0.966352
Zn3   Zn    Zn3+2 0.499980 0.000000 0.346870 1.117692
Zn4   Zn    Zn3+2 0.999980 0.500000 0.346870 1.114294

loop_
_geom_bond_atom_site_label_1
_geom_bond_atom_site_label_2
_ccdc_geom_bond_type
C44   C49   A    
C33   C55   A    
C13   Cl13  S    
C22   C29   A    
C62   H10   S    
C33   H18   S    
C39   Cl2   S    
C36   C42   A    
C4    C8    A    
C2    C65   A    
C21   N2    A    
C27   O7    A    
C1    O12   A    
C39   C41   A    
C12   O13   A    
O1    Zn1   S    
C19   N4    A    
C12   O9    A    
O5    Zn3   S    
C38   Cl20  S    
C43   H2    S    
C37   Cl19  S    
C19   C21   A    
C26   O6    A    
C3    C7    A    
C1    C59   S    
C30   N6    S    
C11   C14   A    
C28   O8    A    
C6    C25   S    
C56   Cl12  S    
O10   Zn2   S    
C3    H5    S    
O6    Zn3   S    
C2    H4    S    
O3    Zn2   S    
O8    Zn4   S    
C63   H13   S    
C11   Cl11  S    
C63   N6    S    
C10   Cl10  S    
C34   O15   A    
C45   Cl1   S    
C16   H1    S    
C41   C46   A    
O7    Zn4   S    
C43   C48   A    
C8    C52   A    
C40   C44   A    
C63   H15   S    
C12   C58   S    
C55   C60   A    
C4    C56   A    
C34   C60   S    
C64   Cl14  S    
C5    C49   A    
C2    C6    A    
C48   Cl6   S    
C25   O16   A    
C25   O5    A    
C32   C54   A    
C52   C54   A    
C66   H3    S    
C24   C30   A    
C54   C59   A    
C27   O3    A    
C10   C21   A    
C45   C58   A    
N1    Zn3   S    
C31   H16   S    
C24   N2    A    
C18   N3    A    
O12   Zn3   S    
C62   N5    S    
C15   Cl17  S    
C49   C55   A    
C3    C45   A    
C6    C50   A    
C7    C28   S    
C20   N1    A    
C30   N4    A    
C51   C53   A    
C64   C66   A    
C37   C43   A    
C35   C39   A    
C63   H14   S    
C35   H19   S    
O14   Zn4   S    
C9    C20   A    
C65   Cl15  S    
C23   C61   S    
C22   N1    A    
C32   H17   S    
C44   Cl3   S    
H7    N5    S    
C32   C37   A    
C31   C53   A    
C9    C11   A    
C47   Cl5   S    
N3    Zn1   S    
C13   C15   A    
C14   C16   A    
N2    Zn4   S    
C14   Cl16  S    
C40   H20   S    
C17   H12   S    
C15   C17   A    
C29   N5    S    
C41   H21   S    
O9    Zn1   S    
N4    Zn2   S    
C50   C57   A    
C29   N3    A    
O13   Zn3   S    
C5    C66   A    
C10   C13   A    
C47   C51   A    
C53   C58   A    
C57   C61   A    
C23   O10   A    
C9    Cl9   S    
C46   C50   A    
C33   C38   A    
C56   C59   A    
C60   C64   A    
C35   C57   A    
C62   H8    S    
O16   Zn1   S    
C7    C51   A    
C28   O4    A    
C38   C40   A    
O11   Zn2   S    
C24   Cl8   S    
O2    Zn1   S    
C36   Cl18  S    
C34   O11   A    
C17   C19   A    
C18   C20   A    
C42   C47   A    
C26   O2    A    
O15   Zn4   S    
C46   Cl4   S    
O4    Zn2   S    
C5    C26   S    
C61   C65   A    
C48   C52   A    
C16   C18   A    
C8    C27   S    
C31   C36   A    
C1    O1    A    
C22   Cl7   S    
H11   N6    S    
C62   H9    S    
C42   H22   S    
C23   O14   A    
C4    H6    S    
