data_mof_unit_5478.cif
_audit_creation_date              2013-03-05T16:30:58-0500
_audit_creation_method            fapswitch 2.2
_symmetry_space_group_name_H-M    P1
_symmetry_Int_Tables_number       1
_space_group_crystal_system       triclinic
_cell_length_a                    13.001434
_cell_length_b                    10.859777
_cell_length_c                    9.540128
_cell_angle_alpha                 89.988682
_cell_angle_beta                  96.02342
_cell_angle_gamma                 90.168449
_cell_volume                      1339.55373369

loop_
_atom_site_label
_atom_site_type_symbol
_atom_site_description
_atom_site_fract_x
_atom_site_fract_y
_atom_site_fract_z
_atom_type_partial_charge
O1    O     O_R   0.500000 0.319640 0.618810 -0.591096
O2    O     O_R   0.500010 0.319680 0.381230 -0.595685
C1    C     C_R   0.500126 0.262687 0.499880 0.798967
O3    O     O_R   0.348990 0.499960 0.599490 -0.529291
O4    O     O_R   0.349000 0.500000 0.361910 -0.586495
C2    C     C_R   0.300634 0.503009 0.474052 0.854342
Cu1   Cu    Cu3+1 0.499990 0.499980 0.640670 0.985995
Cu2   Cu    Cu3+1 0.500010 0.500020 0.359330 0.951723
O5    O     O_R   0.499990 0.680320 0.618770 -0.565645
O6    O     O_R   0.500000 0.680360 0.381190 -0.588790
O7    O     O_R   0.651000 0.500000 0.638090 -0.592351
O8    O     O_R   0.651010 0.500040 0.400510 -0.591182
C3    C     C_R   0.500367 0.737297 0.499885 0.824469
C4    C     C_R   0.699230 0.501730 0.526081 0.795459
C5    C     C_R   0.811344 0.510463 0.540690 -0.039204
C6    C     C_R   0.187789 0.505001 0.460001 -0.159990
C7    C     C_R   0.026679 0.440455 0.330833 -0.197340
C8    C     C_R   0.133448 0.451789 0.340392 -0.229569
C9    C     C_R   0.134121 0.552291 0.569552 0.277632
C10   C     C_R   0.026258 0.538992 0.561031 0.053593
C11   C     C_R   0.972892 0.482002 0.440926 0.126579
C12   C     C_R   0.865988 0.468147 0.431813 -0.235003
C13   C     C_R   0.863565 0.567494 0.659014 -0.222082
C14   C     C_R   0.970109 0.582416 0.668996 -0.144342
H1    H     H_    0.825248 0.424328 0.339911 0.138564
H2    H     H_    0.821798 0.603962 0.741905 0.149833
H3    H     H_    0.986277 0.397550 0.238198 0.149601
H4    H     H_    0.007446 0.628942 0.760971 0.191794
H5    H     H_    0.173942 0.415461 0.255824 0.179785
C15   C     C_R   0.496098 0.061905 0.620384 0.132603
C16   C     C_R   0.501292 0.130063 0.498376 -0.098824
C17   C     C_R   0.507838 0.064608 0.371726 -0.215467
H6    H     H_    0.512543 0.112419 0.272941 0.165900
C18   C     C_R   0.508040 0.935437 0.371757 -0.212447
H7    H     H_    0.512911 0.887695 0.272998 0.167867
C19   C     C_R   0.501648 0.869891 0.498432 -0.096895
C20   C     C_R   0.496385 0.937933 0.620444 0.142549
C21   C     C_3   0.486362 0.928936 0.774262 -0.439992
C22   C     C_3   0.485941 0.070766 0.774159 -0.487653
H8    H     H_    0.411415 0.887449 0.796060 0.240354
H9    H     H_    0.556190 0.888659 0.834032 0.184276
H10   H     H_    0.410652 0.110925 0.795727 0.200589
H11   H     H_    0.555473 0.112388 0.833880 0.200834
C23   C     C_R   0.549357 0.591479 0.080726 0.266423
N1    N     N_R   0.500660 0.500930 0.148010 -0.192486
C24   C     C_R   0.442814 0.417140 0.066286 -0.063210
H12   H     H_    0.398133 0.348570 0.115790 0.136189
C25   C     C_R   0.442746 0.417197 0.917340 -0.014509
H13   H     H_    0.397891 0.348815 0.855072 0.137426
N2    N     N_R   0.500660 0.500890 0.852110 -0.188030
C26   C     C_R   0.549638 0.591176 0.933326 0.280986
C27   C     C_3   0.662201 0.620717 0.944230 -0.536182
C28   C     C_3   0.661630 0.622534 0.103041 -0.499379
H14   H     H_    0.708735 0.543655 0.907884 0.217756
H15   H     H_    0.677792 0.712341 0.898994 0.190269
H16   H     H_    0.709229 0.547888 0.156116 0.219396
H17   H     H_    0.675462 0.715651 0.149737 0.195984
N3    N     N_R   0.188670 0.615433 0.687271 0.114898
O9    O     O_R   0.238255 0.717193 0.667362 -0.377619
O10   O     O_R   0.196018 0.565953 0.812200 -0.381877

loop_
_geom_bond_atom_site_label_1
_geom_bond_atom_site_label_2
_geom_bond_distance
_ccdc_geom_bond_type
O4    Cu2   1.966080 S    
C21   H8    1.111581 S    
C13   C14   1.387504 A    
O6    C3    1.289860 A    
C20   C21   1.489939 S    
O5    C3    1.292327 A    
Cu1   O7    1.966082 S    
C16   C17   1.412323 A    
C27   H15   1.111025 S    
Cu2   O8    1.961298 S    
C17   H6    1.083152 S    
C25   N2    1.369074 A    
C7    C8    1.386667 A    
Cu1   Cu2   2.684047 S    
C8    H5    1.083621 S    
O1    Cu1   1.969568 S    
N1    C24   1.369183 A    
C27   C28   1.516011 S    
C1    C16   1.440478 S    
C15   C16   1.386768 A    
C21   H9    1.110976 S    
O3    Cu1   1.961298 S    
C23   C26   1.406611 A    
C5    C13   1.398484 A    
C25   H13   1.081382 S    
C5    C12   1.397070 A    
C27   H14   1.110751 S    
C15   C22   1.489863 S    
N2    C26   1.363917 A    
C22   H10   1.111540 S    
C18   C19   1.412249 A    
C6    C9    1.413607 A    
C9    N3    1.436916 S    
C22   H11   1.111649 S    
O4    C2    1.297065 A    
O7    C4    1.294594 A    
C24   C25   1.420880 A    
C13   H2    1.081013 S    
O3    C2    1.292534 A    
Cu2   N1    2.016945 S    
C2    C6    1.459417 S    
C26   C27   1.490237 S    
C7    H3    1.084127 S    
C14   H4    1.081756 S    
C21   C22   1.540266 S    
C10   C11   1.417127 A    
C15   C20   1.346320 A    
C3    C19   1.440061 S    
Cu2   O6    1.969566 S    
C18   H7    1.083241 S    
C24   H12   1.081628 S    
C28   H16   1.110639 S    
Cu1   O5    1.969524 S    
C28   H17   1.111610 S    
C4    C5    1.452481 S    
C19   C20   1.386721 A    
O2    C1    1.289862 A    
C17   C18   1.402778 A    
N3    O9    1.301669 A    
C11   C12   1.391206 A    
N3    O10   1.301721 A    
C23   C28   1.490547 S    
C10   C14   1.405790 A    
C6    C8    1.401365 A    
O2    Cu2   1.969524 S    
C23   N1    1.364268 A    
C9    C10   1.403203 A    
Cu1   N2    2.016296 S    
O8    C4    1.292599 A    
O1    C1    1.292495 A    
C12   H1    1.084861 S    
C7    C11   1.397114 A    
