data_mof_unit_56213.cif
_audit_creation_date              2012-12-10T17:35:48-0500
_audit_creation_method            fapswitch 2.2
_symmetry_space_group_name_H-M    P1
_symmetry_Int_Tables_number       1
_space_group_crystal_system       triclinic
_cell_length_a                    10.514748
_cell_length_b                    12.006528
_cell_length_c                    12.887704
_cell_angle_alpha                 93.397975
_cell_angle_beta                  91.340212
_cell_angle_gamma                 84.960175
_cell_volume                      1617.60605061

loop_
_atom_site_label
_atom_site_type_symbol
_atom_type_description
_atom_site_fract_x
_atom_site_fract_y
_atom_site_fract_z
_atom_type_partial_charge
C1    C     C_R   0.499086 0.521945 0.700619 0.878117
C2    C     C_R   0.504621 0.477946 0.299552 0.889593
C3    C     C_R   0.507384 0.439048 0.867886 -0.308202
C4    C     C_R   0.530108 0.558867 0.133759 -0.298937
C5    C     C_R   0.526871 0.444004 0.974243 0.100192
C6    C     C_R   0.533718 0.551335 0.026297 0.081407
C7    C     C_R   0.421469 0.950394 0.376381 0.082126
C8    C     C_R   0.591098 0.048149 0.618619 0.086361
C9    C     C_R   0.423427 0.835326 0.392993 -0.039726
C10   C     C_R   0.584987 0.163801 0.603419 -0.032577
C11   C     C_R   0.530959 0.859334 0.554893 -0.077927
C12   C     C_R   0.467972 0.140675 0.445898 -0.082414
C13   C     C_R   0.532140 0.976342 0.543878 0.018179
C14   C     C_R   0.473046 0.022963 0.454412 0.025488
C15   C     C_R   0.742497 0.499482 0.504143 0.869948
C16   C     C_R   0.257435 0.500450 0.494831 0.887995
C17   C     C_3   0.973951 0.429640 0.571523 0.003645
C18   C     C_3   0.026019 0.570811 0.426714 -0.004816
C19   C     C_3   0.044457 0.535648 0.592301 0.154103
C20   C     C_3   0.954895 0.464280 0.405874 0.168298
C21   C     C_3   0.122348 0.503200 0.494756 -0.125143
C22   C     C_3   0.877346 0.496901 0.503769 -0.111101
C23   C     C_3   0.053128 0.396013 0.473506 -0.227909
C24   C     C_3   0.946432 0.603747 0.525077 -0.239126
C25   C     C_R   0.517517 0.464256 0.188603 -0.096003
C26   C     C_R   0.508747 0.534521 0.812194 -0.111163
C27   C     C_R   0.539439 0.649095 0.969973 0.174047
C28   C     C_R   0.533714 0.345591 0.031000 0.184894
C29   C     C_R   0.527190 0.638170 0.861834 -0.201597
C30   C     C_R   0.522330 0.358238 0.138314 -0.215674
H1    H     H_    0.100915 0.312366 0.450443 0.150638
H2    H     H_    0.898573 0.687792 0.546779 0.155989
H3    H     H_    0.532005 0.639299 0.175761 0.165760
H4    H     H_    0.486061 0.361767 0.827157 0.164379
H5    H     H_    0.518853 0.284863 0.182797 0.165721
H6    H     H_    0.530579 0.709626 0.815151 0.171431
H7    H     H_    0.418787 0.180414 0.381603 0.146868
H8    H     H_    0.574470 0.820064 0.621693 0.145334
H9    H     H_    0.628911 0.219643 0.659666 0.147465
H10   H     H_    0.385078 0.778926 0.334094 0.149660
N1    N     N_R   0.523490 0.207800 0.519350 -0.114677
N2    N     N_R   0.476510 0.792200 0.480650 -0.114474
O1    O     O_R   0.506270 0.421700 0.658830 -0.630886
O2    O     O_R   0.493730 0.578300 0.341170 -0.628550
O3    O     O_R   0.491200 0.609310 0.646410 -0.635860
O4    O     O_R   0.508800 0.390690 0.353590 -0.634747
O5    O     O_R   0.693580 0.406210 0.506230 -0.619480
O6    O     O_R   0.306420 0.593790 0.493770 -0.624939
O7    O     O_R   0.678510 0.593830 0.493810 -0.615583
O8    O     O_R   0.321490 0.406170 0.506190 -0.622313
Zn1   Zn    Zn3+2 0.510060 0.374730 0.508290 0.930040
Zn2   Zn    Zn3+2 0.489940 0.625270 0.491710 0.931009
C31   C     C_3   0.104965 0.578732 0.694744 -0.393068
C32   C     C_3   0.005690 0.630386 0.771990 -0.882002
H11   H     H_    0.944545 0.699153 0.737263 0.253247
H12   H     H_    0.945131 0.566364 0.796884 0.264687
H13   H     H_    0.054998 0.665551 0.842014 0.249545
H14   H     H_    0.163304 0.508556 0.730003 0.207576
H15   H     H_    0.169296 0.643746 0.677850 0.211287
C33   C     C_3   0.894541 0.415297 0.305520 -0.402303
C34   C     C_3   0.993832 0.350190 0.235335 -0.893768
H16   H     H_    0.077896 0.398198 0.225948 0.256630
H17   H     H_    0.027118 0.269526 0.269110 0.252746
H18   H     H_    0.950135 0.331665 0.157642 0.255863
H19   H     H_    0.824162 0.356660 0.325775 0.224043
H20   H     H_    0.841351 0.483456 0.263662 0.196812
C35   C     C_R   0.947981 0.349685 0.652615 0.144603
C36   C     C_R   0.027866 0.250468 0.662377 -0.157982
C37   C     C_R   0.007181 0.178315 0.740225 -0.146443
C38   C     C_R   0.907426 0.204866 0.809342 -0.116768
C39   C     C_R   0.828173 0.303648 0.800665 -0.173603
C40   C     C_R   0.847847 0.375664 0.722425 -0.122912
H21   H     H_    0.107385 0.229223 0.611069 0.125354
H22   H     H_    0.068954 0.102033 0.747301 0.128317
H23   H     H_    0.892076 0.148875 0.869641 0.134640
H24   H     H_    0.751979 0.324853 0.854855 0.157875
H25   H     H_    0.786003 0.452157 0.717226 0.116606
C41   C     C_R   0.053481 0.663099 0.357658 0.133546
C42   C     C_R   0.031219 0.655024 0.249606 -0.172355
C43   C     C_R   0.044195 0.746649 0.189814 -0.131306
C44   C     C_R   0.078130 0.847557 0.237246 -0.134222
C45   C     C_R   0.102096 0.856266 0.344284 -0.170278
C46   C     C_R   0.091361 0.764301 0.404028 -0.114067
H26   H     H_    0.002212 0.579613 0.210571 0.146892
H27   H     H_    0.026047 0.739849 0.106747 0.130868
H28   H     H_    0.085998 0.918937 0.191025 0.123921
H29   H     H_    0.128464 0.934487 0.381156 0.131407
H30   H     H_    0.108856 0.773189 0.487142 0.133841
C47   C     C_3   0.557660 0.762592 0.025879 -0.414253
C48   C     C_3   0.578726 0.858155 0.956612 -0.932619
H31   H     H_    0.662776 0.835448 0.906608 0.265731
H32   H     H_    0.492015 0.879351 0.908412 0.256335
H33   H     H_    0.597911 0.933631 0.006064 0.266091
H34   H     H_    0.472432 0.788650 0.073757 0.212456
H35   H     H_    0.642743 0.752976 0.078502 0.209413
C49   C     C_3   0.558219 0.226699 0.983277 -0.442591
C50   C     C_3   0.683482 0.169991 0.025315 -0.903383
H36   H     H_    0.761751 0.225873 0.021321 0.262471
H37   H     H_    0.673901 0.148883 0.107215 0.265325
H38   H     H_    0.710146 0.091451 0.978152 0.246357
H39   H     H_    0.477864 0.177369 0.001390 0.206926
H40   H     H_    0.566165 0.221954 0.897938 0.193205
C51   C     C_3   0.370706 0.990575 0.272922 -0.448150
C52   C     C_3   0.478919 0.019145 0.205070 -0.874230
H41   H     H_    0.527209 0.091092 0.239927 0.253577
H42   H     H_    0.550789 0.946035 0.195201 0.268926
H43   H     H_    0.439619 0.041008 0.127555 0.252060
H44   H     H_    0.321270 0.924029 0.229213 0.208998
H45   H     H_    0.298892 0.063498 0.284526 0.195154
C53   C     C_3   0.661208 0.005574 0.714325 -0.438154
C54   C     C_3   0.792620 0.947931 0.687446 -0.866385
H46   H     H_    0.784518 0.872491 0.634573 0.250030
H47   H     H_    0.850145 0.006496 0.649204 0.273222
H48   H     H_    0.843358 0.921907 0.759771 0.240547
H49   H     H_    0.675195 0.075970 0.772204 0.208951
H50   H     H_    0.603437 0.948041 0.753315 0.199900

loop_
_geom_bond_atom_site_label_1
_geom_bond_atom_site_label_2
_ccdc_geom_bond_type
C16   C21   S    
C49   H40   S    
C27   C29   A    
C18   C21   S    
C54   H46   S    
C15   O5    A    
C1    O3    A    
C16   O6    A    
C43   H27   S    
C52   H42   S    
C4    C25   A    
C31   H15   S    
C31   C32   S    
C2    O4    A    
C29   H6    S    
C9    N2    A    
C17   C23   S    
C30   H5    S    
C48   H33   S    
C18   C24   S    
C19   C21   S    
C16   O8    A    
C42   H26   S    
C45   H29   S    
C47   H34   S    
C11   N2    A    
C35   C40   A    
C12   H7    S    
C34   H17   S    
C53   C54   S    
C4    H3    S    
C41   C46   A    
C1    O1    A    
C15   C22   S    
C2    O2    A    
C36   C37   A    
C38   C39   A    
C20   C33   S    
C44   H28   S    
O2    Zn2   S    
C46   H30   S    
C33   H20   S    
C7    C51   S    
C49   H39   S    
C10   N1    A    
C54   H48   S    
C34   H16   S    
C52   H41   S    
C50   H37   S    
C50   H36   S    
C7    C14   A    
C32   H12   S    
C17   C35   S    
C35   C36   A    
C4    C6    A    
C41   C42   A    
O5    Zn1   S    
O3    Zn2   S    
C36   H21   S    
O4    Zn1   S    
C9    H10   S    
C44   C45   A    
C10   H9    S    
C23   H1    S    
C47   H35   S    
C11   H8    S    
C24   H2    S    
C40   H25   S    
C8    C53   S    
C5    C28   A    
C48   H32   S    
C6    C27   A    
C20   C23   S    
C18   C41   S    
O7    Zn2   S    
C49   C50   S    
O8    Zn1   S    
C37   H22   S    
C54   H47   S    
C51   H44   S    
C12   C14   A    
C33   H19   S    
C21   C23   S    
C1    C26   S    
C22   C24   S    
C53   H50   S    
C39   H24   S    
C38   H23   S    
C50   H38   S    
C12   N1    A    
C25   C30   A    
C7    C9    A    
C32   H11   S    
C3    C26   A    
C20   C22   S    
C43   C44   A    
C3    C5    A    
C31   H14   S    
C17   C22   S    
C3    H4    S    
C28   C49   S    
C51   H45   S    
C28   C30   A    
C19   C24   S    
C39   C40   A    
C34   H18   S    
C11   C13   A    
C19   C31   S    
C48   H31   S    
C5    C6    A    
O1    Zn1   S    
C17   C19   S    
C27   C47   S    
C2    C25   S    
C18   C20   S    
C15   O7    A    
C37   C38   A    
C42   C43   A    
C8    C13   A    
O6    Zn2   S    
C26   C29   A    
C8    C10   A    
C45   C46   A    
C51   C52   S    
C33   C34   S    
C47   C48   S    
C13   C14   A    
C53   H49   S    
N1    Zn1   S    
C52   H43   S    
N2    Zn2   S    
C32   H13   S    
