data_mof_unit_21419.cif
_audit_creation_date              2012-10-26T19:23:04-0400
_audit_creation_method            fapswitch 2.2
_symmetry_space_group_name_H-M    P1
_symmetry_Int_Tables_number       1
_space_group_crystal_system       triclinic
_cell_length_a                    17.219733
_cell_length_b                    12.965374
_cell_length_c                    11.669125
_cell_angle_alpha                 100.152503
_cell_angle_beta                  89.020647
_cell_angle_gamma                 90.384565
_cell_volume                      2564.06651279

loop_
_atom_site_label
_atom_site_type_symbol
_atom_type_description
_atom_site_fract_x
_atom_site_fract_y
_atom_site_fract_z
_atom_type_partial_charge
Br1   Br    Br    0.407021 0.817900 0.756274 -0.534335
Br2   Br    Br    0.592881 0.181997 0.243488 -0.515914
C1    C     C_R   0.501802 0.299107 0.477962 0.567133
C2    C     C_R   0.524104 0.861605 0.445426 -0.157449
C3    C     C_R   0.481912 0.030763 0.548790 0.005682
C4    C     C_R   0.518417 0.969203 0.451284 0.005964
C5    C     C_R   0.410179 0.430999 0.037337 -0.051344
C6    C     C_R   0.588118 0.573303 0.963714 -0.050858
C7    C     C_R   0.422683 0.431603 0.156464 0.069409
C8    C     C_R   0.576413 0.570521 0.843965 0.067754
C9    C     C_R   0.538943 0.528794 0.150804 0.052480
C10   C     C_R   0.460576 0.472335 0.849634 0.049025
C11   C     C_R   0.532394 0.525874 0.029069 -0.005091
C12   C     C_R   0.498272 0.700883 0.522027 0.567715
C13   C     C_R   0.466847 0.476239 0.971518 -0.006725
C14   C     C_R   0.350782 0.500493 0.516305 0.549219
C15   C     C_R   0.649002 0.499404 0.483650 0.547919
C16   C     C_R   0.266756 0.500498 0.528652 0.021892
C17   C     C_R   0.732530 0.503538 0.471430 0.030703
C18   C     C_R   0.221937 0.438979 0.443606 -0.126224
C19   C     C_R   0.777951 0.425075 0.503972 -0.112059
C20   C     C_R   0.141547 0.440100 0.454707 -0.104682
C21   C     C_R   0.858305 0.430368 0.493622 -0.103004
C22   C     C_R   0.105276 0.506787 0.547860 0.026016
C23   C     C_R   0.493486 0.814403 0.535354 0.016529
C24   C     C_R   0.893633 0.517113 0.456510 0.023301
C25   C     C_R   0.150379 0.565661 0.634911 -0.130035
C26   C     C_R   0.847547 0.593539 0.419934 -0.128430
C27   C     C_R   0.230939 0.561724 0.625922 -0.127576
C28   C     C_R   0.767051 0.586119 0.426263 -0.136660
C29   C     C_2   0.019890 0.515897 0.554122 -0.030824
C30   C     C_2   0.978868 0.529736 0.458682 -0.031209
C31   C     C_R   0.335169 0.389754 0.987445 -0.004805
C32   C     C_R   0.312717 0.285871 0.990154 -0.102597
C33   C     C_R   0.240825 0.248384 0.946193 -0.106507
C34   C     C_R   0.506701 0.185568 0.464647 0.014494
C35   C     C_R   0.190661 0.314449 0.900221 -0.100419
C36   C     C_R   0.212231 0.418186 0.898197 -0.109803
C37   C     C_R   0.284064 0.455946 0.941919 -0.100959
C38   C     C_R   0.659482 0.624246 0.016641 -0.007141
C39   C     C_R   0.713930 0.566269 0.067252 -0.107427
C40   C     C_R   0.780372 0.615097 0.119100 -0.125336
C41   C     C_R   0.793651 0.721501 0.119103 -0.114127
C42   C     C_R   0.740502 0.779273 0.067151 -0.114684
C43   C     C_R   0.673692 0.730909 0.015821 -0.103399
C44   C     C_R   0.017534 0.557132 0.352497 0.028094
C45   C     C_R   0.548877 0.016048 0.361104 -0.092280
C46   C     C_R   0.003558 0.496266 0.242610 -0.111320
C47   C     C_R   0.041525 0.519546 0.143356 -0.115173
C48   C     C_R   0.092660 0.604585 0.152550 -0.094571
C49   C     C_R   0.105780 0.666769 0.261102 -0.107559
C50   C     C_R   0.068278 0.643494 0.360750 -0.086328
C51   C     C_R   0.981579 0.507377 0.667835 0.028546
C52   C     C_R   0.000220 0.423746 0.724317 -0.108059
C53   C     C_R   0.964145 0.414357 0.830128 -0.127061
C54   C     C_R   0.909807 0.488752 0.881089 -0.100333
C55   C     C_R   0.891750 0.573138 0.826690 -0.106490
C56   C     C_R   0.451399 0.983917 0.638936 -0.090582
C57   C     C_R   0.927734 0.582913 0.720767 -0.089532
C58   C     C_R   0.543622 0.123993 0.367114 0.150610
C59   C     C_R   0.456537 0.875964 0.632858 0.152671
C60   C     C_R   0.476211 0.138357 0.554646 -0.156326
Cu1   Cu    Cu3+1 0.505800 0.507690 0.615350 0.975538
Cu2   Cu    Cu3+1 0.494200 0.492310 0.384650 0.980921
H1    H     H_    0.249136 0.389504 0.369446 0.114882
H2    H     H_    0.107537 0.390806 0.389279 0.118405
H3    H     H_    0.552525 0.814336 0.370601 0.121388
H4    H     H_    0.447821 0.185611 0.629503 0.123715
H5    H     H_    0.577629 0.968968 0.286612 0.140892
H6    H     H_    0.422635 0.030995 0.713410 0.142101
H7    H     H_    0.413272 0.430479 0.802227 0.134925
H8    H     H_    0.585937 0.570783 0.198720 0.134325
H9    H     H_    0.350924 0.234014 0.025912 0.124215
H10   H     H_    0.223907 0.168142 0.948049 0.116922
H11   H     H_    0.134986 0.285380 0.866523 0.100162
H12   H     H_    0.751203 0.359830 0.536522 0.123117
H13   H     H_    0.173134 0.469451 0.863270 0.110860
H14   H     H_    0.299709 0.536855 0.940956 0.120228
H15   H     H_    0.704561 0.483579 0.067272 0.127827
H16   H     H_    0.821756 0.570316 0.158826 0.117840
H17   H     H_    0.845239 0.759054 0.159011 0.113192
H18   H     H_    0.750954 0.861647 0.066947 0.125087
H19   H     H_    0.632675 0.776719 0.976623 0.130424
H20   H     H_    0.964521 0.429606 0.234208 0.109085
H21   H     H_    0.031770 0.471192 0.059423 0.111376
H22   H     H_    0.122092 0.622260 0.075565 0.112156
H23   H     H_    0.618525 0.607181 0.793978 0.135653
H24   H     H_    0.145205 0.732863 0.268106 0.114974
H25   H     H_    0.078995 0.692350 0.444307 0.114526
H26   H     H_    0.041938 0.365095 0.685649 0.108370
H27   H     H_    0.978278 0.349263 0.872600 0.099227
H28   H     H_    0.881987 0.480958 0.962896 0.113274
H29   H     H_    0.849879 0.630975 0.866546 0.127893
H30   H     H_    0.913587 0.649066 0.679951 0.112406
H31   H     H_    0.379919 0.396369 0.206738 0.130430
H32   H     H_    0.731748 0.646279 0.399457 0.112504
H33   H     H_    0.265199 0.608831 0.692872 0.153889
H34   H     H_    0.123239 0.616218 0.708266 0.117185
H35   H     H_    0.873830 0.660062 0.389384 0.115222
H36   H     H_    0.893034 0.368483 0.517756 0.119714
N1    N     N_R   0.514530 0.519260 0.788680 -0.234549
N2    N     N_R   0.485470 0.480740 0.211320 -0.233739
O1    O     O_R   0.504120 0.354440 0.581590 -0.516782
O2    O     O_R   0.495880 0.645560 0.418410 -0.517667
O3    O     O_R   0.494320 0.341440 0.386760 -0.455268
O4    O     O_R   0.505680 0.658560 0.613240 -0.455913
O5    O     O_R   0.391870 0.507230 0.608700 -0.501996
O6    O     O_R   0.608130 0.492770 0.391300 -0.493904
O7    O     O_R   0.382070 0.494240 0.413880 -0.517120
O8    O     O_R   0.617930 0.505760 0.586120 -0.517832

loop_
_geom_bond_atom_site_label_1
_geom_bond_atom_site_label_2
_ccdc_geom_bond_type
C53   C54   A    
C33   H10   S    
C24   C30   S    
C6    C11   A    
C25   C27   A    
C39   C40   A    
C22   C25   A    
Cu1   N1    S    
C15   O8    A    
C2    C23   A    
C51   C57   A    
Cu2   O3    S    
C25   H34   S    
C51   C52   A    
C1    O3    A    
Cu2   N2    S    
C19   H12   S    
C31   C37   A    
C3    C56   A    
C17   C19   A    
C52   H26   S    
C42   H18   S    
C3    C4    A    
Br2   C58   S    
C55   C57   A    
C44   C50   A    
C54   C55   A    
C5    C7    A    
C32   C33   A    
C21   C24   A    
C20   H2    S    
C28   H32   S    
C14   O5    A    
C45   C58   A    
C45   H5    S    
C7    N2    A    
C53   H27   S    
C57   H30   S    
C7    H31   S    
C56   C59   A    
C5    C13   A    
C21   H36   S    
C35   H11   S    
C55   H29   S    
C5    C31   S    
C50   H25   S    
C43   H19   S    
C34   C60   A    
C14   O7    A    
Cu2   O6    S    
C38   C43   A    
C44   C46   A    
C8    H23   S    
C4    C45   A    
C49   C50   A    
C37   H14   S    
C47   H21   S    
C18   H1    S    
Cu1   O1    S    
C15   O6    A    
C9    H8    S    
C56   H6    S    
C46   H20   S    
C41   C42   A    
C35   C36   A    
C12   O2    A    
C29   C30   D    
C10   C13   A    
C54   H28   S    
C48   C49   A    
C16   C27   A    
C23   C59   A    
C29   C51   S    
Cu1   O4    S    
C26   H35   S    
C2    C4    A    
C46   C47   A    
C10   H7    S    
C18   C20   A    
C11   C13   A    
C41   H17   S    
C20   C22   A    
C40   C41   A    
Cu1   O5    S    
C42   C43   A    
C1    O1    A    
Cu2   O2    S    
C52   C53   A    
C38   C39   A    
C33   C35   A    
C30   C44   S    
C8    N1    A    
C34   C58   A    
Br1   C59   S    
C49   H24   S    
C39   H15   S    
C2    H3    S    
C36   H13   S    
C27   H33   S    
C24   C26   A    
C60   H4    S    
C14   C16   S    
Cu1   O8    S    
C19   C21   A    
C22   C29   S    
C10   N1    A    
C9    C11   A    
Cu2   O7    S    
C36   C37   A    
C1    C34   S    
C26   C28   A    
C15   C17   S    
C31   C32   A    
C3    C60   A    
C9    N2    A    
C16   C18   A    
C12   C23   S    
C48   H22   S    
C32   H9    S    
Cu1   Cu2   S    
C12   O4    A    
C6    C8    A    
C47   C48   A    
C40   H16   S    
C6    C38   S    
C17   C28   A    
