data_mof_unit_16573.cif
_audit_creation_date              2012-10-26T18:34:24-0400
_audit_creation_method            fapswitch 2.2
_symmetry_space_group_name_H-M    P1
_symmetry_Int_Tables_number       1
_space_group_crystal_system       triclinic
_cell_length_a                    10.895799
_cell_length_b                    9.660357
_cell_length_c                    9.074446
_cell_angle_alpha                 89.865935
_cell_angle_beta                  95.322494
_cell_angle_gamma                 89.244345
_cell_volume                      950.944684626

loop_
_atom_site_label
_atom_site_type_symbol
_atom_type_description
_atom_site_fract_x
_atom_site_fract_y
_atom_site_fract_z
_atom_type_partial_charge
C1    C     C_R   0.263358 0.501096 0.511644 0.543717
C2    C     C_R   0.060067 0.628633 0.504262 -0.013325
C3    C     C_R   0.870947 0.496710 0.475819 0.008767
C4    C     C_R   0.129029 0.503296 0.524076 0.008750
C5    C     C_R   0.424021 0.075386 0.397637 0.124856
C6    C     C_R   0.575984 0.924610 0.602360 0.124860
C7    C     C_R   0.574473 0.073122 0.603850 0.116300
C8    C     C_R   0.425549 0.926874 0.396129 0.116231
C9    C     C_3   0.130896 0.251348 0.612321 -0.372171
C10   C     C_3   0.869058 0.748624 0.387515 -0.372182
C11   C     C_3   0.883478 0.231590 0.457710 -0.375023
C12   C     C_R   0.736633 0.498905 0.488321 0.543726
C13   C     C_3   0.116503 0.768436 0.542050 -0.375004
C14   C     C_3   0.334201 0.148708 0.284320 -0.338276
C15   C     C_3   0.665825 0.851289 0.715659 -0.338278
C16   C     C_3   0.649032 0.145741 0.730227 -0.344925
C17   C     C_3   0.351118 0.854231 0.269667 -0.344952
C18   C     C_R   0.499368 0.500112 0.220951 0.543758
C19   C     C_R   0.500632 0.499888 0.779048 0.543765
C20   C     C_1   0.499775 0.500142 0.065609 -0.073961
C21   C     C_1   0.500225 0.499858 0.934391 -0.073941
C22   C     C_R   0.066818 0.376836 0.537020 -0.011031
C23   C     C_R   0.933153 0.623162 0.462845 -0.011020
C24   C     C_R   0.939911 0.371377 0.495589 -0.013321
Cu1   Cu    Cu3+1 0.500000 0.640660 0.500000 0.888679
Cu2   Cu    Cu3+1 0.500000 0.359340 0.500000 0.888703
H1    H     H_    0.205385 0.283101 0.696874 0.154024
H2    H     H_    0.185943 0.760019 0.639362 0.158112
H3    H     H_    0.157917 0.811530 0.445441 0.139485
H4    H     H_    0.046643 0.843952 0.575486 0.107965
H5    H     H_    0.328768 0.260507 0.290029 0.204707
H6    H     H_    0.356921 0.122692 0.170753 0.100654
H7    H     H_    0.238665 0.116960 0.298900 0.075182
H8    H     H_    0.671215 0.739488 0.709993 0.204712
H9    H     H_    0.761359 0.882982 0.701001 0.075227
H10   H     H_    0.643164 0.877363 0.829233 0.100596
H11   H     H_    0.674375 0.251242 0.705444 0.198564
H12   H     H_    0.065975 0.191103 0.673881 0.109512
H13   H     H_    0.597078 0.145380 0.829849 0.125329
H14   H     H_    0.740382 0.097125 0.759594 0.063678
H15   H     H_    0.325546 0.748838 0.294575 0.198423
H16   H     H_    0.259903 0.902976 0.239884 0.063673
H17   H     H_    0.403309 0.854300 0.170253 0.125590
H18   H     H_    0.168844 0.182534 0.529717 0.146120
H19   H     H_    0.794554 0.716844 0.302990 0.153994
H20   H     H_    0.831112 0.817453 0.470109 0.146135
H21   H     H_    0.933974 0.808852 0.325932 0.109531
H22   H     H_    0.814015 0.240062 0.360425 0.158090
H23   H     H_    0.953354 0.156120 0.424210 0.107983
H24   H     H_    0.842081 0.188434 0.554299 0.139533
N1    N     N_R   0.500000 0.852070 0.500000 -0.226421
N2    N     N_R   0.500000 0.147930 0.500000 -0.226422
O1    O     O_R   0.319640 0.618740 0.499990 -0.519205
O2    O     O_R   0.680360 0.381260 0.500010 -0.519233
O3    O     O_R   0.680360 0.618740 0.500010 -0.517256
O4    O     O_R   0.319640 0.381260 0.499990 -0.517255
O5    O     O_R   0.500000 0.618760 0.288390 -0.509798
O6    O     O_R   0.500000 0.381240 0.711610 -0.509781
O7    O     O_R   0.500000 0.618760 0.711610 -0.508076
O8    O     O_R   0.500000 0.381240 0.288390 -0.508074

loop_
_geom_bond_atom_site_label_1
_geom_bond_atom_site_label_2
_ccdc_geom_bond_type
C10   H20   S    
C5    C8    A    
C2    C4    A    
Cu1   N1    S    
C5    N2    A    
C6    C7    A    
C11   H23   S    
Cu2   N2    S    
C10   C23   S    
C4    C22   A    
C16   H11   S    
C18   O5    A    
C3    C23   A    
C8    C17   S    
C14   H5    S    
C1    C4    S    
C10   H19   S    
C17   H17   S    
C11   H22   S    
C13   H2    S    
C11   H24   S    
Cu1   Cu2   S    
Cu2   O6    S    
C8    N1    A    
C3    C24   A    
Cu1   O5    S    
C14   H7    S    
Cu2   O2    S    
C13   H3    S    
C7    C16   S    
C19   C21   S    
C1    O4    A    
C16   H14   S    
C7    N2    A    
C18   C20   S    
C19   O6    A    
C6    N1    A    
C22   C24   A    
C9    C22   S    
C12   O3    A    
C16   H13   S    
C15   H8    S    
C11   C24   S    
C2    C23   A    
C14   H6    S    
C20   C21   T    
C9    H1    S    
Cu2   O8    S    
C18   O8    A    
C10   H21   S    
C15   H9    S    
C2    C13   S    
C1    O1    A    
C17   H16   S    
C15   H10   S    
C9    H18   S    
C9    H12   S    
C3    C12   S    
Cu1   O7    S    
C17   H15   S    
C19   O7    A    
C6    C15   S    
C13   H4    S    
C5    C14   S    
C12   O2    A    
Cu1   O3    S    
Cu1   O1    S    
Cu2   O4    S    
