data_mof_unit_54643.cif
_audit_creation_date              2012-12-10T17:05:16-0500
_audit_creation_method            fapswitch 2.2
_symmetry_space_group_name_H-M    P1
_symmetry_Int_Tables_number       1
_space_group_crystal_system       triclinic
_cell_length_a                    10.027989
_cell_length_b                    10.76565
_cell_length_c                    15.455544
_cell_angle_alpha                 90.122834
_cell_angle_beta                  67.408289
_cell_angle_gamma                 89.933269
_cell_volume                      1540.50512091

loop_
_atom_site_label
_atom_site_type_symbol
_atom_type_description
_atom_site_fract_x
_atom_site_fract_y
_atom_site_fract_z
_atom_type_partial_charge
C1    C     C_R   0.501678 0.737190 0.497737 0.926883
C2    C     C_R   0.740356 0.502795 0.025102 0.138793
C3    C     C_R   0.596216 0.538525 0.081647 0.081425
C4    C     C_R   0.409384 0.500093 0.676127 0.877714
C5    C     C_R   0.839768 0.484701 0.068678 -0.134798
C6    C     C_R   0.793728 0.487531 0.166111 -0.208505
C7    C     C_R   0.552104 0.536070 0.178861 -0.240865
C8    C     C_2   0.605698 0.062802 0.509444 0.026125
C9    C     C_2   0.509853 0.131629 0.489125 -0.473784
C10   C     C_2   0.621271 0.935697 0.476939 0.023746
C11   C     C_2   0.499480 0.868432 0.506420 -0.473339
C12   C     C_R   0.420961 0.541958 0.909962 0.065258
C13   C     C_2   0.106323 0.427266 0.447049 -0.100576
C14   C     C_2   0.953845 0.422238 0.451254 -0.129711
C15   C     C_R   0.499578 0.262613 0.501558 0.933721
C16   C     C_R   0.590674 0.501364 0.323631 0.867963
C17   C     C_R   0.352462 0.518324 0.777243 -0.037546
C18   C     C_R   0.648111 0.508352 0.221348 -0.060896
C19   C     C_R   0.197364 0.634355 0.912204 -0.159039
C20   C     C_R   0.232314 0.594606 0.820450 -0.221227
C21   C     C_R   0.434110 0.477643 0.827408 0.136548
C22   C     C_2   0.141114 0.737987 0.103513 0.391747
C23   C     C_R   0.293847 0.613472 0.957277 0.093092
C24   C     C_2   0.679564 0.103126 0.572179 0.506727
C25   C     C_2   0.763365 0.891688 0.407535 0.517921
C26   C     C_2   0.923196 0.444758 0.861354 0.383871
C27   C     C_3   0.513387 0.354291 0.800438 -0.877164
C28   C     C_R   0.530412 0.536726 0.946438 0.079284
C29   C     C_R   0.496049 0.567864 0.040583 0.071774
C30   C     C_R   0.364951 0.631221 0.089942 -0.308575
C31   C     C_R   0.267623 0.660004 0.048062 -0.019093
C32   C     C_R   0.674993 0.508029 0.889615 -0.305214
C33   C     C_R   0.779501 0.488403 0.927344 -0.036401
H1    H     H_    0.953074 0.467907 0.029020 0.193072
H2    H     H_    0.097858 0.685413 0.944681 0.199479
H3    H     H_    0.166326 0.624610 0.782950 0.154500
H4    H     H_    0.341955 0.669277 0.158962 0.146992
H5    H     H_    0.708160 0.501454 0.814435 0.164166
H6    H     H_    0.094628 0.729633 0.179323 0.074583
H7    H     H_    0.648077 0.187597 0.613342 0.057390
H8    H     H_    0.773035 0.803829 0.371159 0.050348
H9    H     H_    0.962856 0.474147 0.788662 0.063810
H10   H     H_    0.617337 0.364529 0.739666 0.244318
H11   H     H_    0.533718 0.312743 0.859910 0.260269
H12   H     H_    0.447575 0.091608 0.451749 0.180944
H13   H     H_    0.445706 0.286541 0.781301 0.237054
H14   H     H_    0.395666 0.909855 0.548837 0.180533
H15   H     H_    0.184867 0.365233 0.398164 0.170906
H16   H     H_    0.072980 0.552448 0.549064 0.160991
H17   H     H_    0.928683 0.351025 0.410141 0.179662
H18   H     H_    0.877592 0.570342 0.533941 0.174906
H19   H     H_    0.439783 0.549045 0.223008 0.162924
H20   H     H_    0.870938 0.469883 0.198065 0.159309
N1    N     N_2   0.148330 0.498670 0.499030 -0.191369
N2    N     N_2   0.852680 0.498640 0.499000 -0.200161
O1    O     O_R   0.386950 0.680940 0.500010 -0.597723
O2    O     O_2   0.773614 0.038837 0.581390 -0.536982
O3    O     O_2   0.871103 0.956170 0.387591 -0.539981
O4    O     O_2   0.994057 0.369549 0.884778 -0.556393
O5    O     O_R   0.613110 0.680900 0.499990 -0.616474
O6    O     O_R   0.322330 0.500030 0.632270 -0.612334
O7    O     O_R   0.548480 0.499990 0.632240 -0.607631
O8    O     O_R   0.386890 0.319100 0.500010 -0.590766
O9    O     O_R   0.613050 0.319060 0.499990 -0.621460
O10   O     O_R   0.451520 0.500010 0.367760 -0.614404
O11   O     O_R   0.677670 0.499970 0.367730 -0.614843
O12   O     O_2   0.093655 0.817433 0.066787 -0.552969
Zn1   Zn    Zn3+2 0.349000 0.500030 0.500020 0.958014
Zn2   Zn    Zn3+2 0.651000 0.499970 0.499980 0.943461

loop_
_geom_bond_atom_site_label_1
_geom_bond_atom_site_label_2
_ccdc_geom_bond_type
C13   H15   S    
C19   C23   A    
C15   O9    A    
C9    H12   S    
C29   C30   A    
C32   H5    S    
C26   O4    D    
C26   C33   S    
C11   H14   S    
C19   C20   A    
O6    Zn1   S    
C30   C31   A    
O10   Zn1   S    
O1    Zn1   S    
C32   C33   A    
C7    C18   A    
C14   N2    D    
C9    C15   S    
C19   H2    S    
C13   C14   S    
C5    H1    S    
C10   C25   S    
O7    Zn2   S    
C12   C23   A    
C25   O3    D    
N2    Zn2   S    
C12   C21   A    
O5    Zn2   S    
C12   C28   A    
C4    C17   S    
C4    O6    A    
C27   H13   S    
C8    C10   S    
C28   C29   A    
C24   H7    S    
C1    O1    A    
C7    H19   S    
C2    C3    A    
C3    C7    A    
C21   C27   S    
C5    C6    A    
C6    C18   A    
C22   O12   D    
C2    C5    A    
N1    Zn1   S    
C22   C31   S    
C14   H17   S    
C6    H20   S    
H16   N1    S    
O11   Zn2   S    
C4    O7    A    
C28   C32   A    
C17   C20   A    
C16   O11   A    
C26   H9    S    
C16   C18   S    
C13   N1    D    
C10   C11   D    
C1    O5    A    
C25   H8    S    
C3    C29   A    
C27   H10   S    
C15   O8    A    
O8    Zn1   S    
C8    C9    D    
C20   H3    S    
C16   O10   A    
H18   N2    S    
C8    C24   S    
O9    Zn2   S    
C22   H6    S    
C27   H11   S    
C17   C21   A    
C30   H4    S    
C2    C33   A    
C24   O2    D    
C23   C31   A    
C1    C11   S    
