data_mof_unit_22085.cif
_audit_creation_date              2012-12-10T17:48:37-0500
_audit_creation_method            fapswitch 2.2
_symmetry_space_group_name_H-M    P1
_symmetry_Int_Tables_number       1
_space_group_crystal_system       triclinic
_cell_length_a                    15.789444
_cell_length_b                    10.69824
_cell_length_c                    10.013636
_cell_angle_alpha                 87.057085
_cell_angle_beta                  87.497155
_cell_angle_gamma                 96.588981
_cell_volume                      1676.012158

loop_
_atom_site_label
_atom_site_type_symbol
_atom_type_description
_atom_site_fract_x
_atom_site_fract_y
_atom_site_fract_z
_atom_type_partial_charge
C1    C     C_R   0.498641 0.259091 0.505415 0.952841
C2    C     C_R   0.665301 0.065510 0.765180 0.231706
C3    C     C_R   0.695871 0.963156 0.703595 0.440627
C4    C     C_R   0.338513 0.499483 0.502239 0.907982
C5    C     C_R   0.650197 0.906684 0.601810 0.071246
C6    C     C_R   0.572468 0.946962 0.564220 -0.126293
C7    C     C_R   0.552878 0.064559 0.601913 -0.098654
C8    C     C_R   0.494219 0.123260 0.522170 -0.069190
C9    C     C_R   0.436957 0.051197 0.445303 0.475991
C10   C     C_R   0.446400 0.925880 0.431059 -0.296142
C11   C     C_R   0.513827 0.874747 0.488236 -0.046470
C12   C     C_3   0.940191 0.428037 0.613223 0.340836
C13   C     C_R   0.356450 0.384608 0.152303 0.469785
C14   C     C_R   0.277497 0.382330 0.095416 -0.324360
C15   C     C_R   0.274039 0.393527 0.958176 0.118852
C16   C     C_R   0.507220 0.740229 0.496196 0.906629
C17   C     C_R   0.350405 0.396511 0.879857 0.184051
C18   C     C_R   0.428429 0.445343 0.935580 0.004101
C19   C     C_R   0.429939 0.442513 0.079339 0.053554
C20   C     C_R   0.566111 0.558551 0.061208 0.187956
C21   C     C_R   0.566601 0.555629 0.919759 -0.096326
C22   C     C_R   0.661121 0.496141 0.497195 0.885252
C23   C     C_3   0.917831 0.503618 0.482561 -0.071478
C24   C     C_3   0.038000 0.436439 0.618649 -0.526217
C25   C     C_3   0.051433 0.436647 0.362355 0.695304
C26   C     C_3   0.952565 0.442157 0.355213 0.077965
C27   C     C_1   0.750307 0.497092 0.488658 -0.076007
C28   C     C_3   0.083381 0.503571 0.490090 -0.046457
C29   C     C_3   0.963005 0.644482 0.479730 0.362740
C30   C     C_3   0.061906 0.642328 0.481037 0.005605
C31   C     C_1   0.825917 0.500635 0.481970 0.100943
C32   C     C_1   0.174612 0.501099 0.498649 0.143265
C33   C     C_1   0.249563 0.499852 0.504322 -0.134181
C34   C     C_R   0.591494 0.114105 0.717511 0.328670
H1    H     H_    0.058521 0.490697 0.705221 0.259436
H2    H     H_    0.700444 0.209165 0.869322 0.365801
H3    H     H_    0.796467 0.964846 0.811391 0.412285
H4    H     H_    0.305433 0.284020 0.307313 0.360521
H5    H     H_    0.075918 0.454839 0.169308 0.371536
H6    H     H_    0.038310 0.260315 0.435879 0.377112
H7    H     H_    0.922997 0.300529 0.245219 0.380933
H8    H     H_    0.875966 0.722408 0.578529 0.384189
H9    H     H_    0.399427 0.866896 0.379166 0.153704
H10   H     H_    0.058380 0.341276 0.635391 0.229127
H11   H     H_    0.219418 0.351725 0.155517 0.228903
H12   H     H_    0.620599 0.602737 0.859455 0.180283
H13   H     H_    0.940951 0.502896 0.265974 0.158207
H14   H     H_    0.092447 0.688480 0.386317 0.173024
H15   H     H_    0.333434 0.038567 0.345356 0.350540
H16   H     H_    0.562453 0.178700 0.890456 0.351372
I1    I     I_    0.885736 0.231757 0.629286 -0.174554
I2    I     I_    0.887227 0.491594 0.798734 -0.189239
I3    I     I_    0.936715 0.759265 0.302880 -0.182823
I4    I     I_    0.719190 0.808564 0.466868 -0.216625
I5    I     I_    0.670841 0.669756 0.133991 -0.185380
I6    I     I_    0.151148 0.345567 0.887796 -0.282557
I7    I     I_    0.343223 0.230196 0.771753 -0.168635
I8    I     I_    0.123044 0.759440 0.629712 -0.159561
N1    N     N_R   0.499210 0.498800 0.142780 -0.123426
N2    N     N_R   0.499180 0.498720 0.857170 -0.102886
O1    O     O_R   0.500000 0.316780 0.614690 -0.545581
O2    O     O_3   0.548821 0.191746 0.795472 -0.708826
O3    O     O_3   0.710053 0.119316 0.867446 -0.734301
O4    O     O_3   0.770915 0.917376 0.737928 -0.682401
O5    O     O_3   0.363441 0.311695 0.266394 -0.658661
O6    O     O_3   0.093189 0.502586 0.248116 -0.776236
O7    O     O_3   0.072800 0.311752 0.363734 -0.725336
O8    O     O_3   0.907959 0.323115 0.337554 -0.693952
O9    O     O_3   0.935615 0.706361 0.591212 -0.645733
O10   O     O_R   0.499990 0.316750 0.385360 -0.540918
O11   O     O_R   0.377150 0.500020 0.614720 -0.607882
O12   O     O_R   0.377140 0.499990 0.385380 -0.587518
O13   O     O_R   0.500010 0.683250 0.614640 -0.612146
O14   O     O_R   0.500000 0.683220 0.385310 -0.605978
O15   O     O_R   0.622860 0.500010 0.614620 -0.608051
O16   O     O_R   0.622850 0.499980 0.385280 -0.592485
O17   O     O_3   0.367746 0.101926 0.395942 -0.730031
Zn1   Zn    Zn3+2 0.500010 0.500020 0.653130 1.025272
Zn2   Zn    Zn3+2 0.499990 0.499980 0.346870 1.045354

loop_
_geom_bond_atom_site_label_1
_geom_bond_atom_site_label_2
_ccdc_geom_bond_type
C1    C8    S    
C25   O7    S    
O16   Zn2   S    
C22   O16   A    
C12   I1    S    
C7    C8    A    
C13   O5    S    
C3    O4    S    
C25   C28   S    
C12   C23   S    
N2    Zn1   S    
C16   O14   A    
C23   C29   S    
C30   H14   S    
O12   Zn2   S    
C5    C6    A    
C34   O2    S    
C18   C19   A    
C23   C26   S    
C8    C9    A    
H6    O7    S    
O13   Zn1   S    
H7    O8    S    
H2    O3    S    
C9    C10   A    
C2    C34   A    
O10   Zn2   S    
C13   C14   A    
C22   O15   A    
C20   I5    S    
C12   I2    S    
C14   H11   S    
C29   O9    S    
C24   H1    S    
C13   C19   A    
C27   C31   T    
C16   O13   A    
C5    I4    S    
C28   C32   S    
C21   N2    A    
N1    Zn2   S    
C6    C11   A    
C19   N1    A    
C25   C26   S    
H8    O9    S    
C23   C31   S    
C29   C30   S    
C11   C16   S    
H4    O5    S    
O1    Zn1   S    
C17   C18   A    
C9    O17   S    
C20   N1    A    
C26   H13   S    
C18   N2    A    
C22   C27   S    
C24   H10   S    
H5    O6    S    
C4    O12   A    
H3    O4    S    
C2    O3    S    
C21   H12   S    
C15   C17   A    
C4    C33   S    
C10   H9    S    
C25   O6    S    
C24   C28   S    
C3    C5    A    
C1    O1    A    
C6    C7    A    
C12   C24   S    
C1    O10   A    
O14   Zn2   S    
C26   O8    S    
C15   I6    S    
C28   C30   S    
C2    C3    A    
C32   C33   T    
C29   I3    S    
H16   O2    S    
C30   I8    S    
C7    C34   A    
H15   O17   S    
O11   Zn1   S    
O15   Zn1   S    
C10   C11   A    
C20   C21   A    
C14   C15   A    
C4    O11   A    
C17   I7    S    
