data_mof_unit_60379.cif
_audit_creation_date              2012-12-10T17:03:56-0500
_audit_creation_method            fapswitch 2.2
_symmetry_space_group_name_H-M    P1
_symmetry_Int_Tables_number       1
_space_group_crystal_system       triclinic
_cell_length_a                    19.329815
_cell_length_b                    18.786081
_cell_length_c                    18.16099
_cell_angle_alpha                 108.423878
_cell_angle_beta                  109.406712
_cell_angle_gamma                 110.611397
_cell_volume                      5073.53183642

loop_
_atom_site_label
_atom_site_type_symbol
_atom_type_description
_atom_site_fract_x
_atom_site_fract_y
_atom_site_fract_z
_atom_type_partial_charge
C1    C     C_R   0.999488 0.117920 0.622035 0.862515
C2    C     C_R   0.222518 0.276338 0.645471 -0.119000
C3    C     C_R   0.921006 0.080717 0.732981 0.127887
C4    C     C_R   0.116922 0.112601 0.489862 0.838955
C5    C     C_R   0.851861 0.052540 0.747008 -0.180135
C6    C     C_R   0.813765 0.102170 0.759198 -0.172565
C7    C     C_R   0.850653 0.185397 0.768687 0.192800
C8    C     C_R   0.927871 0.219852 0.766610 0.030058
C9    C     C_R   0.952506 0.160894 0.731677 0.002894
C10   C     C_R   0.002769 0.183764 0.692447 -0.026186
C11   C     C_R   0.040806 0.268146 0.704664 -0.111617
C12   C     C_R   0.170393 0.181084 0.405100 0.040703
C13   C     C_R   0.035880 0.332304 0.762061 -0.150408
C14   C     C_R   0.981800 0.309591 0.796346 -0.111451
C15   C     C_R   0.895861 0.729118 0.511168 -0.162851
C16   C     C_R   0.998912 0.880274 0.378706 0.834283
C17   C     C_R   0.908111 0.665900 0.529633 -0.017506
C18   C     C_R   0.849849 0.612639 0.546062 0.116975
C19   C     C_R   0.778706 0.619710 0.538630 -0.177048
C20   C     C_R   0.764856 0.681542 0.517715 0.031342
C21   C     C_R   0.827086 0.740754 0.509886 0.062204
C22   C     C_R   0.816939 0.808356 0.498597 -0.124131
C23   C     C_R   0.312026 0.314760 0.500544 -0.151275
C24   C     C_R   0.744177 0.812923 0.489072 -0.209577
C25   C     C_R   0.680158 0.751398 0.489984 0.142538
C26   C     C_R   0.690330 0.685958 0.504583 -0.145637
C27   C     C_R   0.138832 0.930447 0.344045 -0.166745
C28   C     C_R   0.880980 0.876857 0.498172 0.861538
C29   C     C_R   0.211360 0.953278 0.335482 0.097950
C30   C     C_R   0.224524 0.887847 0.290635 -0.067063
C31   C     C_R   0.164972 0.799802 0.257501 0.196040
C32   C     C_R   0.083697 0.775975 0.251100 0.054665
C33   C     C_R   0.074346 0.842346 0.301766 0.045421
C34   C     C_R   0.310121 0.321249 0.580121 0.016447
C35   C     C_R   0.000950 0.818905 0.310372 -0.027182
C36   C     C_R   0.933621 0.733455 0.262746 -0.186128
C37   C     C_R   0.938068 0.669213 0.205480 -0.169289
C38   C     C_R   0.011497 0.689120 0.197923 -0.064780
C39   C     C_R   0.622495 0.503472 0.620751 0.883156
C40   C     C_R   0.101953 0.115256 0.314117 0.151374
C41   C     C_R   0.383410 0.380166 0.504523 0.894590
C42   C     C_R   0.379481 0.498040 0.378841 0.876569
C43   C     C_R   0.620942 0.620116 0.500997 0.865422
C44   C     C_R   0.881592 0.507215 0.886101 0.848533
C45   C     C_R   0.235447 0.260591 0.570531 0.019247
C46   C     C_R   0.992942 0.379263 0.872700 0.899909
C47   C     C_R   0.118986 0.499015 0.121211 0.921950
C48   C     C_R   0.005164 0.620653 0.125522 0.867317
C49   C     C_R   0.781532 0.665503 0.745766 -0.192019
C50   C     C_R   0.853002 0.745882 0.811915 -0.182356
C51   C     C_R   0.907990 0.755074 0.891140 0.242249
C52   C     C_R   0.103697 0.123675 0.240734 -0.126722
C53   C     C_R   0.893986 0.680628 0.902155 -0.071082
C54   C     C_R   0.827820 0.595546 0.828321 -0.012963
C55   C     C_R   0.766642 0.590034 0.753879 0.083110
C56   C     C_R   0.175300 0.183945 0.487023 -0.123718
C57   C     C_R   0.692157 0.508540 0.687991 -0.135836
C58   C     C_R   0.683258 0.431091 0.687372 0.189077
C59   C     C_R   0.745589 0.435540 0.755555 -0.176893
C60   C     C_R   0.817563 0.515098 0.825025 -0.142444
C61   C     C_R   0.215176 0.432399 0.367147 -0.256508
C62   C     C_R   0.134566 0.396567 0.358681 -0.053349
C63   C     C_R   0.072391 0.407942 0.304566 -0.039572
C64   C     C_R   0.167513 0.195899 0.252406 0.193970
C65   C     C_R   0.094525 0.456725 0.262255 0.178669
C66   C     C_R   0.167948 0.472526 0.252512 0.004460
C67   C     C_R   0.377768 0.385834 0.669528 0.197455
C68   C     C_R   0.230943 0.465175 0.310840 0.087631
C69   C     C_R   0.308499 0.489567 0.310862 -0.098029
C70   C     C_R   0.320012 0.507453 0.246297 -0.189836
C71   C     C_R   0.256726 0.507414 0.183008 0.185464
C72   C     C_R   0.182253 0.495258 0.188174 -0.155710
C73   C     C_R   0.233498 0.258946 0.337369 -0.196130
C74   C     C_R   0.239194 0.251416 0.414473 0.014245
C75   C     C_2   0.274632 0.360849 0.809645 0.423079
C76   C     C_2   0.981558 0.656255 0.531392 0.449856
C77   C     C_2   0.301907 0.911727 0.281532 0.511003
C78   C     C_R   0.363181 0.400889 0.741754 -0.246676
C79   C     C_2   0.936017 0.693197 0.993205 0.490581
C80   C     C_2   0.119905 0.349895 0.409396 0.367405
C81   C     C_2   0.987975 0.377657 0.299479 0.525879
C82   C     C_R   0.285506 0.346944 0.730355 -0.016418
H1    H     H_    0.826719 0.991269 0.747284 0.179984
H2    H     H_    0.738870 0.663120 0.687454 0.145546
H3    H     H_    0.863030 0.802484 0.803305 0.178427
H4    H     H_    0.052843 0.075338 0.172634 0.194330
H5    H     H_    0.737704 0.375065 0.753200 0.204844
H6    H     H_    0.378876 0.521192 0.245002 0.177339
H7    H     H_    0.263811 0.428641 0.413947 0.134539
H8    H     H_    0.278366 0.315132 0.340555 0.169248
H9    H     H_    0.415048 0.451049 0.808883 0.164806
H10   H     H_    0.162799 0.234268 0.638205 0.164326
H11   H     H_    0.076634 0.285042 0.671939 0.135936
H12   H     H_    0.755360 0.075825 0.761491 0.185012
H13   H     H_    0.320238 0.421539 0.872367 0.087918
H14   H     H_    0.991205 0.607005 0.544170 0.101474
H15   H     H_    0.359661 0.974519 0.329418 0.100915
H16   H     H_    0.901289 0.648469 0.010801 0.000103
H17   H     H_    0.173518 0.366437 0.469885 0.080121
H18   H     H_    0.981064 0.374466 0.355384 0.105799
H19   H     H_    0.073838 0.399357 0.779046 0.174092
H20   H     H_    0.736548 0.864577 0.480048 0.191350
H21   H     H_    0.939575 0.767509 0.495864 0.196946
H22   H     H_    0.735042 0.576637 0.550546 0.159528
H23   H     H_    0.877743 0.716451 0.270549 0.147560
H24   H     H_    0.132218 0.982501 0.381839 0.145155
H25   H     H_    0.883024 0.603708 0.165978 0.183324
I1    I     I_    0.987890 0.013066 0.747250 -0.245293
I2    I     I_    0.051327 0.547045 0.273363 -0.257813
I3    I     I_    0.279651 0.518428 0.078627 -0.247688
I4    I     I_    0.162882 0.211971 0.141184 -0.253753
I5    I     I_    0.508782 0.440151 0.715774 -0.312027
I6    I     I_    0.768407 0.236399 0.751376 -0.300355
I7    I     I_    0.862901 0.518779 0.581727 -0.349691
I8    I     I_    0.983366 0.002072 0.258759 -0.259389
I9    I     I_    0.567818 0.759333 0.462846 -0.282931
I10   I     I_    0.301652 0.088243 0.397919 -0.312935
I11   I     I_    0.220203 0.721335 0.270940 -0.219139
I12   I     I_    0.578837 0.302586 0.586540 -0.194810
I13   I     I_    0.004200 0.886468 0.991800 -0.207156
O1    O     O_R   0.051710 0.091600 0.643330 -0.568777
O2    O     O_R   0.856640 0.448280 0.908400 -0.605049
O3    O     O_R   0.051720 0.460120 0.908370 -0.611293
O4    O     O_R   0.948270 0.091620 0.539910 -0.610429
O5    O     O_R   0.948290 0.356670 0.908380 -0.602381
O6    O     O_R   0.143340 0.551720 0.091580 -0.569966
O7    O     O_R   0.039910 0.448270 0.091590 -0.600066
O8    O     O_R   0.051690 0.643330 0.091600 -0.574287
O9    O     O_R   0.948270 0.539880 0.091610 -0.614538
O10   O     O_R   0.143340 0.091610 0.551710 -0.599952
O11   O     O_R   0.039890 0.091630 0.448290 -0.587316
O12   O     O_R   0.591640 0.448340 0.539940 -0.593158
O13   O     O_R   0.051730 0.908380 0.460090 -0.606634
O14   O     O_R   0.948290 0.908400 0.356670 -0.601041
O15   O     O_R   0.960110 0.908370 0.551710 -0.606922
O16   O     O_R   0.856660 0.908390 0.448290 -0.616671
O17   O     O_R   0.591600 0.551770 0.643360 -0.604271
O18   O     O_2   0.216499 0.304084 0.806942 -0.544766
O19   O     O_2   0.032646 0.703374 0.518193 -0.543542
O20   O     O_2   0.301238 0.862023 0.218418 -0.507596
O21   O     O_2   0.008599 0.753125 0.049381 -0.521504
O22   O     O_2   0.049485 0.289946 0.382391 -0.557575
O23   O     O_R   0.408370 0.460150 0.551730 -0.627133
O24   O     O_2   0.924770 0.355217 0.231868 -0.528251
O25   O     O_R   0.408410 0.356720 0.448320 -0.588804
O26   O     O_R   0.408360 0.551760 0.460120 -0.597100
O27   O     O_R   0.408400 0.448330 0.356700 -0.619597
O28   O     O_R   0.591600 0.643380 0.551740 -0.603260
O29   O     O_R   0.591640 0.539950 0.448320 -0.617435
O30   O     O_R   0.960070 0.551730 0.908390 -0.605109
Zn1   Zn    Zn3+2 0.069070 0.999990 0.569050 1.077792
Zn2   Zn    Zn3+2 0.930930 0.000010 0.430950 1.054692
Zn3   Zn    Zn3+2 0.499980 0.569110 0.569080 1.028852
Zn4   Zn    Zn3+2 0.500030 0.430990 0.430980 1.057479
Zn5   Zn    Zn3+2 0.069050 0.569070 0.999980 1.106772
Zn6   Zn    Zn3+2 0.930930 0.430930 0.000000 1.072610

loop_
_geom_bond_atom_site_label_1
_geom_bond_atom_site_label_2
_ccdc_geom_bond_type
C66   C68   A    
C63   C65   A    
C12   C74   A    
C27   C29   A    
C28   O15   A    
C73   C74   A    
C79   H16   S    
C35   C36   A    
O13   Zn1   S    
C77   O20   D    
C16   O14   A    
C18   I7    S    
C39   O17   A    
C79   O21   D    
C75   H13   S    
C7    C8    A    
C14   C46   S    
C54   C60   A    
C53   C54   A    
C27   C33   A    
C37   C38   A    
C63   C81   S    
C49   H2    S    
C62   C80   S    
C36   C37   A    
C53   C79   S    
C73   H8    S    
C41   O23   A    
C16   C35   S    
C30   C31   A    
C5    H1    S    
O23   Zn3   S    
C40   I8    S    
C39   O12   A    
C42   O27   A    
C39   C57   S    
C71   I3    S    
C18   C19   A    
O27   Zn4   S    
C43   O28   A    
C46   O5    A    
C50   H3    S    
C30   C77   S    
C81   O24   D    
C66   C72   A    
C19   C20   A    
C45   C56   A    
C8    C9    A    
C6    H12   S    
C17   C76   S    
O12   Zn4   S    
C64   C73   A    
C77   H15   S    
C70   C71   A    
C32   C38   A    
C29   C30   A    
C9    C10   A    
C38   C48   S    
C43   O29   A    
O5    Zn6   S    
O6    Zn5   S    
C11   H11   S    
O4    Zn2   S    
C70   H6    S    
C59   C60   A    
C22   C28   S    
C21   C22   A    
C4    C56   S    
O11   Zn2   S    
C61   C62   A    
C67   C78   A    
C16   O13   A    
O16   Zn2   S    
C61   H7    S    
C26   C43   S    
C51   I13   S    
C4    O11   A    
C1    O1    A    
C2    C45   A    
C24   C25   A    
C52   C64   A    
C25   I9    S    
C68   C69   A    
C64   I4    S    
C4    O10   A    
C27   H24   S    
C50   C51   A    
C25   C26   A    
C40   C52   A    
C29   I10   S    
C42   C69   S    
C44   O30   A    
O1    Zn1   S    
C51   C53   A    
C12   C40   A    
O29   Zn4   S    
C31   I11   S    
C62   C63   A    
C3    C9    A    
C48   O8    A    
C19   H22   S    
C78   C82   A    
C31   C32   A    
C23   C34   A    
O14   Zn2   S    
C17   C18   A    
O17   Zn3   S    
C34   C45   A    
C2    H10   S    
C65   I2    S    
C12   C56   A    
O25   Zn4   S    
C65   C66   A    
C80   O22   D    
O30   Zn5   S    
C55   C57   A    
C80   H17   S    
C78   H9    S    
C22   C24   A    
C48   O9    A    
C2    C82   A    
O28   Zn3   S    
C23   C74   A    
C13   H19   S    
C42   O26   A    
C47   O6    A    
C76   O19   D    
C15   C17   A    
C54   C55   A    
C8    C14   A    
C36   H23   S    
C28   O16   A    
O2    Zn6   S    
C1    C10   S    
C3    C5    A    
C75   O18   D    
C34   C67   A    
O9    Zn6   S    
C75   C82   S    
C37   H25   S    
C6    C7    A    
C81   H18   S    
C3    I1    S    
C23   C41   S    
C32   C33   A    
O8    Zn5   S    
C52   H4    S    
C58   C59   A    
C1    O4    A    
C71   C72   A    
C49   C55   A    
C76   H14   S    
C11   C13   A    
C61   C68   A    
C7    I6    S    
C57   C58   A    
C5    C6    A    
O26   Zn3   S    
C20   C26   A    
C47   O7    A    
C44   C60   S    
O15   Zn1   S    
C44   O2    A    
C58   I12   S    
C33   C35   A    
C24   H20   S    
C69   C70   A    
C46   O3    A    
C59   H5    S    
C47   C72   S    
C10   C11   A    
O7    Zn6   S    
C67   I5    S    
C15   C21   A    
C41   O25   A    
C20   C21   A    
C49   C50   A    
O10   Zn1   S    
C15   H21   S    
C13   C14   A    
O3    Zn5   S    
