data_mof_unit_65051.cif
_audit_creation_date              2012-10-26T17:17:07-0400
_audit_creation_method            fapswitch 2.2
_symmetry_space_group_name_H-M    P1
_symmetry_Int_Tables_number       1
_space_group_crystal_system       triclinic
_cell_length_a                    30.665252
_cell_length_b                    30.828559
_cell_length_c                    24.652287
_cell_angle_alpha                 89.817304
_cell_angle_beta                  128.035216
_cell_angle_gamma                 90.00821
_cell_volume                      18355.9586465

loop_
_atom_site_label
_atom_site_type_symbol
_atom_type_description
_atom_site_fract_x
_atom_site_fract_y
_atom_site_fract_z
_atom_type_partial_charge
Br1   Br    Br    0.942596 0.251640 0.689979 -0.393292
Br2   Br    Br    0.291254 0.231808 0.360964 -0.432069
Br3   Br    Br    0.219464 0.727667 0.645993 -0.446132
Br4   Br    Br    0.781833 0.729315 0.354871 -0.444026
Br5   Br    Br    0.671251 0.135140 0.759541 -0.414157
Br6   Br    Br    0.501000 0.203809 0.431985 -0.495952
Br7   Br    Br    0.031857 0.690820 0.622513 -0.463963
Br8   Br    Br    0.969853 0.691794 0.379760 -0.466689
Br9   Br    Br    0.168126 0.156154 0.308029 -0.343815
Br10  Br    Br    0.338069 0.655200 0.693351 -0.349389
Br11  Br    Br    0.664879 0.655939 0.307791 -0.337608
Br12  Br    Br    0.761336 0.259225 0.708179 -0.423138
Br13  Br    Br    0.141848 0.343739 0.296898 -0.449901
Br14  Br    Br    0.357427 0.843824 0.703173 -0.451520
Br15  Br    Br    0.643196 0.844178 0.296528 -0.457656
Br16  Br    Br    0.789798 0.152326 0.654403 -0.452198
C1    C     C_R   0.693119 0.190625 0.504662 0.574756
C2    C     C_R   0.534264 0.250208 0.070038 0.347169
C3    C     C_R   0.611578 0.827434 0.633457 -0.071454
C4    C     C_R   0.819233 0.452943 0.417097 -0.114777
C5    C     C_R   0.092870 0.362209 0.588750 -0.120800
C6    C     C_R   0.409518 0.861805 0.413961 -0.122567
C7    C     C_R   0.590366 0.861374 0.585986 -0.124057
C8    C     C_R   0.845635 0.414563 0.455367 0.026469
C9    C     C_R   0.109822 0.368628 0.547439 0.028143
C10   C     C_R   0.391507 0.868392 0.454057 0.024214
C11   C     C_R   0.608552 0.868189 0.546088 0.021143
C12   C     C_R   0.812780 0.379967 0.449825 0.024415
C13   C     C_R   0.964098 0.750103 0.930036 0.347685
C14   C     C_R   0.146723 0.338398 0.552051 0.019915
C15   C     C_R   0.354335 0.838269 0.448995 0.020816
C16   C     C_R   0.645576 0.837941 0.551013 0.021248
C17   C     C_R   0.839275 0.343193 0.493289 0.010965
C18   C     C_R   0.159617 0.342259 0.506046 0.009073
C19   C     C_R   0.340549 0.842249 0.494093 0.009026
C20   C     C_R   0.659581 0.842249 0.506134 0.009923
C21   C     C_R   0.897003 0.339961 0.537706 -0.121927
C22   C     C_R   0.138826 0.376866 0.459528 -0.117839
C23   C     C_R   0.360864 0.876839 0.540191 -0.115148
C24   C     C_R   0.034824 0.750114 0.069975 0.347759
C25   C     C_R   0.639760 0.877329 0.460560 -0.125277
C26   C     C_R   0.929059 0.372987 0.540809 -0.131234
C27   C     C_R   0.104584 0.407457 0.456999 -0.132310
C28   C     C_R   0.395295 0.907368 0.543001 -0.129931
C29   C     C_R   0.605529 0.907978 0.457961 -0.132319
C30   C     C_R   0.904020 0.409996 0.499768 0.010022
C31   C     C_R   0.090308 0.403993 0.500818 0.006935
C32   C     C_R   0.410217 0.903861 0.499874 0.001739
C33   C     C_R   0.590189 0.904037 0.500627 0.002364
C34   C     C_R   0.058236 0.439229 0.500056 0.529712
C35   C     C_R   0.718783 0.152244 0.634199 0.149148
C36   C     C_R   0.939413 0.441688 0.500165 0.517664
C37   C     C_R   0.558252 0.939283 0.500019 0.534892
C38   C     C_R   0.441896 0.939217 0.500159 0.515607
C39   C     C_R   0.817504 0.251389 0.632541 0.614138
C40   C     C_R   0.183819 0.250083 0.367500 0.615280
C41   C     C_R   0.316693 0.750333 0.632507 0.616665
C42   C     C_R   0.683407 0.750390 0.367491 0.616817
C43   C     C_R   0.556043 0.062733 0.499448 0.521149
C44   C     C_R   0.440610 0.059267 0.500219 0.510546
C45   C     C_R   0.059576 0.559096 0.499801 0.504671
C46   C     C_R   0.361042 0.203433 0.424405 0.158317
C47   C     C_R   0.940282 0.559032 0.500008 0.492819
C48   C     C_R   0.642283 0.213765 0.254708 -0.112053
C49   C     C_R   0.355244 0.214517 0.745608 -0.125484
C50   C     C_R   0.143699 0.714253 0.254726 -0.122136
C51   C     C_R   0.855892 0.714211 0.745601 -0.122590
C52   C     C_R   0.605652 0.213641 0.182744 -0.099300
C53   C     C_R   0.391306 0.214413 0.817590 -0.102987
C54   C     C_R   0.107228 0.714084 0.182758 -0.101834
C55   C     C_R   0.892115 0.714064 0.817586 -0.102019
C56   C     C_R   0.572718 0.250194 0.146156 0.034688
C57   C     C_R   0.149649 0.699597 0.589071 0.158844
C58   C     C_R   0.425472 0.250304 0.853963 0.035039
C59   C     C_R   0.073204 0.750154 0.146083 0.034826
C60   C     C_R   0.925879 0.750137 0.853924 0.035275
C61   C     C_R   0.576819 0.286735 0.182965 -0.100205
C62   C     C_R   0.423082 0.286188 0.816936 -0.102104
C63   C     C_R   0.076100 0.786268 0.182788 -0.101225
C64   C     C_R   0.922959 0.786236 0.816879 -0.101845
C65   C     C_R   0.612617 0.286515 0.254919 -0.119584
C66   C     C_R   0.387804 0.285943 0.744986 -0.117575
C67   C     C_R   0.111772 0.786090 0.254745 -0.114870
C68   C     C_R   0.851342 0.700502 0.411966 0.158657
C69   C     C_R   0.887549 0.786035 0.744935 -0.115612
C70   C     C_2   0.527833 0.101428 0.367092 0.292251
C71   C     C_2   0.370250 0.038652 0.538582 0.256352
C72   C     C_2   0.115180 0.544075 0.439188 0.257993
C73   C     C_2   0.882070 0.542744 0.556855 0.250208
C74   C     C_2   0.014064 0.249325 0.853195 0.324138
C75   C     C_2   0.082327 0.166944 0.144924 0.319740
C76   C     C_2   0.425615 0.665380 0.853222 0.308596
C77   C     C_2   0.578113 0.666714 0.145312 0.322826
C78   C     C_2   0.667904 0.422458 0.310009 0.257224
C79   C     C_R   0.719127 0.149276 0.691042 -0.013372
C80   C     C_2   0.180298 0.265964 0.698339 0.255048
C81   C     C_2   0.323090 0.765650 0.304757 0.251156
C82   C     C_2   0.675930 0.764178 0.694391 0.250921
C83   C     C_R   0.401187 0.214671 0.416866 -0.035481
C84   C     C_R   0.116416 0.708401 0.608606 -0.026096
C85   C     C_R   0.306606 0.190730 0.494075 0.578066
C86   C     C_R   0.885055 0.709458 0.393155 -0.026350
C87   C     C_R   0.671624 0.136736 0.682375 0.160928
C88   C     C_R   0.446124 0.187575 0.441893 0.148322
C89   C     C_R   0.075304 0.679770 0.592515 0.158045
C90   C     C_R   0.925928 0.680549 0.409068 0.157043
C91   C     C_R   0.625744 0.122315 0.618209 -0.057025
C92   C     C_R   0.448759 0.147377 0.469604 -0.080596
C93   C     C_R   0.068806 0.641325 0.559287 -0.069418
C94   C     C_R   0.931779 0.641726 0.441483 -0.070040
C95   C     C_R   0.626091 0.122340 0.561133 -0.019075
C96   C     C_R   0.193362 0.690794 0.505896 0.581354
C97   C     C_R   0.408841 0.135462 0.478262 -0.030284
C98   C     C_R   0.099010 0.632924 0.534296 -0.013255
C99   C     C_R   0.901137 0.633123 0.465849 -0.012275
C100  C     C_R   0.669243 0.144317 0.567120 0.031223
C101  C     C_R   0.368390 0.166100 0.463426 0.027937
C102  C     C_R   0.137377 0.664160 0.544592 0.041610
C103  C     C_R   0.862915 0.664530 0.455651 0.040582
C104  C     C_R   0.660750 0.156802 0.506024 0.020660
C105  C     C_R   0.336888 0.157138 0.486907 0.004789
C106  C     C_R   0.162293 0.657398 0.511774 0.011262
C107  C     C_R   0.806598 0.690811 0.494022 0.581859
C108  C     C_R   0.837413 0.657390 0.487711 0.011176
C109  C     C_R   0.614644 0.142187 0.442349 -0.080878
C110  C     C_R   0.338739 0.115600 0.511654 -0.092887
C111  C     C_R   0.153488 0.618502 0.477160 -0.091990
C112  C     C_R   0.845140 0.617882 0.520876 -0.092131
C113  C     C_R   0.683787 0.250029 0.367434 0.520604
C114  C     C_R   0.316041 0.250034 0.632593 0.524108
C115  C     C_R   0.183833 0.750057 0.367417 0.525377
C116  C     C_R   0.816067 0.750011 0.632586 0.525999
C117  C     C_R   0.576966 0.113794 0.437372 0.017453
C118  C     C_R   0.645837 0.250104 0.291437 0.019269
C119  C     C_R   0.372398 0.083070 0.516315 -0.008548
C120  C     C_R   0.119887 0.586004 0.472426 -0.004096
C121  C     C_R   0.878566 0.585290 0.525380 -0.012186
C122  C     C_R   0.584806 0.101120 0.498425 -0.032730
C123  C     C_R   0.408070 0.093366 0.500366 -0.011233
C124  C     C_R   0.092111 0.593555 0.500422 -0.005578
C125  C     C_R   0.907381 0.593360 0.498870 -0.007249
C126  C     C_R   0.915410 0.252530 0.743063 0.150328
C127  C     C_R   0.132775 0.209108 0.256133 0.167176
C128  C     C_R   0.369894 0.708855 0.744015 0.169681
C129  C     C_R   0.353467 0.250150 0.708638 0.010749
C130  C     C_R   0.630523 0.709214 0.256208 0.170641
C131  C     C_R   0.953374 0.252319 0.816111 0.016816
C132  C     C_R   0.096882 0.208427 0.183098 0.014865
C133  C     C_R   0.405882 0.707753 0.816840 0.016481
C134  C     C_R   0.593684 0.708387 0.183265 0.014006
C135  C     C_R   0.932974 0.252741 0.854298 -0.054949
C136  C     C_R   0.076999 0.248117 0.146159 -0.056599
C137  C     C_R   0.424423 0.747207 0.854157 -0.048801
C138  C     C_R   0.573760 0.747995 0.146092 -0.057004
C139  C     C_R   0.875944 0.254566 0.819840 -0.083000
C140  C     C_R   0.146017 0.750136 0.291386 0.013051
C141  C     C_R   0.092724 0.287354 0.181955 -0.078642
C142  C     C_R   0.408580 0.786664 0.818274 -0.081644
C143  C     C_R   0.590961 0.787375 0.181630 -0.080029
C144  C     C_R   0.838428 0.255727 0.748238 0.140536
C145  C     C_R   0.126731 0.288145 0.253614 0.130528
C146  C     C_R   0.373989 0.787905 0.746526 0.130748
C147  C     C_R   0.626215 0.788369 0.253362 0.132028
C148  C     C_R   0.857536 0.253453 0.708801 0.033281
C149  C     C_R   0.147040 0.249108 0.291454 0.031581
C150  C     C_R   0.354020 0.749077 0.708607 0.037253
C151  C     C_R   0.853585 0.750073 0.708617 0.013431
C152  C     C_R   0.646140 0.749375 0.291401 0.035210
C153  C     C_R   0.038958 0.249746 0.070084 0.314508
C154  C     C_R   0.970121 0.252133 0.930410 0.314575
C155  C     C_R   0.533648 0.749119 0.070099 0.322748
C156  C     C_R   0.462272 0.748457 0.930376 0.335327
C157  C     C_R   0.754498 0.382808 0.400187 -0.123535
C158  C     C_R   0.170443 0.305663 0.603268 -0.126318
C159  C     C_R   0.331253 0.805537 0.398223 -0.125420
C160  C     C_R   0.668314 0.804775 0.601466 -0.126026
C161  C     C_R   0.808012 0.309390 0.497187 0.531043
C162  C     C_R   0.463603 0.250263 0.930088 0.347350
C163  C     C_R   0.191709 0.309281 0.502381 0.533765
C164  C     C_R   0.308275 0.809289 0.497552 0.531173
C165  C     C_R   0.691759 0.809281 0.502520 0.532254
C166  C     C_R   0.728955 0.420481 0.360817 0.023294
C167  C     C_R   0.154854 0.300752 0.645674 0.023527
C168  C     C_R   0.347853 0.800457 0.356933 0.023456
C169  C     C_R   0.651519 0.799431 0.642544 0.023542
C170  C     C_R   0.761718 0.455806 0.370630 -0.060704
C171  C     C_R   0.115103 0.328728 0.637103 -0.073284
C172  C     C_R   0.387958 0.828280 0.366150 -0.072563
Cu1   Cu    Cu3+1 0.719090 0.280910 0.500010 1.072274
Cu2   Cu    Cu3+1 0.034200 0.500000 0.568440 1.004363
Cu3   Cu    Cu3+1 0.465800 1.000000 0.431560 0.994118
Cu4   Cu    Cu3+1 0.534200 1.000000 0.568440 1.002282
Cu5   Cu    Cu3+1 0.280910 0.280910 0.499990 1.087838
Cu6   Cu    Cu3+1 0.219090 0.780910 0.500010 1.098068
Cu7   Cu    Cu3+1 0.780910 0.780910 0.499990 1.092276
Cu8   Cu    Cu3+1 0.780930 0.219110 0.499990 1.079541
Cu9   Cu    Cu3+1 0.219070 0.219110 0.500010 1.036882
Cu10  Cu    Cu3+1 0.280930 0.719110 0.499990 1.042582
Cu11  Cu    Cu3+1 0.719070 0.719110 0.500010 1.040970
Cu12  Cu    Cu3+1 0.965800 0.500000 0.431560 0.994946
H1    H     H_    0.667284 0.185202 0.281628 0.146043
H2    H     H_    0.148636 0.379935 0.424321 0.185628
H3    H     H_    0.350516 0.879954 0.574838 0.186100
H4    H     H_    0.650351 0.880752 0.426169 0.180799
H5    H     H_    0.728311 0.355642 0.390616 0.114385
H6    H     H_    0.201859 0.284058 0.611582 0.118203
H7    H     H_    0.299547 0.784075 0.389354 0.118074
H8    H     H_    0.699925 0.783183 0.610290 0.118321
H9    H     H_    0.742905 0.485630 0.341847 0.182638
H10   H     H_    0.101450 0.324996 0.668240 0.177656
H11   H     H_    0.402384 0.824404 0.335902 0.172822
H12   H     H_    0.329273 0.186465 0.718895 0.145021
H13   H     H_    0.597030 0.823384 0.663568 0.173303
H14   H     H_    0.842539 0.481349 0.423187 0.133914
H15   H     H_    0.061782 0.382472 0.583664 0.136515
H16   H     H_    0.440935 0.881980 0.419654 0.138128
H17   H     H_    0.559118 0.881718 0.580438 0.137519
H18   H     H_    0.603550 0.185098 0.155731 0.152237
H19   H     H_    0.392057 0.186401 0.844776 0.152793
H20   H     H_    0.106083 0.685894 0.155810 0.153169
H21   H     H_    0.893290 0.685884 0.844806 0.152481
H22   H     H_    0.973695 0.369340 0.574729 0.132048
H23   H     H_    0.169560 0.686062 0.281688 0.146538
H24   H     H_    0.089775 0.434378 0.421243 0.150967
H25   H     H_    0.409699 0.934282 0.578373 0.152425
H26   H     H_    0.591593 0.935344 0.423137 0.156160
H27   H     H_    0.551804 0.315308 0.156164 0.154002
H28   H     H_    0.449066 0.314241 0.843582 0.152462
H29   H     H_    0.050230 0.814462 0.155889 0.152095
H30   H     H_    0.948631 0.814430 0.843510 0.150815
H31   H     H_    0.614685 0.314997 0.282000 0.124602
H32   H     H_    0.387053 0.313957 0.717796 0.146368
H33   H     H_    0.112924 0.814279 0.281708 0.146816
H34   H     H_    0.830229 0.686023 0.718889 0.145565
H35   H     H_    0.886388 0.814216 0.717720 0.145047
H36   H     H_    0.607633 0.153727 0.395885 0.160041
H37   H     H_    0.314028 0.108490 0.528319 0.195382
H38   H     H_    0.172843 0.613534 0.452822 0.189954
H39   H     H_    0.825142 0.612502 0.544346 0.190968
H40   H     H_    0.756802 0.155694 0.742278 0.191172
H41   H     H_    0.396010 0.243591 0.388350 0.186198
H42   H     H_    0.125335 0.735972 0.641101 0.184811
H43   H     H_    0.876651 0.737404 0.361248 0.185047
H44   H     H_    0.589725 0.111982 0.613240 0.165632
H45   H     H_    0.860361 0.255661 0.849103 0.183635
H46   H     H_    0.482407 0.125854 0.484786 0.127573
H47   H     H_    0.039750 0.618365 0.553553 0.152735
H48   H     H_    0.960599 0.618591 0.446970 0.153014
H49   H     H_    0.487838 0.096902 0.355540 0.152525
H50   H     H_    0.395896 0.012783 0.542313 0.117360
H51   H     H_    0.092697 0.516991 0.439225 0.121829
H52   H     H_    0.905016 0.515831 0.557304 0.125616
H53   H     H_    0.039567 0.229772 0.899622 0.121917
H54   H     H_    0.077273 0.165929 0.097336 0.122271
H55   H     H_    0.422779 0.657715 0.893832 0.147442
H56   H     H_    0.077144 0.317727 0.153775 0.184830
H57   H     H_    0.572993 0.665140 0.097704 0.126498
H58   H     H_    0.643142 0.394859 0.303565 0.096543
H59   H     H_    0.211038 0.244549 0.704104 0.107401
H60   H     H_    0.292095 0.744334 0.298512 0.109451
H61   H     H_    0.706815 0.742738 0.700556 0.109051
H62   H     H_    0.423339 0.816951 0.846384 0.183499
H63   H     H_    0.575423 0.817688 0.153277 0.183074
H64   H     H_    0.917455 0.311933 0.570914 0.181871
N1    N     N_R   0.516846 0.288104 0.034142 -0.207847
N2    N     N_R   0.048233 0.277892 0.035737 -0.192781
N3    N     N_R   0.454196 0.722032 0.967541 -0.226716
N4    N     N_R   0.540673 0.776801 0.033104 -0.191199
N5    N     N_R   0.993881 0.223570 0.033348 -0.198966
N6    N     N_R   0.014509 0.278994 0.967162 -0.197064
N7    N     N_R   0.489236 0.722257 0.036026 -0.200007
N8    N     N_R   0.505621 0.776463 0.964493 -0.190189
N9    N     N_R   0.482410 0.288126 0.965554 -0.207965
N10   N     N_R   0.016574 0.787998 0.034057 -0.210286
N11   N     N_R   0.982110 0.787993 0.965473 -0.210623
N12   N     N_R   0.480806 0.212367 0.965986 -0.207196
N13   N     N_R   0.515611 0.212337 0.034573 -0.206088
N14   N     N_R   0.982142 0.712210 0.965952 -0.206241
N15   N     N_R   0.016986 0.712216 0.034542 -0.206170
N16   N     N_R   0.960028 0.224804 0.964786 -0.194646
O1    O     O_R   0.678820 0.231020 0.500020 -0.470622
O2    O     O_R   0.483800 0.045090 0.557810 -0.515599
O3    O     O_R   0.016200 0.545090 0.442190 -0.509781
O4    O     O_R   0.983800 0.545090 0.557810 -0.505513
O5    O     O_R   0.573990 0.045100 0.557780 -0.498744
O6    O     O_R   0.426010 0.045100 0.442220 -0.496033
O7    O     O_R   0.073990 0.545100 0.557780 -0.498095
O8    O     O_R   0.926010 0.545100 0.442220 -0.513796
O9    O     O_R   0.731040 0.178820 0.500000 -0.482150
O10   O     O_R   0.268960 0.178820 0.500000 -0.499907
O11   O     O_R   0.231040 0.678820 0.500000 -0.498424
O12   O     O_R   0.321180 0.231020 0.499980 -0.479936
O13   O     O_R   0.768960 0.678820 0.500000 -0.499080
O14   O     O_R   0.673970 0.276110 0.400150 -0.521688
O15   O     O_R   0.326030 0.276110 0.599850 -0.510762
O16   O     O_R   0.173970 0.776110 0.400150 -0.507648
O17   O     O_R   0.826030 0.776110 0.599850 -0.508222
O18   O     O_R   0.726190 0.223910 0.400130 -0.518007
O19   O     O_R   0.273810 0.223910 0.599870 -0.528882
O20   O     O_R   0.226190 0.723910 0.400130 -0.530023
O21   O     O_R   0.773810 0.723910 0.599870 -0.529915
O22   O     O_R   0.768980 0.321200 0.500000 -0.517233
O23   O     O_R   0.178820 0.731020 0.500020 -0.472632
O24   O     O_R   0.231020 0.321200 0.500000 -0.496144
O25   O     O_R   0.268980 0.821200 0.500000 -0.496934
O26   O     O_R   0.731020 0.821200 0.500000 -0.499787
O27   O     O_R   0.821200 0.269000 0.499980 -0.499397
O28   O     O_R   0.178800 0.269000 0.500020 -0.517018
O29   O     O_R   0.321200 0.769000 0.499980 -0.518267
O30   O     O_R   0.678800 0.769000 0.500020 -0.517760
O31   O     O_R   0.773830 0.276110 0.599860 -0.465206
O32   O     O_R   0.226170 0.276110 0.400140 -0.434638
O33   O     O_R   0.273830 0.776110 0.599860 -0.435609
O34   O     O_R   0.821180 0.731020 0.499980 -0.472179
O35   O     O_R   0.726170 0.776110 0.400140 -0.434513
O36   O     O_R   0.826050 0.223920 0.599850 -0.441946
O37   O     O_R   0.173950 0.223920 0.400150 -0.476284
O38   O     O_R   0.326050 0.723920 0.599850 -0.473620
O39   O     O_R   0.673950 0.723920 0.400150 -0.475047
O40   O     O_R   0.016230 0.454910 0.442200 -0.506959
O41   O     O_R   0.983770 0.454910 0.557800 -0.516331
O42   O     O_R   0.516230 0.954910 0.442200 -0.509247
O43   O     O_R   0.483770 0.954910 0.557800 -0.520738
O44   O     O_2   0.531138 0.097628 0.320428 -0.478670
O45   O     O_R   0.074030 0.454920 0.557790 -0.507120
O46   O     O_2   0.339450 0.030257 0.552857 -0.479590
O47   O     O_2   0.136899 0.539056 0.411545 -0.479231
O48   O     O_2   0.858767 0.536993 0.582388 -0.475665
O49   O     O_2   0.036571 0.269896 0.834310 -0.403724
O50   O     O_2   0.073765 0.133961 0.164525 -0.408187
O51   O     O_2   0.445832 0.638541 0.838218 -0.416868
O52   O     O_2   0.568715 0.634280 0.165061 -0.399170
O53   O     O_2   0.644483 0.454811 0.274759 -0.446841
O54   O     O_2   0.167396 0.260769 0.735921 -0.451276
O55   O     O_2   0.336845 0.760326 0.268115 -0.465364
O56   O     O_R   0.925970 0.454920 0.442210 -0.507535
O57   O     O_2   0.662004 0.758618 0.730846 -0.465262
O58   O     O_R   0.574030 0.954920 0.557790 -0.499570
O59   O     O_R   0.425970 0.954920 0.442210 -0.506156
O60   O     O_R   0.516200 0.045090 0.442190 -0.524364

loop_
_geom_bond_atom_site_label_1
_geom_bond_atom_site_label_2
_ccdc_geom_bond_type
C71   H50   S    
C99   C125  A    
C55   H21   S    
C141  C145  A    
C159  H7    S    
Cu3   O60   S    
C120  C124  A    
Br9   C127  S    
C65   C118  A    
C119  C123  A    
C153  N2    A    
C135  C154  S    
Br15  C147  S    
C12   C157  A    
C94   H48   S    
C92   H46   S    
N10   N11   A    
C21   C26   A    
C133  C137  A    
C121  C125  A    
C71   O46   D    
C130  C134  A    
Cu1   O22   S    
C79   C87   A    
C154  N6    A    
C135  C139  A    
C154  N16   A    
C28   H25   S    
Cu7   O34   S    
C165  O30   A    
C77   C134  S    
C72   O47   D    
C85   O10   A    
C48   C118  A    
Cu3   Cu4   S    
C111  C120  A    
C104  C109  A    
C41   C150  S    
C36   O56   A    
N5    N16   A    
C161  O27   A    
C92   C97   A    
C3    C7    A    
C34   O40   A    
C62   C66   A    
Br4   C68   S    
C52   C56   A    
Cu10  O11   S    
C107  O34   A    
C53   C58   A    
C78   O53   D    
C22   H2    S    
C77   H57   S    
C34   O45   A    
C157  C166  A    
C116  O21   A    
C115  O20   A    
C163  O28   A    
C66   C129  A    
C84   H42   S    
C8    C12   A    
Cu9   O19   S    
C51   C151  A    
Cu10  O20   S    
C136  C141  A    
C69   H35   S    
C64   H30   S    
C35   C100  A    
C8    C30   A    
C160  H8    S    
C22   C27   A    
C39   O36   A    
Cu1   Cu8   S    
C50   C54   A    
C80   H59   S    
C33   C37   S    
C6    C172  A    
Cu6   O25   S    
C4    C170  A    
C46   C83   A    
C76   H55   S    
Cu11  O21   S    
C164  O29   A    
C111  H38   S    
C65   H31   S    
C170  H9    S    
C76   C133  S    
C158  H6    S    
C25   C29   A    
C87   C91   A    
C20   C165  S    
C59   C63   A    
C14   C158  A    
C85   O12   A    
C3    C169  A    
C28   C32   A    
C35   C79   A    
Br5   C87   S    
C73   H52   S    
C68   C86   A    
Br16  C35   S    
C74   O49   D    
C107  C108  S    
Cu12  O56   S    
Cu7   O17   S    
C112  H39   S    
C37   O42   A    
C43   O5    A    
C128  C133  A    
C45   O3    A    
C115  C140  S    
C82   C169  S    
C68   C103  A    
C26   C30   A    
C102  C106  A    
C106  C111  A    
C63   H29   S    
C46   C101  A    
Br1   C126  S    
C1    C104  S    
C66   H32   S    
C67   H33   S    
C24   N15   A    
C142  H62   S    
C40   C149  S    
C97   C123  A    
C98   C124  A    
C42   C152  S    
C79   H40   S    
C70   H49   S    
Cu7   O35   S    
C47   O4    A    
C31   C34   S    
Cu7   Cu11  S    
C139  H45   S    
C127  C132  A    
C14   C18   A    
C17   C161  S    
C69   C151  A    
C77   O52   D    
C40   O37   A    
C43   C122  S    
C100  C104  A    
C3    H13   S    
Cu5   O32   S    
C4    H14   S    
C131  C135  A    
C74   C131  S    
C2    N13   A    
C165  O26   A    
C5    H15   S    
Cu3   O42   S    
C41   O38   A    
Br10  C128  S    
C25   H4    S    
C93   C98   A    
C97   C101  A    
C162  N9    A    
N1    N9    A    
Br6   C88   S    
C58   C62   A    
C80   C167  S    
C107  O13   A    
C5    C9    A    
C57   C102  A    
C91   C95   A    
C126  C131  A    
C132  C136  A    
Cu2   O45   S    
Cu3   O59   S    
C50   H23   S    
C16   C20   A    
Br11  C130  S    
C23   C28   A    
Cu6   O16   S    
C99   C103  A    
C147  C152  A    
C21   H64   S    
C138  C143  A    
C50   C140  A    
C78   H58   S    
C27   C31   A    
C137  C156  S    
C161  O22   A    
C115  O16   A    
C163  O24   A    
Br3   C57   S    
C145  C149  A    
Cu1   O31   S    
C43   O60   A    
C93   H47   S    
C143  H63   S    
Cu11  O13   S    
Cu9   O37   S    
C54   C59   A    
C96   O11   A    
N14   N15   A    
C38   O43   A    
C70   O44   D    
C26   H22   S    
Cu12  O40   S    
C11   C33   A    
C81   H60   S    
C37   O58   A    
C13   N11   A    
C57   C84   A    
C48   H1    S    
C51   H34   S    
C23   H3    S    
C41   O33   A    
C116  C151  S    
C156  N8    A    
C7    H17   S    
C18   C163  S    
Cu2   Cu12  S    
C160  C169  A    
C13   C60   S    
C144  C148  A    
Cu5   O24   S    
C126  C148  A    
C55   C60   A    
Cu6   O23   S    
C166  C170  A    
C39   O31   A    
C127  C149  A    
C49   H12   S    
C89   C93   A    
C40   O32   A    
C146  C150  A    
N3    N7    A    
Cu1   O1    S    
Br7   C89   S    
C95   C100  A    
Cu5   O15   S    
C10   C32   A    
C108  C112  A    
C1    O1    A    
C83   C88   A    
C117  C122  A    
C114  C129  S    
C20   C25   A    
C2    C56   S    
C71   C119  S    
C72   C120  S    
C141  H56   S    
C15   C159  A    
C13   N14   A    
C103  C108  A    
C114  O15   A    
C85   C105  S    
C36   O41   A    
C128  C150  A    
Br14  C146  S    
C19   C23   A    
C64   C69   A    
C167  C171  A    
C70   C117  S    
C29   C33   A    
C47   C125  S    
C155  N4    A    
C45   C124  S    
Br12  C144  S    
C47   O8    A    
C72   H51   S    
C110  C119  A    
C61   H27   S    
C73   C121  S    
C15   C19   A    
C91   H44   S    
Cu6   O33   S    
C48   C52   A    
C88   C92   A    
C81   C168  S    
Cu1   O14   S    
C162  N12   A    
C9    C14   A    
C130  C152  A    
C9    C31   A    
C11   C16   A    
C53   H19   S    
C42   O39   A    
Cu7   O26   S    
Br8   C90   S    
C158  C167  A    
C2    N1    A    
Cu8   O27   S    
C80   O54   D    
C24   C59   S    
C114  O19   A    
C109  H36   S    
C81   O55   D    
C63   C67   A    
C136  C153  S    
C76   O51   D    
C113  O14   A    
C49   C53   A    
C38   O59   A    
C172  H11   S    
Cu2   O4    S    
C51   C55   A    
C29   H26   S    
C17   C21   A    
C113  C118  S    
Cu8   O36   S    
C6    C10   A    
C157  H5    S    
C86   H43   S    
C78   C166  S    
Cu2   O41   S    
C110  H37   S    
C94   C99   A    
C95   C122  A    
C159  C168  A    
C153  N5    A    
C6    H16   S    
Cu10  O29   S    
C155  N7    A    
Cu6   Cu10  S    
Cu8   O9    S    
C32   C38   S    
C16   C160  A    
C84   C89   A    
C39   C148  S    
C156  N3    A    
C82   O57   D    
C30   C36   S    
C113  O18   A    
C137  C142  A    
C96   O23   A    
Cu10  O38   S    
Cu4   O2    S    
C101  C105  A    
Cu8   O18   S    
C4    C8    A    
C58   C162  S    
C138  C155  S    
C61   C65   A    
C10   C15   A    
Cu12  O3    S    
Cu11  O30   S    
Cu5   O12   S    
C75   C132  S    
C5    C171  A    
C62   H28   S    
C116  O17   A    
N4    N8    A    
N2    N6    A    
C67   C140  A    
C54   H20   S    
C168  C172  A    
C83   H41   S    
C52   H18   S    
C112  C121  A    
C96   C106  S    
C56   C61   A    
C171  H10   S    
C24   N10   A    
N12   N13   A    
C98   C102  A    
C74   H53   S    
C7    C11   A    
Cu9   O28   S    
C143  C147  A    
C75   O50   D    
C60   C64   A    
C49   C129  A    
Cu4   O43   S    
C90   C94   A    
C109  C117  A    
C19   C164  S    
C164  O25   A    
C139  C144  A    
C18   C22   A    
Cu4   O5    S    
C12   C17   A    
Br13  C145  S    
C75   H54   S    
Cu12  O8    S    
Cu11  O39   S    
C27   H24   S    
C105  C110  A    
C82   H61   S    
Cu4   O58   S    
C1    O9    A    
Cu5   Cu9   S    
C44   O6    A    
C86   C90   A    
C44   O2    A    
C45   O7    A    
C142  C146  A    
C44   C123  S    
Cu9   O10   S    
C134  C138  A    
C73   O48   D    
Cu2   O7    S    
Cu3   O6    S    
C42   O35   A    
Br2   C46   S    
