data_mof_unit_44380.cif
_audit_creation_date              2012-12-11T15:55:47-0500
_audit_creation_method            fapswitch 2.2
_symmetry_space_group_name_H-M    P1
_symmetry_Int_Tables_number       1
_space_group_crystal_system       triclinic
_cell_length_a                    10.9781
_cell_length_b                    10.963906
_cell_length_c                    18.740166
_cell_angle_alpha                 90.513457
_cell_angle_beta                  90.694221
_cell_angle_gamma                 59.92081
_cell_volume                      1951.70935208

loop_
_atom_site_label
_atom_site_type_symbol
_atom_type_description
_atom_site_fract_x
_atom_site_fract_y
_atom_site_fract_z
_atom_type_partial_charge
C1    C     C_R   0.385548 0.711447 0.389536 0.540770
C2    C     C_R   0.614186 0.181837 0.154482 0.053424
C3    C     C_R   0.349133 0.336032 0.163583 -0.005336
C4    C     C_R   0.488513 0.266298 0.270564 -0.154866
C5    C     C_R   0.482839 0.266239 0.196530 -0.034276
C6    C     C_R   0.015108 0.654923 0.297531 -0.096696
C7    C     C_R   0.903410 0.748689 0.340481 -0.118279
C8    C     C_R   0.712369 0.041924 0.173543 -0.102139
C9    C     C_R   0.817015 0.953348 0.125749 -0.124617
C10   C     C_R   0.227336 0.418118 0.204379 -0.162409
C11   C     C_R   0.232967 0.419871 0.278357 -0.049481
C12   C     C_R   0.387218 0.354290 0.387541 0.521481
C13   C     C_R   0.879204 0.703510 0.405409 -0.091900
C14   C     C_R   0.963646 0.563247 0.426242 -0.058116
C15   C     C_R   0.069004 0.466792 0.381214 -0.049873
C16   C     C_R   0.101523 0.513423 0.318392 0.043401
C17   C     C_R   0.365631 0.340211 0.311865 -0.000083
C18   C     C_R   0.840465 0.345246 0.179184 0.017270
C19   C     C_R   0.855067 0.234110 0.221192 0.025439
C20   C     C_R   0.810771 0.256841 0.290819 0.002492
C21   C     C_R   0.731108 0.504699 0.278066 -0.153105
C22   C     C_R   0.771054 0.482826 0.206899 -0.155012
C23   C     C_R   0.715820 0.414023 0.394941 0.544945
C24   C     C_3   0.984919 0.097741 0.238989 -0.246171
C25   C     C_3   0.935294 0.122263 0.315470 -0.258142
C26   C     C_R   0.754713 0.390707 0.320954 0.015189
C27   C     C_R   0.368538 0.816311 0.169512 0.017690
C28   C     C_R   0.432618 0.861731 0.219501 0.001967
C29   C     C_R   0.439691 0.827328 0.290888 0.007667
C30   C     C_R   0.337114 0.683603 0.263477 -0.165311
C31   C     C_R   0.329612 0.718209 0.191292 -0.152882
C32   C     C_3   0.401874 0.007226 0.236907 -0.258068
C33   C     C_3   0.409607 0.969608 0.315160 -0.263784
C34   C     C_R   0.347998 0.762185 0.606678 0.556233
C35   C     C_R   0.383345 0.745684 0.314541 0.012052
C36   C     C_R   0.299803 0.307142 0.809047 0.022352
C37   C     C_R   0.371577 0.187296 0.765929 0.046173
C38   C     C_R   0.378823 0.197154 0.693405 0.013896
C39   C     C_R   0.224508 0.449218 0.702698 -0.164841
C40   C     C_R   0.217812 0.437689 0.776537 -0.182676
C41   C     C_3   0.519532 0.067861 0.771450 -0.264848
C42   C     C_3   0.526319 0.074676 0.691214 -0.275962
C43   C     C_R   0.316334 0.329599 0.661596 0.014910
C44   C     C_R   0.800242 0.345727 0.838555 0.012535
C45   C     C_R   0.369013 0.350365 0.595256 0.552823
C46   C     C_R   0.777372 0.466833 0.801486 0.033853
C47   C     C_R   0.769049 0.471254 0.728701 0.036083
C48   C     C_R   0.771212 0.251596 0.725838 -0.161054
C49   C     C_R   0.779775 0.246164 0.800975 -0.177993
C50   C     C_3   0.855590 0.547456 0.801048 -0.266622
C51   C     C_3   0.846630 0.549273 0.720713 -0.284482
C52   C     C_R   0.778714 0.359427 0.689020 0.016666
C53   C     C_R   0.312712 0.814635 0.831697 0.009332
C54   C     C_R   0.207980 0.808735 0.790764 0.036177
C55   C     C_R   0.218836 0.798405 0.717476 0.015684
C56   C     C_R   0.756412 0.380366 0.612479 0.551478
C57   C     C_R   0.449810 0.770640 0.724468 -0.155896
C58   C     C_R   0.440399 0.779383 0.798843 -0.158384
C59   C     C_3   0.052860 0.911190 0.785545 -0.123509
C60   C     C_3   0.066341 0.898712 0.704923 -0.256341
C61   C     C_R   0.333830 0.791162 0.682776 0.011362
C62   C     C_R   0.912028 0.315451 0.112011 0.545253
C63   C     C_R   0.327306 0.295253 0.092457 0.535628
C64   C     C_R   0.310095 0.894788 0.103877 0.538445
C65   C     C_R   0.877487 0.312538 0.906226 0.532947
C66   C     C_R   0.294335 0.286548 0.884610 0.542589
C67   C     C_R   0.824725 0.003178 0.058642 -0.064486
C68   C     C_R   0.277033 0.889746 0.899346 0.541433
C69   C     C_R   0.730978 0.143136 0.040312 -0.060782
C70   C     C_R   0.630871 0.233864 0.089123 -0.063500
Cr1   Cr    Cr6+3 0.601740 0.606840 0.505840 0.983359
Cr2   Cr    Cr6+3 0.291500 0.601560 0.495070 1.006442
Cr3   Cr    Cr6+3 0.606780 0.291630 0.499130 0.993726
Cr4   Cr    Cr6+3 0.062440 0.063060 0.008240 0.983433
Cr5   Cr    Cr6+3 0.062950 0.375000 0.998920 0.993339
Cr6   Cr    Cr6+3 0.374550 0.061770 0.992470 1.012631
H1    H     H_    0.590883 0.210201 0.296103 0.141210
H2    H     H_    0.795418 0.777201 0.439688 0.099815
H3    H     H_    0.946944 0.528811 0.477292 0.132515
H4    H     H_    0.131779 0.357953 0.397851 0.093142
H5    H     H_    0.689821 0.608699 0.300744 0.145844
H6    H     H_    0.757451 0.571416 0.175546 0.139589
H7    H     H_    0.082671 0.102131 0.231567 0.136019
H8    H     H_    0.986243 0.004865 0.214223 0.158944
H9    H     H_    0.904905 0.045438 0.334234 0.139745
H10   H     H_    0.005349 0.139392 0.352498 0.148241
H11   H     H_    0.299650 0.614954 0.280159 0.138758
H12   H     H_    0.890300 0.845177 0.140224 0.093659
H13   H     H_    0.281429 0.678729 0.153867 0.125317
H14   H     H_    0.296079 0.090837 0.218894 0.136450
H15   H     H_    0.489160 0.022020 0.220026 0.155469
H16   H     H_    0.500854 0.965801 0.343675 0.144242
H17   H     H_    0.306937 0.029644 0.342851 0.139627
H18   H     H_    0.170150 0.553685 0.679600 0.144062
H19   H     H_    0.156683 0.530451 0.808702 0.119080
H20   H     H_    0.526306 0.969724 0.790510 0.143246
H21   H     H_    0.589818 0.098216 0.799968 0.133061
H22   H     H_    0.606369 0.101211 0.674252 0.158439
H23   H     H_    0.838336 0.857454 0.324582 0.091261
H24   H     H_    0.531943 0.981950 0.663530 0.130900
H25   H     H_    0.766154 0.168731 0.696850 0.124979
H26   H     H_    0.784443 0.158166 0.828805 0.114967
H27   H     H_    0.965795 0.485372 0.820111 0.180640
H28   H     H_    0.793887 0.653978 0.825400 0.120279
H29   H     H_    0.781488 0.656738 0.698467 0.130217
H30   H     H_    0.950149 0.484330 0.694564 0.144615
H31   H     H_    0.545395 0.752740 0.699581 0.132589
H32   H     H_    0.527415 0.772481 0.829851 0.120632
H33   H     H_    0.026711 0.016566 0.806057 0.172438
H34   H     H_    0.903265 0.933558 0.020902 0.102653
H35   H     H_    0.012767 0.846619 0.678762 0.138764
H36   H     H_    0.047108 0.997580 0.678795 0.126868
H37   H     H_    0.733771 0.181377 0.987872 0.114523
H38   H     H_    0.558337 0.341604 0.073438 0.087953
H39   H     H_    0.037212 0.694255 0.249491 0.090511
H40   H     H_    0.705450 0.999208 0.224062 0.081364
H41   H     H_    0.124465 0.474091 0.179042 0.148669
O1    O     O_R   0.748670 0.497520 0.427970 -0.533778
O2    O     O_R   0.300170 0.471020 0.567120 -0.510356
O3    O     O_R   0.491630 0.259030 0.574940 -0.522217
O4    O     O_R   0.718640 0.304340 0.577850 -0.501121
O5    O     O_3   0.500010 0.500010 0.500020 -0.282389
O6    O     O_R   0.186620 0.923750 0.087000 -0.530005
O7    O     O_R   0.957350 0.194160 0.084660 -0.494070
O8    O     O_R   0.935120 0.407280 0.085350 -0.531603
O9    O     O_R   0.203800 0.365060 0.067090 -0.514148
O10   O     O_R   0.417470 0.174910 0.067830 -0.503432
O11   O     O_R   0.375160 0.946380 0.070880 -0.494918
O12   O     O_R   0.476470 0.723930 0.429450 -0.512956
O13   O     O_R   0.160500 0.919670 0.926690 -0.530675
O14   O     O_R   0.933140 0.190380 0.936050 -0.522983
O15   O     O_R   0.909010 0.403210 0.925030 -0.524140
O16   O     O_R   0.179590 0.361290 0.918480 -0.513855
O17   O     O_R   0.391360 0.170840 0.907510 -0.523045
O18   O     O_R   0.350950 0.942600 0.922260 -0.505925
O19   O     O_3   0.166650 0.166610 0.999880 -0.241064
O20   O     O_R   0.264730 0.744140 0.416740 -0.502581
O21   O     O_R   0.309440 0.472410 0.418220 -0.508942
O22   O     O_R   0.501630 0.260530 0.414310 -0.537206
O23   O     O_R   0.727920 0.305730 0.428950 -0.499872
O24   O     O_R   0.738670 0.496020 0.588600 -0.525720
O25   O     O_R   0.467190 0.722540 0.578350 -0.505921
O26   O     O_R   0.254720 0.742640 0.577370 -0.513716
C71   C     C_3   0.962190 0.854232 0.815915 -0.410666
H42   H     H_    0.988942 0.751484 0.791635 0.129439
H43   H     H_    0.976525 0.842251 0.874655 0.154072
H44   H     H_    0.849706 0.928123 0.803744 0.111853

loop_
_geom_bond_atom_site_label_1
_geom_bond_atom_site_label_2
_ccdc_geom_bond_type
C44   C49   A    
Cr2   O26   S    
Cr4   O7    S    
C21   C26   A    
C50   H28   S    
C41   C42   S    
C54   C55   A    
Cr1   O5    S    
C19   C20   A    
C23   O1    A    
C62   O7    A    
Cr6   O19   S    
C53   C54   A    
C70   H38   S    
C69   H37   S    
C7    H23   S    
C30   C35   A    
C22   H6    S    
C21   C22   A    
C36   C37   A    
C24   H7    S    
C38   C42   S    
C1    O12   A    
C42   H22   S    
C9    H12   S    
C30   C31   A    
C36   C66   S    
C32   H15   S    
C20   C25   S    
C15   C16   A    
C29   C33   S    
C18   C19   A    
C23   C26   S    
C4    H1    S    
C53   C68   S    
C36   C40   A    
C7    C13   A    
C66   O17   A    
C32   H14   S    
C8    C9    A    
C31   H13   S    
Cr4   O19   S    
C12   C17   S    
C58   H32   S    
Cr1   O24   S    
C45   O2    A    
Cr2   O21   S    
Cr4   O6    S    
C59   C60   S    
Cr3   O3    S    
C13   C14   A    
C44   C65   S    
C71   H44   S    
C65   O14   A    
Cr6   O18   S    
C44   C46   A    
C54   C59   S    
Cr4   O14   S    
C34   O26   A    
C27   C31   A    
C23   O23   A    
C28   C32   S    
C24   C25   S    
C71   H43   S    
C10   C11   A    
C33   H16   S    
C49   H26   S    
Cr6   O17   S    
Cr5   O19   S    
C18   C62   S    
C39   C43   A    
Cr3   O22   S    
C64   O11   A    
C34   C61   S    
C33   H17   S    
Cr5   O8    S    
C9    C67   A    
C39   H18   S    
C37   C38   A    
C60   H36   S    
C42   H24   S    
Cr1   O12   S    
C66   O16   A    
C34   O25   A    
C11   C16   S    
C67   H34   S    
C15   H4    S    
C48   C52   A    
C51   H29   S    
C25   H9    S    
C50   C51   S    
C12   O22   A    
C14   H3    S    
C68   O13   A    
C43   C45   S    
C47   C52   A    
Cr1   O25   S    
C56   O24   A    
C45   O3    A    
Cr2   O20   S    
C57   H31   S    
C21   H5    S    
C59   C71   S    
Cr3   O4    S    
Cr4   O13   S    
Cr6   O11   S    
C12   O21   A    
C2    C5    S    
C4    C17   A    
C40   H19   S    
C39   C40   A    
C65   O15   A    
C1    O20   A    
Cr5   O15   S    
C1    C35   S    
C46   C50   S    
C46   C47   A    
C28   C29   A    
Cr1   O1    S    
Cr2   O5    S    
C18   C22   A    
C68   O18   A    
C2    C8    A    
C4    C5    A    
C3    C5    A    
C11   C17   A    
C62   O8    A    
C47   C51   S    
C53   C58   A    
Cr5   O16   S    
C57   C61   A    
C6    C7    A    
Cr3   O23   S    
C3    C63   S    
C64   O6    A    
C29   C35   A    
C8    H40   S    
C10   H41   S    
C71   H42   S    
Cr5   O9    S    
C32   C33   S    
C19   C24   S    
C24   H8    S    
C38   C43   A    
C60   H35   S    
C2    C70   A    
C56   O4    A    
C57   C58   A    
C20   C26   A    
C51   H30   S    
C48   C49   A    
C48   H25   S    
C55   C61   A    
Cr2   O2    S    
C25   H10   S    
C59   H33   S    
C41   H21   S    
C37   C41   S    
C69   C70   A    
C6    H39   S    
C63   O9    A    
C27   C64   S    
C13   H2    S    
C6    C16   A    
C41   H20   S    
C50   H27   S    
Cr3   O5    S    
C27   C28   A    
C3    C10   A    
Cr6   O10   S    
C14   C15   A    
C67   C69   A    
C30   H11   S    
C55   C60   S    
C63   O10   A    
C52   C56   S    
