data_mof_unit_50049.cif
_audit_creation_date              2012-12-11T16:41:39-0500
_audit_creation_method            fapswitch 2.2
_symmetry_space_group_name_H-M    P1
_symmetry_Int_Tables_number       1
_space_group_crystal_system       triclinic
_cell_length_a                    8.48885
_cell_length_b                    17.505149
_cell_length_c                    19.141392
_cell_angle_alpha                 99.255517
_cell_angle_beta                  92.657401
_cell_angle_gamma                 96.127592
_cell_volume                      2785.45730867

loop_
_atom_site_label
_atom_site_type_symbol
_atom_type_description
_atom_site_fract_x
_atom_site_fract_y
_atom_site_fract_z
_atom_type_partial_charge
Ba1   Ba    Ba6+2 0.849550 0.533890 0.465080 1.686993
Ba2   Ba    Ba6+2 0.340280 0.466170 0.534930 1.738420
C1    C     C_3   0.654264 0.812795 0.287705 -0.337214
C2    C     C_R   0.903015 0.429634 0.096293 0.398406
C3    C     C_R   0.827510 0.403269 0.938467 -0.103040
C4    C     C_3   0.089645 0.693553 0.276353 0.269652
C5    C     C_R   0.954035 0.456695 0.972579 0.024304
C6    C     C_R   0.764653 0.407861 0.871354 -0.148758
C7    C     C_R   0.840473 0.456377 0.828674 0.004635
C8    C     C_R   0.985398 0.501698 0.856141 0.049864
C9    C     C_R   0.039028 0.503715 0.929486 0.015524
C10   C     C_R   0.779255 0.458513 0.758717 -0.017632
C11   C     C_R   0.875374 0.495338 0.713607 -0.242537
C12   C     C_3   0.600907 0.731131 0.301314 0.328975
C13   C     C_R   0.025890 0.534648 0.735923 0.060053
C14   C     C_R   0.074637 0.545554 0.811124 -0.037299
C15   C     C_R   0.144951 0.507969 0.075037 -0.011312
C16   C     C_3   0.075563 0.716961 0.203068 -0.239672
C17   C     C_R   0.199945 0.510506 0.148014 -0.010099
C18   C     C_R   0.104404 0.473357 0.195225 -0.152664
C19   C     C_R   0.958977 0.432206 0.166944 -0.030976
C20   C     C_R   0.201248 0.600327 0.845539 -0.051950
C21   C     C_R   0.252608 0.601210 0.916386 -0.075163
C22   C     C_R   0.178642 0.551213 0.958763 -0.007376
C23   C     C_3   0.437906 0.342244 0.316034 0.221561
C24   C     C_R   0.236691 0.550082 0.030203 0.035065
C25   C     C_R   0.385286 0.589657 0.058327 -0.039492
C26   C     C_R   0.352455 0.549080 0.173098 -0.091476
C27   C     C_R   0.440638 0.589482 0.127738 -0.067621
C28   C     C_3   0.180263 0.709973 0.621267 0.239111
C29   C     C_R   0.413899 0.545041 0.242346 -0.047307
C30   C     C_R   0.315002 0.510547 0.288567 0.159099
C31   C     C_R   0.158354 0.478101 0.268660 0.028916
C32   C     C_R   0.396114 0.731527 0.491685 -0.214145
C33   C     C_R   0.552999 0.753675 0.517924 -0.006927
C34   C     C_3   0.373588 0.311652 0.238454 -0.323849
C35   C     C_R   0.621417 0.830646 0.515305 -0.055727
C36   C     C_R   0.530868 0.880436 0.481628 -0.018892
C37   C     C_R   0.377040 0.852220 0.450246 -0.158596
C38   C     C_R   0.309194 0.776868 0.455298 0.025934
C39   C     C_R   0.600447 0.162390 0.467547 -0.101284
C40   C     C_3   0.158597 0.797227 0.635334 -0.271536
C41   C     C_R   0.646656 0.242773 0.479515 0.028516
C42   C     C_R   0.891751 0.223262 0.543142 0.025861
C43   C     C_R   0.845625 0.142269 0.530064 0.044282
C44   C     C_R   0.697551 0.111961 0.493952 0.024578
C45   C     C_3   0.043025 0.294127 0.726817 0.776169
C46   C     C_1   0.640170 0.029919 0.486876 0.050638
C47   C     C_1   0.589530 0.961840 0.482954 0.067308
C48   C     C_R   0.789758 0.272690 0.519070 -0.285388
C49   C     C_3   0.986758 0.262718 0.326850 0.599141
C50   C     C_3   0.038660 0.188343 0.281640 -0.281212
C51   C     C_3   0.600557 0.699037 0.693506 0.251128
C52   C     C_3   0.590888 0.784611 0.726331 0.242130
C53   C     C_2   0.069843 0.820491 0.699947 0.619825
C54   C     C_3   0.755232 0.263179 0.256287 0.303499
C55   C     C_2   0.050307 0.264439 0.401110 0.473398
C56   C     C_3   0.962974 0.243552 0.777476 -0.389294
C57   C     C_2   0.642845 0.651867 0.749335 0.423989
C58   C     C_3   0.572612 0.908230 0.702231 0.094354
C59   C     C_2   0.481045 0.336405 0.184754 0.445849
C60   C     C_3   0.207619 0.358941 0.829629 0.212528
C61   C     C_2   0.634714 0.245188 0.665548 0.481211
C62   C     C_2   0.265711 0.668014 0.816000 0.590431
C63   C     C_3   0.352426 0.575762 0.398813 0.503805
C64   C     C_3   0.647596 0.450960 0.073588 0.172187
C65   C     C_2   0.779883 0.859461 0.551836 0.577671
C66   C     C_2   0.830664 0.356489 0.539650 0.551439
C67   C     C_3   0.482707 0.264334 0.696810 0.313037
C68   C     C_2   0.213740 0.774270 0.193012 0.504969
C69   C     C_3   0.407759 0.193551 0.727016 -0.255808
C70   C     C_R   0.999352 0.463504 0.047257 -0.057831
H1    H     H_    0.621776 0.730667 0.359044 0.030415
H2    H     H_    0.492157 0.786843 0.762605 0.077985
H3    H     H_    0.472129 0.717575 0.285641 -0.021645
H4    H     H_    0.584518 0.855187 0.318446 0.064056
H5    H     H_    0.337530 0.360964 0.346569 0.078194
H6    H     H_    0.530061 0.392985 0.318925 0.068624
H7    H     H_    0.346505 0.247203 0.229198 0.147210
H8    H     H_    0.263212 0.336207 0.226943 0.076323
H9    H     H_    0.635332 0.815427 0.230376 0.144759
H10   H     H_    0.070236 0.663967 0.161894 0.086775
H11   H     H_    0.946143 0.320841 0.702939 -0.085186
H12   H     H_    0.275915 0.832676 0.640802 0.130668
H13   H     H_    0.886789 0.277290 0.813098 0.067643
H14   H     H_    0.886898 0.193123 0.746463 0.153561
H15   H     H_    0.051072 0.218685 0.809181 0.090442
H16   H     H_    0.402356 0.277343 0.654657 0.102576
H17   H     H_    0.369117 0.144145 0.683357 0.116300
H18   H     H_    0.303814 0.206838 0.757009 0.127181
H19   H     H_    0.991776 0.646907 0.279035 0.116658
H20   H     H_    0.494405 0.174930 0.764394 0.108835
H21   H     H_    0.828710 0.497124 0.660564 0.058181
H22   H     H_    0.660491 0.368713 0.853018 0.128657
H23   H     H_    0.094505 0.812271 0.588597 0.051456
H24   H     H_    0.883315 0.402084 0.199609 0.111877
H25   H     H_    0.556810 0.619958 0.144364 0.106538
H26   H     H_    0.774094 0.355871 0.961986 0.158685
H27   H     H_    0.346742 0.646037 0.938815 0.102652
H28   H     H_    0.204801 0.670139 0.282653 -0.039005
H29   H     H_    0.466141 0.619099 0.026912 0.078364
H30   H     H_    0.488883 0.139292 0.438051 0.082149
H31   H     H_    0.309411 0.889238 0.423368 0.096471
H32   H     H_    0.922013 0.103590 0.549695 0.094952
H33   H     H_    0.337478 0.677773 0.501248 -0.057500
H34   H     H_    0.034519 0.190938 0.224104 0.087486
H35   H     H_    0.963842 0.743662 0.196836 0.104190
H36   H     H_    0.302278 0.705819 0.607874 -0.001220
H37   H     H_    0.098393 0.680368 0.576206 0.090416
H38   H     H_    0.951606 0.792603 0.704109 0.029051
H39   H     H_    0.647157 0.220794 0.243307 0.091083
H40   H     H_    0.725649 0.322962 0.257966 0.055031
H41   H     H_    0.832771 0.251877 0.211652 0.020396
H42   H     H_    0.079837 0.318635 0.436430 0.073306
H43   H     H_    0.642918 0.589991 0.733635 0.012251
H44   H     H_    0.695538 0.931024 0.723865 0.067570
H45   H     H_    0.961720 0.135506 0.289988 0.118262
H46   H     H_    0.486643 0.918627 0.743940 0.105968
H47   H     H_    0.542008 0.941391 0.659721 0.087720
H48   H     H_    0.531293 0.396624 0.190592 -0.007362
H49   H     H_    0.274510 0.309522 0.836403 0.053007
H50   H     H_    0.106941 0.360299 0.864269 -0.007998
H51   H     H_    0.288585 0.413008 0.848597 0.096070
H52   H     H_    0.713253 0.291102 0.651010 -0.183275
H53   H     H_    0.355520 0.662317 0.778715 -0.025857
H54   H     H_    0.266301 0.566994 0.437955 0.080669
H55   H     H_    0.340364 0.626580 0.371499 -0.274186
H56   H     H_    0.163800 0.180951 0.296237 0.095564
H57   H     H_    0.454164 0.593116 0.433871 0.081050
H58   H     H_    0.682303 0.490185 0.035329 0.018619
H59   H     H_    0.642185 0.486470 0.126089 0.053950
H60   H     H_    0.526527 0.421729 0.056130 0.085330
H61   H     H_    0.822840 0.832302 0.594725 -0.003867
H62   H     H_    0.796157 0.385652 0.589153 -0.056959
H63   H     H_    0.235614 0.830094 0.228038 0.023214
H64   H     H_    0.485546 0.671820 0.668019 -0.013327
H65   H     H_    0.782191 0.828866 0.304347 0.150872
H66   H     H_    0.704609 0.808176 0.757651 0.079209
O1    O     O_2   0.878040 0.448040 0.325130 -0.459508
O2    O     O_2   0.223643 0.232522 0.550736 -0.455868
O3    O     O_3   0.112861 0.243795 0.675183 -0.640087
O4    O     O_3   0.126800 0.453980 0.414370 -0.464986
O5    O     O_3   0.569440 0.593820 0.536390 -0.504734
O6    O     O_2   0.359400 0.311980 0.465480 -0.471302
O7    O     O_3   0.502184 0.282912 0.345228 -0.629031
O8    O     O_2   0.456349 0.473438 0.757007 -0.459962
O9    O     O_3   0.507304 0.328788 0.752002 -0.641774
O10   O     O_3   0.651020 0.589120 0.368830 -0.451953
O11   O     O_2   0.746856 0.533306 0.245151 -0.513362
O12   O     O_3   0.721230 0.694798 0.646424 -0.638336
O13   O     O_3   0.053600 0.327054 0.298023 -0.721399
O14   O     O_3   0.688015 0.677907 0.261152 -0.603223
O15   O     O_2   0.830300 0.688050 0.534560 -0.465653
O16   O     O_3   0.068750 0.630380 0.404830 -0.513385
O17   O     O_2   0.976816 0.768836 0.454183 -0.460996
O18   O     O_2   0.130506 0.870665 0.748253 -0.550581
O19   O     O_3   0.819704 0.257805 0.324570 -0.688847
O20   O     O_2   0.071854 0.203909 0.422227 -0.618554
O21   O     O_2   0.677220 0.681276 0.811230 -0.602479
O22   O     O_3   0.562833 0.828605 0.672495 -0.699669
O23   O     O_3   0.077609 0.758502 0.328832 -0.607924
O24   O     O_2   0.511262 0.289390 0.134245 -0.543336
O25   O     O_3   0.158306 0.357632 0.757728 -0.624572
O26   O     O_2   0.668946 0.178477 0.654772 -0.644571
O27   O     O_2   0.221931 0.731731 0.835679 -0.527887
O28   O     O_3   0.375463 0.506472 0.355135 -0.700999
O29   O     O_3   0.750806 0.393579 0.077652 -0.631502
O30   O     O_2   0.864858 0.913091 0.534480 -0.593758
O31   O     O_2   0.909509 0.393079 0.502152 -0.540133
O32   O     O_2   0.301993 0.758752 0.145503 -0.571612
O33   O     O_2   0.311660 0.551990 0.674910 -0.489706
O34   O     O_3   0.062910 0.546080 0.585630 -0.467984
O35   O     O_3   0.538690 0.410940 0.631180 -0.495150
O36   O     O_3   0.161813 0.676343 0.682058 -0.650531
O37   O     O_3   0.620260 0.406250 0.463620 -0.443288
O38   O     O_3   0.120960 0.369680 0.595180 -0.450824
P1    P     P_3+3 0.048060 0.426210 0.336320 1.009261
P2    P     P_3+3 0.655920 0.678120 0.556130 0.982328
P3    P     P_3+3 0.110195 0.732925 0.412728 0.960890
P4    P     P_3+3 0.141640 0.573850 0.663690 0.991185
P5    P     P_3+3 0.085943 0.267388 0.590120 0.998854
P6    P     P_3+3 0.622717 0.584580 0.277401 0.960651
P7    P     P_3+3 0.531500 0.309240 0.437671 1.014808
P8    P     P_3+3 0.571994 0.417503 0.723527 0.948025

loop_
_geom_bond_atom_site_label_1
_geom_bond_atom_site_label_2
_ccdc_geom_bond_type
C65   O30   D    
C16   C68   S    
C21   H27   S    
C55   O20   D    
C30   O28   S    
C25   C27   A    
Ba2   O6    S    
C17   C18   A    
C2    C70   A    
C56   H15   S    
C61   H52   S    
C51   C57   S    
C36   C47   S    
C52   H66   S    
C43   C44   A    
C5    C9    A    
C10   C11   A    
C24   C25   A    
C62   O27   D    
C39   C44   A    
C64   O29   S    
C32   C38   A    
C15   C24   A    
C63   H55   S    
C26   C27   A    
C65   H61   S    
C35   C36   A    
C22   C24   A    
C32   C33   A    
Ba2   O35   S    
C36   C37   A    
C40   C53   S    
O13   P1    S    
O4    P1    S    
C13   C14   A    
C9    C22   A    
C39   H30   S    
C58   H47   S    
Ba1   Ba2   S    
C66   O31   D    
O5    P2    S    
C67   C69   S    
C16   H35   S    
Ba1   O4    S    
Ba2   O38   S    
C52   H2    S    
C57   O21   D    
C69   H20   S    
C61   C67   S    
O35   P8    S    
C6    C7    A    
C1    H9    S    
C54   H41   S    
C58   H46   S    
C49   C55   S    
C45   H11   S    
O23   P3    S    
C7    C8    A    
C54   H39   S    
Ba1   O1    S    
Ba2   O33   S    
O12   P2    S    
C45   O25   S    
C50   H45   S    
O34   P4    S    
C33   P2    S    
O6    P7    D    
C49   O13   S    
O16   P3    S    
C59   H48   S    
Ba2   O5    S    
C39   C41   A    
C52   O22   S    
O38   P5    S    
C51   H64   S    
Ba2   P4    S    
C56   H14   S    
C60   H51   S    
O17   P3    D    
C64   H60   S    
C26   C29   A    
C50   H56   S    
C53   O18   D    
C4    C16   S    
C44   C46   S    
C28   H37   S    
C31   P1    S    
C23   H6    S    
C12   H1    S    
C40   H12   S    
C34   H8    S    
C37   C38   A    
C3    C5    A    
O9    P8    S    
C51   C52   S    
C20   C62   S    
C63   O28   S    
C49   O19   S    
C40   H23   S    
C11   H21   S    
C4    H28   S    
C5    C70   A    
C54   O19   S    
O1    P1    D    
C43   H32   S    
Ba2   O37   S    
C38   P3    S    
Ba1   P2    S    
C60   O25   S    
C69   H17   S    
C4    O23   S    
C21   C22   A    
C61   O26   D    
C6    H22   S    
C3    H26   S    
Ba1   O15   S    
C1    H4    S    
C67   H16   S    
C1    C12   S    
C1    H65   S    
C18   C31   A    
C57   H43   S    
C46   C47   T    
C16   H10   S    
C11   C13   A    
C53   H38   S    
C17   C26   A    
C68   H63   S    
Ba2   O4    S    
C23   H5    S    
O33   P4    D    
C58   H44   S    
C54   H40   S    
O14   P6    S    
C34   C59   S    
C56   H13   S    
O36   P4    S    
C60   H50   S    
C42   C43   A    
O37   P7    S    
C64   H59   S    
C42   C48   A    
C59   O24   D    
O7    P7    S    
O15   P2    D    
Ba1   O37   S    
C14   C20   A    
C33   C35   A    
C51   O12   S    
C32   H33   S    
C29   C30   A    
C58   O22   S    
C34   H7    S    
O11   P6    D    
C3    C6    A    
C63   H57   S    
C41   C48   A    
C37   H31   S    
C55   H42   S    
C19   H24   S    
C27   H25   S    
Ba1   O5    S    
C45   O3    S    
Ba1   O34   S    
Ba1   P1    S    
O2    P5    D    
C2    O29   S    
O8    P8    D    
C30   C31   A    
C66   H62   S    
C68   O32   D    
C49   C50   S    
C29   P6    S    
C8    C14   A    
C63   H54   S    
C45   C56   S    
C2    C19   A    
C10   P8    S    
C69   H18   S    
C48   C66   S    
C67   O9    S    
C35   C65   S    
C41   P7    S    
C15   C17   A    
C25   H29   S    
O3    P5    S    
Ba1   O16   S    
C7    C10   A    
C8    C9    A    
C23   C34   S    
C50   H34   S    
C18   C19   A    
C15   C70   A    
O10   P6    S    
C62   H53   S    
C12   O14   S    
C20   C21   A    
C28   C40   S    
Ba1   O10   S    
C23   O7    S    
C13   P4    S    
C28   H36   S    
C42   P5    S    
C28   O36   S    
C60   H49   S    
C4    H19   S    
C12   H3    S    
Ba2   O34   S    
C64   H58   S    
