data_mof_unit_13735.cif
_audit_creation_date              2013-03-05T15:42:38-0500
_audit_creation_method            fapswitch 2.2
_symmetry_space_group_name_H-M    P1
_symmetry_Int_Tables_number       1
_space_group_crystal_system       triclinic
_cell_length_a                    8.582468
_cell_length_b                    15.313048
_cell_length_c                    18.832534
_cell_angle_alpha                 98.414966
_cell_angle_beta                  92.838021
_cell_angle_gamma                 98.866449
_cell_volume                      2412.55355564

loop_
_atom_site_label
_atom_site_type_symbol
_atom_site_description
_atom_site_fract_x
_atom_site_fract_y
_atom_site_fract_z
_atom_type_partial_charge
P1    P     P_3+3 0.032340 0.422550 0.338860 0.525773
O1    O     O_2   0.864880 0.449170 0.328210 -0.269778
O2    O     O_3   0.117570 0.450680 0.415600 -0.429096
O3    O     O_3   0.658480 0.614010 0.372860 -0.363611
O4    O     O_2   0.696334 0.525950 0.245409 -0.323553
O5    O     O_3   0.018754 0.308509 0.295827 -0.620865
O6    O     O_3   0.707023 0.697128 0.251661 -0.483846
H1    H     H_    0.596081 0.794932 0.306924 0.058909
C1    C     C_3   0.658520 0.826328 0.200963 -0.446554
H2    H     H_    0.704940 0.791176 0.152624 0.257263
P2    P     P_3+3 0.682000 0.708060 0.557320 0.525206
P3    P     P_3+3 0.149108 0.775062 0.411695 0.514806
O7    O     O_2   0.856970 0.721200 0.536350 -0.371897
O8    O     O_3   0.083060 0.660780 0.408640 -0.376627
O9    O     O_2   0.048235 0.823096 0.465985 -0.309195
O10   O     O_3   0.673602 0.756412 0.648447 -0.631802
O11   O     O_3   0.088685 0.803193 0.328808 -0.468808
C2    C     C_3   0.211047 0.793891 0.282469 0.392915
H3    H     H_    0.231828 0.723366 0.273645 0.028084
H4    H     H_    0.321712 0.838774 0.305650 0.043334
C3    C     C_3   0.170545 0.822404 0.210021 -0.378621
H5    H     H_    0.123931 0.886401 0.218750 0.251814
C4    C     C_3   0.187927 0.747761 0.642451 0.430843
H6    H     H_    0.062666 0.733896 0.621472 0.138630
C5    C     C_3   0.233339 0.848931 0.676063 0.200684
H7    H     H_    0.359572 0.874181 0.668510 0.152128
Ba1   Ba    Ba6+2 0.852920 0.542430 0.466290 1.653826
C6    C     C_3   0.958911 0.236973 0.332628 0.732544
C7    C     C_3   0.016668 0.150374 0.295308 0.163303
H8    H     H_    0.146479 0.168814 0.295976 0.130903
C8    C     C_3   0.745387 0.717240 0.702033 0.746364
H9    H     H_    0.869775 0.712469 0.691462 -0.051848
C9    C     C_3   0.740757 0.777602 0.776484 -0.060750
H10   H     H_    0.615346 0.771753 0.790478 0.210146
P4    P     P_3+3 0.157370 0.577530 0.661150 0.524159
O12   O     O_2   0.324830 0.550860 0.671840 -0.241348
O13   O     O_3   0.072140 0.549400 0.584410 -0.411558
O14   O     O_3   0.531230 0.386060 0.627150 -0.334152
O15   O     O_3   0.208051 0.692897 0.694854 -0.593069
P5    P     P_3+3 0.042485 0.222784 0.586176 0.513790
O16   O     O_3   0.606300 0.390910 0.463140 -0.369405
O17   O     O_3   0.106650 0.339290 0.591370 -0.355904
O18   O     O_2   0.172981 0.177019 0.549482 -0.308808
O19   O     O_3   0.058508 0.195908 0.673246 -0.556139
Ba2   Ba    Ba6+2 0.336920 0.457650 0.533720 1.671856
P6    P     P_3+3 0.610336 0.600752 0.280464 0.524862
C10   C     C_3   0.602930 0.760045 0.251286 0.435562
H11   H     H_    0.482408 0.729446 0.229094 -0.011913
H12   H     H_    0.557940 0.856963 0.182190 0.182380
O20   O     O_3   0.583420 0.609160 0.536870 -0.350488
C11   C     C_3   0.427487 0.308656 0.301489 0.283177
H13   H     H_    0.306679 0.322126 0.309996 0.015589
H14   H     H_    0.508432 0.372863 0.320108 0.101156
C12   C     C_3   0.442720 0.277308 0.218666 0.516311
P7    P     P_3+3 0.501909 0.278332 0.435494 0.583612
O21   O     O_2   0.332740 0.278830 0.463690 -0.372311
O22   O     O_3   0.456204 0.241027 0.341696 -0.495116
H15   H     H_    0.280004 0.834368 0.181350 0.165480
C13   C     C_3   0.960490 0.240680 0.719505 0.558634
H16   H     H_    0.861565 0.262669 0.689952 0.018111
C14   C     C_3   0.889120 0.176919 0.770229 -0.076729
H17   H     H_    0.984625 0.160554 0.805375 0.110873
H18   H     H_    0.809687 0.211507 0.805326 0.125233
P8    P     P_3+3 0.573833 0.397833 0.721832 0.559145
C15   C     C_3   0.422320 0.232734 0.724646 0.827113
O23   O     O_2   0.450657 0.449423 0.759223 -0.274430
O24   O     O_3   0.552281 0.296604 0.758135 -0.629417
H19   H     H_    0.341894 0.263082 0.691424 0.082079
C16   C     C_3   0.326717 0.193367 0.784210 -0.468388
H20   H     H_    0.227818 0.140217 0.759031 0.230832
H21   H     H_    0.276971 0.247811 0.816250 0.245525
N1    N     N_R   0.163754 0.571321 0.962378 -0.059480
N2    N     N_R   0.212222 0.572131 0.031002 -0.028242
C17   C     C_2   0.292839 0.521279 0.298479 -0.472030
C18   C     C_3   0.392085 0.577595 0.253176 -0.026773
C19   C     C_2   0.343089 0.553969 0.172918 0.248546
C20   C     C_2   0.187173 0.524408 0.152247 -0.153101
C21   C     C_2   0.081826 0.495970 0.210350 -0.241866
C22   C     C_1   0.143784 0.487894 0.276010 0.346764
N3    N     N_R   0.983225 0.475609 0.046615 -0.033163
N4    N     N_R   0.934006 0.475112 0.977805 -0.038132
C23   C     C_R   0.023538 0.522412 0.933716 0.206489
C24   C     C_R   0.125450 0.523226 0.074775 0.218815
C25   C     C_R   0.078597 0.546770 0.804119 -0.182569
C26   C     C_R   0.035081 0.527009 0.728951 0.323006
C27   C     C_R   0.775331 0.455760 0.754433 0.304774
C28   C     C_R   0.819264 0.473710 0.828522 -0.214865
C29   C     C_R   0.973085 0.516209 0.854816 0.050761
C30   C     C_R   0.886860 0.476769 0.705344 -0.392760
H22   H     H_    0.956064 0.476237 0.196665 0.226296
H23   H     H_    0.194868 0.583836 0.822538 0.167069
H24   H     H_    0.733910 0.452188 0.865472 0.171337
H25   H     H_    0.337996 0.521073 0.353356 0.166649
H26   H     H_    0.854742 0.458108 0.648240 0.169460
C31   C     C_R   0.744792 0.230106 0.519014 -0.418642
C32   C     C_R   0.843519 0.172930 0.540336 0.209223
C33   C     C_R   0.789595 0.079486 0.527985 -0.033374
C34   C     C_R   0.639546 0.041515 0.491183 -0.004266
C35   C     C_R   0.554387 0.102858 0.460276 0.260328
C36   C     C_R   0.603417 0.196621 0.477410 0.256914
C37   C     C_R   0.417851 0.904909 0.457356 -0.119814
C38   C     C_R   0.363581 0.813074 0.438700 0.084304
C39   C     C_R   0.602028 0.783460 0.498422 0.345145
C40   C     C_R   0.663945 0.876648 0.508505 -0.203331
C41   C     C_R   0.576240 0.939969 0.483475 0.073159
C42   C     C_R   0.463859 0.752038 0.452703 -0.461554
H27   H     H_    0.329480 0.947148 0.455468 0.214277
H28   H     H_    0.868135 0.037635 0.546279 0.188375
H29   H     H_    0.775611 0.898540 0.539473 0.203575
H30   H     H_    0.417834 0.681130 0.442349 0.162924
H31   H     H_    0.781837 0.301712 0.532758 0.149040
C43   C     C_3   0.224915 0.867256 0.757618 -0.888637
H32   H     H_    0.117613 0.828151 0.773301 0.243608
H33   H     H_    0.328056 0.846578 0.784947 0.248920
H34   H     H_    0.226772 0.939834 0.776189 0.257287
N5    N     N_R   0.133911 0.901391 0.640016 0.260551
O25   O     O_R   0.194890 0.955978 0.597940 -0.319781
O26   O     O_R   0.981196 0.886294 0.642690 -0.394511
N6    N     N_R   0.789604 0.227497 0.327556 0.244251
O27   O     O_R   0.694878 0.151231 0.312114 -0.358711
O28   O     O_R   0.733602 0.300663 0.340982 -0.382943
C44   C     C_3   0.016592 0.258690 0.410970 -0.851505
H35   H     H_    0.942983 0.300743 0.442309 0.214192
H36   H     H_    0.033977 0.199822 0.435467 0.256496
H37   H     H_    0.126713 0.301944 0.411556 0.272399
C45   C     C_3   0.949718 0.122116 0.216441 -0.860059
H38   H     H_    0.017773 0.073191 0.188297 0.224737
H39   H     H_    0.825103 0.088754 0.212452 0.304113
H40   H     H_    0.956435 0.180619 0.187530 0.277705
N7    N     N_R   0.988874 0.072518 0.332960 0.268684
O29   O     O_R   0.877400 0.062101 0.376653 -0.414450
O30   O     O_R   0.072560 0.008993 0.318704 -0.346842
N8    N     N_R   0.657481 0.628358 0.704283 0.184515
O31   O     O_R   0.662020 0.563952 0.651998 -0.394107
O32   O     O_R   0.573837 0.612346 0.758304 -0.423622
C46   C     C_3   0.785348 0.900348 0.238533 -0.700160
H41   H     H_    0.870084 0.872404 0.271249 0.318700
H42   H     H_    0.849372 0.934083 0.197782 0.235293
H43   H     H_    0.729419 0.949253 0.273965 0.300670
C47   C     C_3   0.789870 0.877723 0.775122 -0.644082
H44   H     H_    0.917050 0.896143 0.769607 0.264933
H45   H     H_    0.722660 0.897885 0.730181 0.303521
H46   H     H_    0.762059 0.916734 0.826116 0.232806
C48   C     C_3   0.835723 0.747550 0.837753 -0.945232
H47   H     H_    0.843250 0.796619 0.888228 0.271306
H48   H     H_    0.777478 0.682575 0.850796 0.280020
H49   H     H_    0.956365 0.739216 0.823483 0.237242
C49   C     C_3   0.346863 0.183616 0.191885 -0.820528
H50   H     H_    0.370848 0.134277 0.227094 0.296629
H51   H     H_    0.221157 0.188406 0.187960 0.211174
H52   H     H_    0.373277 0.158080 0.136179 0.256325
C50   C     C_3   0.375793 0.342128 0.175462 -0.966002
H53   H     H_    0.249533 0.344071 0.184769 0.236314
H54   H     H_    0.444624 0.409451 0.192342 0.271307
H55   H     H_    0.385713 0.322277 0.116884 0.300994
N9    N     N_R   0.609035 0.277191 0.202200 0.299349
O33   O     O_R   0.656237 0.204288 0.172729 -0.377796
O34   O     O_R   0.705224 0.352295 0.205820 -0.340426
N10   N     N_R   0.056627 0.320202 0.762603 0.170232
O35   O     O_R   0.161126 0.369814 0.732109 -0.379150
O36   O     O_R   0.053899 0.336180 0.832473 -0.469242
N11   N     N_R   0.799567 0.093634 0.731808 0.277345
O37   O     O_R   0.863231 0.046193 0.681783 -0.340727
O38   O     O_R   0.682357 0.053990 0.763269 -0.417530
N12   N     N_R   0.482811 0.162859 0.676650 0.236290
O39   O     O_R   0.599744 0.186060 0.638306 -0.471002
O40   O     O_R   0.423042 0.078460 0.671867 -0.338340
C51   C     C_3   0.421969 0.152469 0.837548 -0.711389
H56   H     H_    0.539981 0.193914 0.853875 0.276899
H57   H     H_    0.355835 0.147239 0.886687 0.230143
H58   H     H_    0.433995 0.083294 0.814071 0.289950
N13   N     N_R   0.460314 0.557373 0.120747 0.257346
O41   O     O_R   0.470185 0.486310 0.075104 -0.367895
O42   O     O_R   0.542297 0.633286 0.112331 -0.410673
N14   N     N_R   0.426656 0.072055 0.406634 0.236043
O43   O     O_R   0.447182 0.022364 0.346687 -0.381183
O44   O     O_R   0.288712 0.093937 0.417986 -0.336708
C52   C     C_3   0.052233 0.751373 0.161700 -0.818238
H59   H     H_    0.110187 0.693735 0.141958 0.239809
H60   H     H_    0.009082 0.779227 0.114582 0.248707
H61   H     H_    0.950489 0.728130 0.191520 0.319745
C53   C     C_3   0.291784 0.727447 0.581286 -0.857687
H62   H     H_    0.389872 0.696284 0.601715 0.276420
H63   H     H_    0.223658 0.681466 0.535052 0.254838
H64   H     H_    0.340810 0.790773 0.564216 0.181154

loop_
_geom_bond_atom_site_label_1
_geom_bond_atom_site_label_2
_geom_bond_distance
_ccdc_geom_bond_type
C37   H27   1.072447 S    
P7    O21   1.571173 D    
C21   C22   1.351672 D    
N12   O39   1.300679 A    
C2    C3    1.532063 S    
P2    O7    1.562150 D    
P4    O15   1.766523 S    
C31   C32   1.394154 A    
C49   H52   1.111621 S    
C8    N8    1.458418 S    
C43   H33   1.112533 S    
C33   C34   1.428181 A    
N14   O44   1.298463 A    
O3    P6    1.743355 S    
C20   C21   1.523303 S    
C21   H22   1.082521 S    
O10   C8    1.409711 S    
P8    O24   1.771678 S    
C45   H38   1.110272 S    
C34   C41   1.549168 S    
C6    C7    1.569255 S    
P4    O13   1.557314 S    
C49   H51   1.092188 S    
C2    H3    1.111521 S    
N3    C24   1.360600 A    
C12   N9    1.475823 S    
C40   H29   1.076738 S    
C4    O15   1.407170 S    
C20   C24   1.523948 S    
O19   C13   1.418526 S    
C15   N12   1.471753 S    
N5    O25   1.304069 A    
C2    H4    1.111284 S    
C16   H21   1.108799 S    
P1    O1    1.564602 D    
C30   H26   1.081929 S    
C14   H18   1.111590 S    
C53   H62   1.109019 S    
C40   C41   1.432694 A    
O14   Ba2   2.813602 S    
C5    C43   1.527752 S    
C33   H28   1.076367 S    
C13   N10   1.468707 S    
N9    O34   1.299084 A    
P5    O18   1.549151 D    
O5    C6    1.424116 S    
N10   O35   1.296132 A    
Ba2   O21   2.854271 S    
C15   O24   1.418428 S    
P7    C36   1.872088 S    
C10   H11   1.102097 S    
C4    H6    1.104505 S    
C8    C9    1.568236 S    
O1    Ba1   2.792268 S    
C11   O22   1.412909 S    
C25   H23   1.082488 S    
O8    Ba1   2.837116 S    
C1    H2    1.111672 S    
N11   O38   1.306732 A    
C9    C47   1.530445 S    
Ba1   O20   2.965852 S    
N1    N2    1.335617 A    
Ba1   Ba2   4.709097 S    
P5    O17   1.771004 S    
C13   H16   1.113628 S    
N12   O40   1.303290 A    
C3    H5    1.108000 S    
N8    O32   1.304439 A    
C17   H25   1.086260 S    
C19   N13   1.441168 S    
C16   H20   1.114425 S    
P5    C32   1.871711 S    
C48   H49   1.104001 S    
P8    C27   1.848526 S    
P6    C18   1.882826 S    
N13   O42   1.297823 A    
C52   H59   1.105548 S    
O14   P8    1.779516 S    
N6    O28   1.282715 A    
C9    C48   1.544458 S    
C37   C41   1.417600 A    
C9    H10   1.114120 S    
C7    C45   1.540829 S    
C13   C14   1.545171 S    
C17   C18   1.502654 S    
C11   H13   1.102692 S    
C37   C38   1.398306 A    
C1    H12   1.110564 S    
C25   C26   1.422113 A    
C4    C53   1.516706 S    
C48   H48   1.109299 S    
C5    N5    1.465562 S    
C26   C30   1.396415 A    
C31   C36   1.394818 A    
C48   H47   1.114565 S    
C12   C50   1.530695 S    
C45   H40   1.110087 S    
C5    H7    1.116109 S    
C6    N6    1.434849 S    
N4    C23   1.368254 A    
C14   N11   1.453772 S    
P1    O2    1.557312 S    
C53   H64   1.095251 S    
C46   H43   1.110306 S    
P3    O11   1.754031 S    
N7    O30   1.300864 A    
C18   C19   1.523926 S    
O6    P6    1.749920 S    
P3    C38   1.864415 S    
C7    H8    1.105305 S    
P2    O10   1.776349 S    
Ba1   O16   2.881047 S    
C7    N7    1.468873 S    
C50   H55   1.111653 S    
P2    Ba1   3.412756 S    
C15   H19   1.106826 S    
C32   C33   1.415483 A    
N10   O36   1.304755 A    
O11   C2    1.408976 S    
C35   N14   1.426974 S    
O12   Ba2   2.792802 S    
C19   C20   1.362785 D    
C47   H46   1.111226 S    
C46   H42   1.108179 S    
C51   H56   1.112224 S    
P3    O8    1.746046 S    
C1    C10   1.527415 S    
P3    O9    1.549093 D    
C47   H44   1.098478 S    
C17   C22   1.326047 D    
P7    O22   1.779741 S    
N8    O31   1.294270 A    
P1    C22   1.865678 S    
O13   Ba2   2.975875 S    
P4    Ba2   3.384159 S    
C39   C40   1.425379 A    
O3    Ba1   2.814207 S    
N13   O41   1.300786 A    
C12   C49   1.540409 S    
N11   O37   1.298792 A    
C42   H30   1.082234 S    
C6    C44   1.505226 S    
C15   C16   1.559349 S    
P2    O20   1.599928 S    
O16   P7    1.805725 S    
C3    C52   1.523353 S    
C45   H39   1.105823 S    
C27   C28   1.402947 A    
C8    H9    1.107015 S    
C25   C29   1.427007 A    
C50   H54   1.100270 S    
N3    N4    1.341527 A    
C27   C30   1.397895 A    
C52   H60   1.110581 S    
N6    O27   1.301507 A    
C47   H45   1.107884 S    
O6    C10   1.411780 S    
O4    P6    1.542777 D    
C35   C36   1.416831 A    
C11   C12   1.581398 S    
C44   H37   1.065795 S    
O2    Ba1   2.974923 S    
N7    O29   1.298911 A    
H1    C10   1.112970 S    
O2    Ba2   2.820944 S    
C3    H15   1.110739 S    
N14   O43   1.301595 A    
C31   H31   1.082456 S    
P4    C26   1.871355 S    
Ba2   O20   2.880311 S    
Ba1   O13   2.820248 S    
C23   C29   1.512163 S    
C51   H57   1.115642 S    
N5    O26   1.300152 A    
C38   C42   1.407627 A    
C39   C42   1.407414 A    
C43   H32   1.096632 S    
C49   H50   1.110810 S    
C4    C5    1.566881 S    
C14   H17   1.109467 S    
C53   H63   1.113099 S    
C16   C51   1.526478 S    
C52   H61   1.102642 S    
C1    C46   1.509592 S    
P5    O19   1.752053 S    
N9    O33   1.303374 A    
C50   H53   1.110438 S    
C28   C29   1.409849 A    
C34   C35   1.443908 A    
P1    O5    1.798237 S    
P1    Ba1   3.383519 S    
O16   Ba2   2.965032 S    
O7    Ba1   2.853945 S    
P2    C39   1.891629 S    
P4    O12   1.565014 D    
C51   H58   1.108760 S    
C11   H14   1.112057 S    
C44   H35   1.101461 S    
C28   H24   1.082875 S    
C44   H36   1.097308 S    
N2    C24   1.365487 A    
O17   Ba2   2.837897 S    
C43   H34   1.112648 S    
N1    C23   1.356456 A    
C46   H41   1.104692 S    
P8    O23   1.551088 D    
