data_mof_unit_37245.cif
_audit_creation_date              2012-12-10T20:31:01-0500
_audit_creation_method            fapswitch 2.2
_symmetry_space_group_name_H-M    P1
_symmetry_Int_Tables_number       1
_space_group_crystal_system       triclinic
_cell_length_a                    14.940466
_cell_length_b                    10.674001
_cell_length_c                    9.855139
_cell_angle_alpha                 89.410525
_cell_angle_beta                  89.828364
_cell_angle_gamma                 90.255228
_cell_volume                      1571.53780815

loop_
_atom_site_label
_atom_site_type_symbol
_atom_type_description
_atom_site_fract_x
_atom_site_fract_y
_atom_site_fract_z
_atom_type_partial_charge
C1    C     C_R   0.503579 0.259998 0.500709 0.987540
C2    C     C_R   0.907940 0.599303 0.450919 0.059931
C3    C     C_R   0.953549 0.289844 0.623739 0.436082
C4    C     C_R   0.046360 0.290407 0.619829 -0.195894
C5    C     C_R   0.093794 0.389320 0.559582 -0.023578
C6    C     C_R   0.046981 0.492526 0.504350 0.057950
C7    C     C_R   0.094374 0.595176 0.447047 0.149962
C8    C     C_R   0.049241 0.698126 0.393555 -0.191707
C9    C     C_R   0.956843 0.700647 0.395999 -0.087746
C10   C     C_R   0.187424 0.389141 0.555978 0.358237
C11   C     C_R   0.232118 0.493043 0.500382 -0.115187
C12   C     C_R   0.327188 0.498196 0.500130 0.958165
C13   C     C_R   0.186751 0.594228 0.445032 -0.315018
C14   C     C_R   0.523680 0.062338 0.623386 0.176170
C15   C     C_R   0.521608 0.129496 0.501816 -0.215264
C16   C     C_R   0.541591 0.069166 0.379996 -0.160012
C17   C     C_R   0.542701 0.939643 0.376324 0.439567
C18   C     C_R   0.522897 0.871828 0.497271 -0.198401
C19   C     C_R   0.523311 0.934626 0.620699 0.046321
C20   C     C_3   0.462700 0.923770 0.741406 -0.477483
C21   C     C_3   0.463813 0.065981 0.745125 0.232607
C22   C     C_R   0.442361 0.424197 0.072426 0.216394
C23   C     C_R   0.504886 0.740246 0.498874 0.929290
C24   C     C_R   0.562959 0.564625 0.070958 -0.048616
C25   C     C_R   0.562725 0.565120 0.926900 -0.084781
C26   C     C_R   0.442328 0.424242 0.929876 0.236005
C27   C     C_3   0.342621 0.426612 0.924453 -0.520156
C28   C     C_3   0.342749 0.427252 0.078703 0.170397
C29   C     C_R   0.672837 0.500144 0.499863 1.026769
C30   C     C_R   0.814918 0.601985 0.452694 0.271612
C31   C     C_R   0.768264 0.496949 0.500241 -0.254333
C32   C     C_R   0.811045 0.389256 0.549697 0.332881
C33   C     C_R   0.904990 0.388939 0.560848 -0.068045
C34   C     C_R   0.953118 0.493374 0.505589 -0.076432
H1    H     H_    0.395929 0.884343 0.715571 0.181458
H2    H     H_    0.496203 0.877670 0.829170 0.263516
H3    H     H_    0.397782 0.109631 0.724997 0.164480
H4    H     H_    0.612831 0.618487 0.124495 0.216960
H5    H     H_    0.612003 0.620121 0.871672 0.175889
H6    H     H_    0.316457 0.514867 0.879047 0.193452
H7    H     H_    0.314867 0.339472 0.880178 0.280572
H8    H     H_    0.316026 0.514957 0.122911 0.136666
H9    H     H_    0.081054 0.213281 0.668198 0.236847
H10   H     H_    0.223852 0.673035 0.402236 0.161057
H11   H     H_    0.085503 0.777130 0.350026 0.171361
H12   H     H_    0.924587 0.782432 0.353258 0.219579
H13   H     H_    0.550000 0.121501 0.285939 0.229991
N1    N     N_R   0.499390 0.499140 0.142800 -0.152731
N2    N     N_R   0.499390 0.499180 0.857150 -0.120305
O1    O     O_R   0.500010 0.316790 0.614690 -0.579592
O2    O     O_R   0.500000 0.316760 0.385350 -0.603986
O3    O     O_R   0.367850 0.499990 0.614680 -0.618987
O4    O     O_R   0.367840 0.499950 0.385340 -0.613347
O5    O     O_R   0.500000 0.683240 0.614650 -0.634633
O6    O     O_R   0.499990 0.683210 0.385310 -0.576594
O7    O     O_R   0.632160 0.500050 0.614660 -0.601412
O8    O     O_R   0.632150 0.500010 0.385320 -0.597630
Zn1   Zn    Zn3+2 0.500010 0.500020 0.653130 1.020707
Zn2   Zn    Zn3+2 0.499990 0.499980 0.346870 1.040158
Cl1   Cl    Cl    0.755179 0.736616 0.396735 -0.558815
Cl2   Cl    Cl    0.561712 0.872158 0.216094 -0.516443
Cl3   Cl    Cl    0.521044 0.125555 0.889709 -0.481297
Cl4   Cl    Cl    0.743668 0.253860 0.578619 -0.484972
Cl5   Cl    Cl    0.298473 0.286788 0.152864 -0.499329
Cl6   Cl    Cl    0.906607 0.167645 0.723425 -0.445001
Cl7   Cl    Cl    0.249733 0.257954 0.613569 -0.660848

loop_
_geom_bond_atom_site_label_1
_geom_bond_atom_site_label_2
_ccdc_geom_bond_type
C22   N1    A    
C11   C12   S    
C24   C25   A    
C23   O6    A    
C6    C7    A    
C1    C15   S    
C29   O7    A    
O6    Zn2   S    
C11   C13   A    
C1    O1    A    
C27   H7    S    
C24   N1    A    
C24   H4    S    
C19   C20   S    
C7    C13   A    
C27   H6    S    
C2    C30   A    
C32   C33   A    
C2    C34   A    
C17   C18   A    
O4    Zn2   S    
C9    H12   S    
C29   C31   S    
C22   C28   S    
C25   H5    S    
C4    C5    A    
C1    O2    A    
C30   C31   A    
C21   Cl3   S    
C3    Cl6   S    
O3    Zn1   S    
C23   O5    A    
C18   C23   S    
C15   C16   A    
C28   Cl5   S    
C14   C21   S    
C28   H8    S    
C12   O3    A    
C4    H9    S    
C29   O8    A    
C33   C34   A    
C10   Cl7   S    
C26   C27   S    
C5    C6    A    
C31   C32   A    
C25   N2    A    
O8    Zn2   S    
O2    Zn2   S    
C10   C11   A    
C3    C33   A    
C22   C26   A    
C3    C4    A    
O1    Zn1   S    
C6    C34   A    
C5    C10   A    
C21   H3    S    
C20   C21   S    
C16   H13   S    
N1    Zn2   S    
C18   C19   A    
O5    Zn1   S    
C26   N2    A    
C27   C28   S    
C7    C8    A    
C8    H11   S    
C16   C17   A    
C30   Cl1   S    
C17   Cl2   S    
C14   C15   A    
C2    C9    A    
C14   C19   A    
C20   H1    S    
C13   H10   S    
N2    Zn1   S    
C12   O4    A    
C32   Cl4   S    
O7    Zn1   S    
C8    C9    A    
C20   H2    S    
