data_mof_unit_34687.cif
_audit_creation_date              2013-03-05T16:10:41-0500
_audit_creation_method            fapswitch 2.2
_symmetry_space_group_name_H-M    P1
_symmetry_Int_Tables_number       1
_space_group_crystal_system       triclinic
_cell_length_a                    9.83403
_cell_length_b                    10.76767
_cell_length_c                    15.617726
_cell_angle_alpha                 89.957159
_cell_angle_beta                  67.938952
_cell_angle_gamma                 90.979266
_cell_volume                      1532.40392795

loop_
_atom_site_label
_atom_site_type_symbol
_atom_site_description
_atom_site_fract_x
_atom_site_fract_y
_atom_site_fract_z
_atom_type_partial_charge
O1    O     O_R   0.385370 0.683250 0.500010 -0.592060
O2    O     O_R   0.614630 0.316750 0.499990 -0.575209
O3    O     O_R   0.614700 0.683220 0.500000 -0.583430
O4    O     O_R   0.385300 0.316780 0.500000 -0.581282
C1    C     C_R   0.502667 0.740182 0.497802 0.988024
C2    C     C_R   0.494883 0.260008 0.506538 0.995624
O5    O     O_R   0.319830 0.500020 0.632250 -0.647808
O6    O     O_R   0.680170 0.499980 0.367750 -0.639297
O7    O     O_R   0.549160 0.499990 0.632240 -0.596369
O8    O     O_R   0.450840 0.500010 0.367760 -0.597947
C3    C     C_R   0.408528 0.500956 0.675567 0.846085
C4    C     C_R   0.591205 0.501839 0.324340 0.887163
Zn1   Zn    Zn3+2 0.346870 0.500020 0.500000 0.979229
Zn2   Zn    Zn3+2 0.653130 0.499980 0.500000 1.000955
C5    C     C_R   0.351340 0.501146 0.775914 -0.075502
C6    C     C_R   0.645864 0.518261 0.224500 -0.071240
C7    C     C_R   0.167774 0.447623 0.924714 -0.193618
C8    C     C_R   0.827427 0.589757 0.079629 -0.189634
C9    C     C_R   0.211524 0.454214 0.829006 -0.202281
C10   C     C_R   0.787010 0.564868 0.173658 -0.193457
C11   C     C_R   0.445143 0.541849 0.818400 -0.199336
C12   C     C_R   0.545841 0.499776 0.181767 -0.156684
C13   C     C_R   0.412550 0.519211 0.911887 0.101065
C14   C     C_R   0.577942 0.537756 0.090968 0.092983
C15   C     C_R   0.267230 0.480595 0.966473 0.091758
C16   C     C_R   0.724715 0.573222 0.037569 0.103215
C17   C     C_R   0.519125 0.535669 0.952537 -0.104536
C18   C     C_R   0.470812 0.531355 0.050400 -0.133382
C19   C     C_R   0.317170 0.518848 0.103839 0.470028
C20   C     C_R   0.673204 0.547814 0.899361 0.522202
C21   C     C_R   0.220840 0.482049 0.061916 -0.323930
C22   C     C_R   0.770053 0.580540 0.942221 -0.351758
H1    H     H_    0.106606 0.463495 0.104537 0.167657
H2    H     H_    0.884826 0.597886 0.900079 0.160568
H3    H     H_    0.443956 0.451521 0.220031 0.201068
H4    H     H_    0.543077 0.592318 0.776907 0.195733
H5    H     H_    0.865341 0.581374 0.206203 0.156029
H6    H     H_    0.137200 0.423000 0.796680 0.139920
H7    H     H_    0.057564 0.415013 0.965826 0.145618
H8    H     H_    0.938812 0.620734 0.039724 0.142882
C23   C     C_R   0.593996 0.936429 0.537126 0.366806
C24   C     C_R   0.380783 0.060570 0.493514 0.364270
C25   C     C_R   0.592204 0.064587 0.539925 0.194763
C26   C     C_R   0.404077 0.936525 0.470685 0.165988
C27   C     C_R   0.487032 0.127080 0.515826 -0.408146
C28   C     C_R   0.504774 0.872987 0.498341 -0.402933
C29   C     C_R   0.963477 0.429594 0.438328 -0.042188
C30   C     C_R   0.036188 0.569675 0.562092 -0.094181
H9    H     H_    0.937295 0.373573 0.388929 0.151755
H10   H     H_    0.062017 0.625195 0.611873 0.139373
C31   C     C_R   0.107470 0.429783 0.438223 -0.019204
C32   C     C_R   0.892277 0.569421 0.562089 -0.005295
H11   H     H_    0.190336 0.373591 0.388878 0.171164
H12   H     H_    0.808604 0.623800 0.612066 0.164115
N1    N     N_R   0.142780 0.500030 0.500020 -0.100131
N2    N     N_R   0.857220 0.499970 0.499980 -0.094175
O9    O     O_3   0.256583 0.547892 0.196579 -0.640375
C33   C     C_3   0.220245 0.674934 0.204720 0.066209
H13   H     H_    0.167320 0.703947 0.156079 0.121943
H14   H     H_    0.320855 0.733006 0.191546 0.198486
C34   C     C_3   0.111705 0.699358 0.301985 -0.643501
H15   H     H_    0.160510 0.674589 0.353092 0.292391
H16   H     H_    0.083223 0.799137 0.309198 0.242809
H17   H     H_    0.009764 0.643249 0.315909 0.218984
O10   O     O_3   0.732176 0.519958 0.806255 -0.661666
C35   C     C_3   0.795038 0.400632 0.793230 0.081393
H18   H     H_    0.878110 0.391991 0.825322 0.121261
H19   H     H_    0.853908 0.388388 0.717885 0.194887
C36   C     C_3   0.679292 0.296121 0.828032 -0.771000
H20   H     H_    0.589901 0.310299 0.802227 0.299658
H21   H     H_    0.730100 0.205133 0.803367 0.223108
H22   H     H_    0.632128 0.293312 0.904701 0.220375
O11   O     O_3   0.684923 0.874482 0.571753 -0.544681
C37   C     C_3   0.612717 0.859015 0.668584 0.131921
H23   H     H_    0.562900 0.764394 0.682826 0.121481
H24   H     H_    0.523560 0.926747 0.701660 0.117023
C38   C     C_3   0.723757 0.873533 0.714696 -0.781544
H25   H     H_    0.765930 0.970894 0.707173 0.269017
H26   H     H_    0.670434 0.850409 0.789392 0.199484
H27   H     H_    0.817659 0.811095 0.682794 0.243557
O12   O     O_3   0.253397 0.115898 0.495987 -0.547029
C39   C     C_3   0.139280 0.087615 0.582411 0.219276
H28   H     H_    0.173955 0.034688 0.632282 0.063409
H29   H     H_    0.054019 0.029822 0.570171 0.231172
C40   C     C_3   0.068888 0.206336 0.629684 -0.800388
H30   H     H_    0.024475 0.258463 0.585051 0.284427
H31   H     H_    0.977714 0.182248 0.695574 0.189586
H32   H     H_    0.150050 0.265392 0.645353 0.244501
N3    N     N_R   0.691042 0.128821 0.573446 0.246676
O13   O     O_R   0.640092 0.197582 0.646661 -0.444091
O14   O     O_R   0.831496 0.111403 0.534727 -0.378412
N4    N     N_R   0.332726 0.877926 0.415378 0.243830
O15   O     O_R   0.409800 0.813892 0.343323 -0.413394
O16   O     O_R   0.196215 0.899363 0.429729 -0.391807

loop_
_geom_bond_atom_site_label_1
_geom_bond_atom_site_label_2
_geom_bond_distance
_ccdc_geom_bond_type
C15   C21   1.385541 A    
C30   N1    1.365855 A    
Zn2   N2    2.006912 S    
C16   C22   1.386497 A    
C2    C27   1.436383 S    
C36   H22   1.109981 S    
O11   C37   1.416988 S    
C35   H19   1.108300 S    
C8    C16   1.405666 A    
O12   C39   1.422618 S    
C29   H9    1.081654 S    
C11   H4    1.074968 S    
C40   H30   1.108240 S    
C5    C9    1.397356 A    
C12   H3    1.078401 S    
C25   N3    1.434217 S    
C37   H24   1.117883 S    
O1    C1    1.285878 A    
C18   C19   1.429404 A    
C14   C16   1.414611 A    
C36   H20   1.108659 S    
C40   H32   1.109461 S    
C35   C36   1.532316 S    
C33   H14   1.112649 S    
C34   H16   1.110047 S    
C7    H7    1.083564 S    
O4    Zn1   2.015269 S    
C36   H21   1.109330 S    
C8    H8    1.083455 S    
C3    C5    1.452702 S    
C4    C6    1.455426 S    
C26   C28   1.406853 A    
C37   C38   1.523340 S    
O6    Zn2   1.980960 S    
C23   C28   1.408114 A    
C21   H1    1.084155 S    
C13   C17   1.423559 A    
N3    O14   1.300090 A    
C8    C10   1.394145 A    
C26   N4    1.441359 S    
O6    C4    1.292908 A    
C33   C34   1.519278 S    
C30   H10   1.081755 S    
C35   H18   1.112353 S    
C17   C20   1.431955 A    
C23   C25   1.380899 A    
O2    C2    1.286597 A    
C24   O12   1.383806 S    
C24   C26   1.383269 A    
C32   H12   1.078826 S    
C40   H31   1.108464 S    
C37   H23   1.108278 S    
O4    C2    1.284722 A    
C29   C31   1.415384 A    
C33   H13   1.117034 S    
C38   H25   1.110500 S    
C31   H11   1.081602 S    
C24   C27   1.405115 A    
C22   H2    1.084699 S    
C34   H17   1.110239 S    
O5    C3    1.289028 A    
O7    Zn2   1.929913 S    
C9    H6    1.082182 S    
O7    C3    1.291567 A    
O5    Zn1   1.980958 S    
C6    C10   1.398806 A    
N4    O16   1.300136 A    
C38   H26   1.110614 S    
C25   C27   1.407113 A    
O3    Zn2   2.015269 S    
O8    C4    1.288999 A    
C19   O9    1.381817 S    
O10   C35   1.416862 S    
C39   H29   1.108855 S    
C11   C13   1.392545 A    
C12   C14   1.391498 A    
O1    Zn1   2.002606 S    
C38   H27   1.108633 S    
C6    C12   1.392540 A    
C14   C18   1.419539 A    
O3    C1    1.281664 A    
O8    Zn1   1.929916 S    
C39   C40   1.518611 S    
C1    C28   1.429879 S    
C7    C15   1.405560 A    
C19   C21   1.391611 A    
C20   C22   1.395385 A    
C10   H5    1.082998 S    
O9    C33   1.413499 S    
C5    C11   1.389136 A    
N4    O15   1.301764 A    
C7    C9    1.392876 A    
C31   N1    1.366763 A    
C13   C15   1.416305 A    
C34   H15   1.109231 S    
O2    Zn2   2.002606 S    
C20   O10   1.383413 S    
C23   O11   1.385652 S    
C30   C32   1.415194 A    
C39   H28   1.119453 S    
C17   C18   1.420394 A    
N3    O13   1.300111 A    
C32   N2    1.364724 A    
C29   N2    1.365867 A    
Zn1   N1    2.006912 S    
