data_mof_unit_52823.cif
_audit_creation_date              2012-12-11T17:25:06-0500
_audit_creation_method            fapswitch 2.2
_symmetry_space_group_name_H-M    P1
_symmetry_Int_Tables_number       1
_space_group_crystal_system       triclinic
_cell_length_a                    6.948917
_cell_length_b                    20.480446
_cell_length_c                    24.50691
_cell_angle_alpha                 90.189125
_cell_angle_beta                  90.503895
_cell_angle_gamma                 89.491915
_cell_volume                      3487.457813

loop_
_atom_site_label
_atom_site_type_symbol
_atom_type_description
_atom_site_fract_x
_atom_site_fract_y
_atom_site_fract_z
_atom_type_partial_charge
O1    O     O_R   0.507280 0.423750 0.460310 -0.534628
O2    O     O_R   0.171030 0.555650 0.437630 -0.536881
O3    O     O_R   0.004080 0.576250 0.539690 -0.536874
C1    C     C_R   0.339083 0.575262 0.421517 0.723033
O4    O     O_R   0.177330 0.422980 0.453960 -0.537127
O5    O     O_R   0.010420 0.442640 0.556140 -0.534003
C2    C     C_R   0.346394 0.398984 0.443348 0.706629
O6    O     O_R   0.500930 0.557360 0.443860 -0.534425
O7    O     O_3   0.340310 0.506600 0.533500 -0.368725
V1    V     V_3+5 0.064140 0.498780 0.493780 1.419656
O8    O     O_R   0.680890 0.444350 0.562370 -0.536811
C3    C     C_R   0.850618 0.424306 0.578067 0.731720
O9    O     O_R   0.674590 0.577020 0.546040 -0.539997
C4    C     C_R   0.843096 0.600541 0.557470 0.709081
V2    V     V_3+5 0.564550 0.501220 0.506220 1.419484
O10   O     O_3   0.838250 0.493400 0.466500 -0.365357
C5    C     C_R   0.970156 0.835815 0.913926 -0.109549
C6    C     C_R   0.847651 0.660853 0.591047 -0.054340
C7    C     C_R   0.934437 0.717175 0.912829 0.164206
C8    C     C_R   0.956569 0.776376 0.942597 0.161547
C9    C     C_R   0.962522 0.836212 0.856838 -0.275066
C10   C     C_R   0.923003 0.779156 0.826099 0.061616
C11   C     C_R   0.917173 0.718854 0.854717 0.086394
C12   C     C_R   0.889870 0.779804 0.767777 -0.027406
C13   C     C_R   0.891217 0.719200 0.738190 0.009470
C14   C     C_R   0.878175 0.661277 0.768272 -0.180140
C15   C     C_R   0.890014 0.661017 0.824690 -0.188249
C16   C     C_R   0.837007 0.837363 0.738379 0.380021
C17   C     C_R   0.802334 0.834560 0.682258 -0.265679
C18   C     C_R   0.817971 0.776266 0.653129 0.041515
C19   C     C_R   0.878346 0.718174 0.679590 0.073550
C20   C     C_R   0.766107 0.775591 0.597772 -0.141560
C21   C     C_R   0.771194 0.717793 0.568028 -0.204796
C22   C     C_R   0.916671 0.661797 0.645862 0.105933
H1    H     H_    0.877031 0.614058 0.844228 0.136821
H2    H     H_    0.720166 0.717889 0.526109 0.115275
H3    H     H_    0.756889 0.878864 0.661508 0.143222
H4    H     H_    0.992173 0.882089 0.837498 0.178951
H5    H     H_    0.846031 0.615284 0.748763 0.145519
H6    H     H_    0.713752 0.819574 0.577891 0.119674
H7    H     H_    0.641943 0.235235 0.815563 0.117497
C23   C     C_R   0.737454 0.286528 0.743635 0.167913
C24   C     C_R   0.889147 0.294241 0.706103 0.123821
C25   C     C_R   0.057169 0.256282 0.712434 -0.199305
H8    H     H_    0.174118 0.261165 0.683860 0.130466
C26   C     C_R   0.076195 0.211687 0.755554 -0.161658
H9    H     H_    0.207767 0.183279 0.759676 0.129124
C27   C     C_R   0.926783 0.203883 0.792978 0.096349
C28   C     C_R   0.757756 0.241259 0.786710 -0.155756
C29   C     C_1   0.874790 0.340512 0.661002 -0.042425
C30   C     C_1   0.946468 0.157912 0.837956 -0.046982
C31   C     C_1   0.960549 0.119970 0.875867 -0.195229
C32   C     C_1   0.863008 0.378915 0.623365 -0.191402
H10   H     H_    0.647792 0.738396 0.319335 0.139907
C33   C     C_R   0.563506 0.784393 0.244294 -0.217677
H11   H     H_    0.689401 0.815242 0.244267 0.137603
C34   C     C_R   0.427109 0.789243 0.202049 0.097302
C35   C     C_R   0.263427 0.747986 0.202778 0.163215
C36   C     C_R   0.239580 0.702766 0.246593 0.158437
C37   C     C_R   0.378825 0.699714 0.289365 0.090539
C38   C     C_R   0.539589 0.740444 0.287256 -0.215494
C39   C     C_1   0.456862 0.837465 0.158922 -0.036376
C40   C     C_1   0.361184 0.655536 0.335950 -0.033094
C41   C     C_1   0.348559 0.618966 0.374867 -0.199529
C42   C     C_1   0.474988 0.877308 0.122525 -0.197582
C43   C     C_R   0.469075 0.162030 0.089088 -0.037850
C44   C     C_R   0.355107 0.337165 0.412286 -0.047328
C45   C     C_R   0.472432 0.279934 0.092329 -0.124394
C46   C     C_R   0.482666 0.221927 0.062683 -0.190655
C47   C     C_R   0.446771 0.160426 0.145985 -0.183195
C48   C     C_R   0.437504 0.219013 0.177598 0.026784
C49   C     C_R   0.449256 0.279466 0.149399 0.052303
C50   C     C_R   0.416012 0.219571 0.235874 0.052699
C51   C     C_R   0.403578 0.280426 0.264841 0.012915
C52   C     C_R   0.408770 0.338703 0.234526 -0.284897
C53   C     C_R   0.437766 0.338894 0.178080 0.383234
C54   C     C_R   0.405205 0.161230 0.266193 -0.162908
C55   C     C_R   0.381788 0.162026 0.322356 -0.194471
C56   C     C_R   0.370968 0.220732 0.351122 0.100951
C57   C     C_R   0.383661 0.281001 0.323252 0.115242
C58   C     C_R   0.348366 0.219053 0.407927 -0.174042
C59   C     C_R   0.339333 0.276494 0.438818 0.155843
C60   C     C_R   0.377757 0.339101 0.355306 -0.265168
H12   H     H_    0.391712 0.386860 0.337571 0.102042
H13   H     H_    0.373160 0.115816 0.343633 0.121081
H14   H     H_    0.483010 0.325401 0.070155 0.155267
H15   H     H_    0.500360 0.223790 0.018831 0.108191
H16   H     H_    0.436839 0.112689 0.163943 0.088834
H17   H     H_    0.387668 0.385641 0.253370 0.134215
H18   H     H_    0.414010 0.113529 0.247835 0.118693
H19   H     H_    0.337845 0.172448 0.428573 0.122175
O11   O     O_R   0.323320 0.942780 0.056240 -0.534080
O12   O     O_R   0.647300 0.077050 0.046060 -0.536929
O13   O     O_R   0.813840 0.057330 0.943840 -0.535311
C61   C     C_R   0.478283 0.101182 0.056746 0.695904
O14   O     O_R   0.653250 0.944380 0.062400 -0.535964
O15   O     O_R   0.819830 0.923720 0.960300 -0.533707
C62   C     C_R   0.485256 0.924043 0.077995 0.730967
O16   O     O_R   0.317330 0.076390 0.039790 -0.533938
O17   O     O_3   0.483830 0.993470 0.966560 -0.365860
V3    V     V_3+5 0.760140 0.001210 0.006210 1.421647
O18   O     O_R   0.149290 0.922840 0.953850 -0.541345
C63   C     C_R   0.980624 0.898899 0.943246 0.713863
O19   O     O_R   0.143340 0.055500 0.937510 -0.540322
C64   C     C_R   0.973529 0.075239 0.921612 0.724263
V4    V     V_3+5 0.259690 0.998600 0.993650 1.409269
O20   O     O_3   0.986130 0.006520 0.033440 -0.364596
C65   C     C_3   0.554772 0.326146 0.738213 -0.795067
H20   H     H_    0.448928 0.313343 0.770069 0.210139
H21   H     H_    0.587879 0.378896 0.742164 0.213441
H22   H     H_    0.487762 0.317108 0.697640 0.210052
C66   C     C_3   0.113098 0.751582 0.157594 -0.787000
H23   H     H_    0.145721 0.788150 0.125880 0.214040
H24   H     H_    0.102158 0.703533 0.136777 0.210201
H25   H     H_    0.971110 0.765036 0.174942 0.214390
C67   C     C_3   0.066107 0.658360 0.246856 -0.792617
H26   H     H_    0.062161 0.625534 0.282650 0.212688
H27   H     H_    0.931776 0.688038 0.247289 0.220930
H28   H     H_    0.066926 0.626877 0.209910 0.211873
O21   O     O_3   0.433981 0.397398 0.149480 -0.577443
C68   C     C_3   0.581599 0.440030 0.167420 0.069196
H29   H     H_    0.677931 0.448895 0.132310 0.141187
H30   H     H_    0.674801 0.420307 0.201000 0.110478
C69   C     C_3   0.492205 0.505260 0.185174 -0.293978
H31   H     H_    0.407825 0.526378 0.150651 0.203685
H32   H     H_    0.392592 0.497204 0.219670 0.188562
C70   C     C_3   0.645900 0.553916 0.202954 -0.833065
H33   H     H_    0.728548 0.534727 0.238535 0.232347
H34   H     H_    0.576266 0.600764 0.214896 0.244483
H35   H     H_    0.746221 0.563426 0.168906 0.230257
C71   C     C_3   0.050181 0.606953 0.663826 -0.806979
H36   H     H_    0.133304 0.619371 0.701176 0.218583
H37   H     H_    0.967715 0.561391 0.669898 0.189788
H38   H     H_    0.160823 0.597940 0.632245 0.225754
C72   C     C_3   0.314385 0.270459 0.499710 -0.793082
H39   H     H_    0.310223 0.318197 0.521121 0.201223
H40   H     H_    0.177649 0.244915 0.508232 0.208913
H41   H     H_    0.435781 0.241501 0.517183 0.207175
C73   C     C_3   0.926252 0.651995 0.942350 -0.802926
H42   H     H_    0.943715 0.654938 0.987141 0.219909
H43   H     H_    0.784765 0.628852 0.934467 0.205786
H44   H     H_    0.043391 0.619438 0.927531 0.206145
C74   C     C_3   0.968027 0.775752 0.004558 -0.781482
H45   H     H_    0.983926 0.824671 0.023348 0.198296
H46   H     H_    0.834596 0.754541 0.021362 0.211685
H47   H     H_    0.095044 0.746544 0.018037 0.207399
O22   O     O_3   0.802703 0.896566 0.763790 -0.581943
C75   C     C_3   0.607236 0.900110 0.778981 0.058554
H48   H     H_    0.570223 0.859163 0.806770 0.131273
H49   H     H_    0.511955 0.898425 0.742178 0.127919
C76   C     C_3   0.571861 0.964600 0.808916 -0.292793
H50   H     H_    0.666337 0.966984 0.845722 0.199069
H51   H     H_    0.608420 0.005916 0.781698 0.198558
C77   C     C_3   0.362460 0.971529 0.826303 -0.790435
H52   H     H_    0.264822 0.968993 0.790233 0.226660
H53   H     H_    0.340925 0.019430 0.846742 0.235214
H54   H     H_    0.325722 0.932123 0.855287 0.232169

loop_
_geom_bond_atom_site_label_1
_geom_bond_atom_site_label_2
_ccdc_geom_bond_type
V3    O20   S    
C74   H47   S    
C33   H11   S    
O13   C64   A    
C44   C60   A    
C72   H41   S    
C45   H14   S    
C50   C51   A    
C4    C6    S    
O2    C1    A    
C7    C8    A    
C75   C76   S    
C49   C53   A    
C71   H38   S    
C47   H16   S    
C21   H2    S    
O19   V4    S    
C58   C59   A    
O11   C62   A    
C34   C39   S    
C54   C55   A    
O21   C68   S    
C14   C15   A    
C53   O21   S    
C37   C40   S    
C35   C66   S    
C69   H32   S    
C16   C17   A    
C75   H49   S    
C42   C62   S    
O5    C3    A    
C18   C19   A    
C73   H44   S    
C61   O16   A    
C14   H5    S    
C43   C46   A    
V4    O20   S    
V2    O10   S    
C48   C50   A    
C5    C8    A    
C67   H26   S    
C74   H46   S    
C76   C77   S    
H7    C28   S    
C59   C72   S    
C66   H23   S    
C68   C69   S    
O8    V2    S    
C27   C30   S    
C9    H4    S    
O22   C75   S    
O13   V3    S    
C65   H21   S    
C36   C67   S    
O14   C62   A    
C76   H50   S    
C47   C48   A    
O1    V2    S    
C11   C15   A    
O7    V1    S    
C77   H53   S    
C3    C32   S    
C46   H15   S    
C1    O6    A    
C76   H51   S    
C36   C37   A    
O12   C61   A    
C51   C57   A    
O9    C4    A    
C8    C74   S    
C57   C60   A    
C66   H24   S    
O19   C64   A    
C25   C26   A    
C26   C27   A    
C54   H18   S    
C29   C32   T    
C51   C52   A    
C30   C31   T    
C72   H39   S    
O14   V3    S    
C12   C13   A    
C77   H54   S    
O12   V3    S    
C56   C58   A    
C55   C56   A    
C45   C46   A    
C15   H1    S    
C13   C14   A    
C5    C9    A    
C56   C57   A    
C37   C38   A    
C7    C11   A    
C52   C53   A    
C70   H34   S    
C65   H20   S    
C17   C18   A    
C60   H12   S    
C45   C49   A    
C68   H29   S    
C19   C22   A    
C5    C63   S    
C75   H48   S    
C6    C22   A    
C77   H52   S    
O15   C63   A    
O3    C4    A    
C69   C70   S    
C55   H13   S    
O11   V4    S    
C27   C28   A    
C22   C71   S    
O6    V2    S    
O9    V2    S    
C24   C25   A    
C10   C12   A    
C23   C24   A    
C70   H33   S    
O2    V1    S    
C25   H8    S    
O4    C2    A    
C31   C64   S    
C72   H40   S    
O16   V4    S    
C26   H9    S    
C16   O22   S    
C39   C42   T    
O1    C2    A    
C13   C19   A    
C12   C16   A    
C71   H37   S    
O5    V1    S    
C73   H42   S    
C65   H22   S    
C24   C29   S    
H10   C38   S    
C1    C41   S    
O17   V4    S    
C67   H28   S    
C20   C21   A    
C33   C34   A    
C35   C36   A    
C70   H35   S    
C48   C49   A    
O3    V1    S    
V1    O10   S    
C71   H36   S    
C18   C20   A    
C73   H43   S    
C34   C35   A    
C43   C47   A    
C33   C38   A    
O17   V3    S    
C67   H27   S    
O18   V4    S    
C20   H6    S    
O7    V2    S    
O18   C63   A    
C6    C21   A    
C68   H30   S    
C52   H17   S    
C23   C28   A    
C2    C44   S    
C40   C41   T    
C58   H19   S    
O4    V1    S    
C44   C59   A    
C7    C73   S    
C17   H3    S    
C50   C54   A    
C10   C11   A    
C43   C61   S    
C9    C10   A    
C23   C65   S    
C66   H25   S    
O15   V3    S    
C74   H45   S    
O8    C3    A    
C69   H31   S    
