data_mof_unit_33462.cif
_audit_creation_date              2012-12-11T15:34:13-0500
_audit_creation_method            fapswitch 2.2
_symmetry_space_group_name_H-M    P1
_symmetry_Int_Tables_number       1
_space_group_crystal_system       triclinic
_cell_length_a                    15.070144
_cell_length_b                    15.073374
_cell_length_c                    34.95173
_cell_angle_alpha                 90.535795
_cell_angle_beta                  89.989626
_cell_angle_gamma                 60.061128
_cell_volume                      6879.68542069

loop_
_atom_site_label
_atom_site_type_symbol
_atom_type_description
_atom_site_fract_x
_atom_site_fract_y
_atom_site_fract_z
_atom_type_partial_charge
C1    C     C_R   0.302636 0.608187 0.555771 0.543308
C2    C     C_R   0.657071 0.660673 0.668890 0.032513
C3    C     C_R   0.257724 0.647273 0.268132 0.098094
C4    C     C_R   0.180767 0.648204 0.291365 0.032271
C5    C     C_R   0.096741 0.647709 0.274622 -0.144296
C6    C     C_R   0.087293 0.649813 0.235013 -0.124684
C7    C     C_R   0.161866 0.652479 0.211770 0.003579
C8    C     C_R   0.209942 0.559189 0.353031 -0.112393
C9    C     C_R   0.237378 0.550572 0.391402 -0.122257
C10   C     C_R   0.212908 0.722424 0.390654 -0.112468
C11   C     C_R   0.185166 0.730971 0.352311 -0.092269
C12   C     C_R   0.188752 0.647429 0.333015 0.048269
C13   C     C_R   0.565471 0.725854 0.649836 -0.122552
C14   C     C_R   0.244203 0.630174 0.409948 0.026113
C15   C     C_R   0.735974 0.025607 0.943403 0.542882
C16   C     C_R   0.745988 0.722862 0.945060 0.545378
C17   C     C_R   0.038201 0.734034 0.948324 0.542468
C18   C     C_R   0.723088 0.038625 0.052871 0.543498
C19   C     C_R   0.733578 0.734431 0.054721 0.543116
C20   C     C_R   0.027223 0.744833 0.057926 0.544771
C21   C     C_R   0.552861 0.707217 0.611622 -0.132005
C22   C     C_R   0.673071 0.673991 0.788193 0.345381
C23   C     C_R   0.664547 0.668391 0.710715 0.345885
C24   C     C_R   0.762414 0.598801 0.849593 -0.122535
C25   C     C_R   0.778965 0.609703 0.888123 -0.130983
C26   C     C_R   0.628002 0.778469 0.889185 -0.131798
C27   C     C_R   0.611313 0.767443 0.850636 -0.124014
C28   C     C_R   0.680808 0.679220 0.830106 0.034406
C29   C     C_R   0.610677 0.588411 0.555230 0.542975
C30   C     C_R   0.714399 0.701389 0.907840 0.022843
C31   C     C_R   0.723261 0.073290 0.905717 0.021800
C32   C     C_R   0.630342 0.110180 0.886087 -0.124903
C33   C     C_R   0.625044 0.131754 0.847246 -0.119471
C34   C     C_R   0.712421 0.116994 0.827392 0.032248
C35   C     C_R   0.803039 0.088323 0.847590 -0.120166
C36   C     C_R   0.808444 0.066678 0.886523 -0.126177
C37   C     C_R   0.753624 0.175863 0.766678 -0.113153
C38   C     C_R   0.746998 0.186018 0.726974 -0.110237
C39   C     C_R   0.697532 0.144322 0.705460 0.027894
C40   C     C_R   0.590914 0.299423 0.553318 0.560183
C41   C     C_R   0.658610 0.088798 0.724061 -0.111315
C42   C     C_R   0.664986 0.078914 0.763654 -0.112287
C43   C     C_R   0.710489 0.124268 0.785359 0.026476
C44   C     C_R   0.579157 0.200400 0.650111 -0.127634
C45   C     C_R   0.554615 0.236435 0.612993 -0.143922
C46   C     C_R   0.729009 0.200853 0.602678 0.082481
C47   C     C_R   0.752614 0.165292 0.640212 -0.093887
C48   C     C_R   0.677305 0.167715 0.664448 0.008748
C49   C     C_R   0.627426 0.241219 0.589226 0.030970
C50   C     C_R   0.091672 0.697447 0.911247 0.021283
C51   C     C_R   0.299766 0.610391 0.446245 0.548501
C52   C     C_R   0.122043 0.758332 0.891175 -0.125928
C53   C     C_R   0.145846 0.740797 0.852359 -0.121225
C54   C     C_R   0.140842 0.661488 0.833042 0.031075
C55   C     C_R   0.120135 0.594521 0.853729 -0.117478
C56   C     C_R   0.095474 0.612477 0.892609 -0.126028
C57   C     C_R   0.211483 0.561454 0.772299 -0.109424
C58   C     C_R   0.220103 0.557369 0.732469 -0.106380
C59   C     C_R   0.164465 0.646550 0.710738 0.032615
C60   C     C_R   0.097978 0.739145 0.729542 -0.109087
C61   C     C_R   0.090225 0.743348 0.769296 -0.107250
C62   C     C_R   0.608136 0.589906 0.445400 0.542146
C63   C     C_R   0.148101 0.654930 0.790988 0.031148
C64   C     C_R   0.191733 0.723680 0.652137 -0.113834
C65   C     C_R   0.223661 0.715296 0.614212 -0.118388
C66   C     C_R   0.231421 0.551250 0.608568 -0.126798
C67   C     C_R   0.199043 0.559876 0.646509 -0.119076
C68   C     C_R   0.182387 0.644498 0.669042 0.032627
C69   C     C_R   0.247564 0.627225 0.592503 0.021897
C70   C     C_R   0.693095 0.718257 0.090767 0.021053
C71   C     C_R   0.607593 0.799627 0.108912 -0.129145
C72   C     C_R   0.583188 0.790233 0.146659 -0.119969
C73   C     C_R   0.587627 0.303317 0.443647 0.547421
C74   C     C_R   0.643983 0.699456 0.166829 0.032075
C75   C     C_R   0.724760 0.615847 0.147633 -0.121303
C76   C     C_R   0.748729 0.624996 0.109978 -0.125126
C77   C     C_R   0.648753 0.602305 0.225171 -0.104425
C78   C     C_R   0.650567 0.592917 0.264781 -0.085841
C79   C     C_R   0.632390 0.675869 0.288586 0.042733
C80   C     C_R   0.609844 0.769283 0.272187 -0.110744
C81   C     C_R   0.609765 0.778244 0.232468 -0.108917
C82   C     C_R   0.630722 0.694287 0.208557 0.031017
C83   C     C_R   0.554248 0.735564 0.353382 -0.096267
C84   C     C_R   0.631695 0.623138 0.591884 0.020555
C85   C     C_R   0.549204 0.715450 0.391980 -0.116301
C86   C     C_R   0.711104 0.557012 0.385803 -0.120967
C87   C     C_R   0.715611 0.576779 0.347226 -0.121653
C88   C     C_R   0.635405 0.664199 0.330435 0.040918
C89   C     C_R   0.625645 0.623922 0.408154 0.023264
C90   C     C_R   0.699450 0.101427 0.087944 0.021724
C91   C     C_R   0.773414 0.121279 0.103947 -0.126919
C92   C     C_R   0.760768 0.160787 0.141008 -0.122594
C93   C     C_R   0.674038 0.181052 0.162608 0.031854
C94   C     C_R   0.596072 0.169628 0.145407 -0.119718
C95   C     C_R   0.726238 0.563523 0.609996 -0.122440
C96   C     C_R   0.608580 0.130298 0.108331 -0.126605
C97   C     C_R   0.578308 0.270569 0.222227 -0.115369
C98   C     C_R   0.572232 0.277752 0.262008 -0.106471
C99   C     C_R   0.658358 0.215224 0.284298 0.027621
C100  C     C_R   0.751698 0.148530 0.266267 -0.118975
C101  C     C_R   0.757723 0.141059 0.226493 -0.114782
C102  C     C_R   0.670601 0.200651 0.204149 0.026938
C103  C     C_R   0.723019 0.227862 0.348629 -0.116709
C104  C     C_R   0.707509 0.245935 0.387911 -0.121213
C105  C     C_R   0.550539 0.238964 0.383400 -0.121084
C106  C     C_R   0.738784 0.582085 0.648149 -0.119134
C107  C     C_R   0.565851 0.221457 0.344147 -0.117875
C108  C     C_R   0.650059 0.219729 0.326299 0.035042
C109  C     C_R   0.618807 0.256002 0.405362 0.024995
C110  C     C_R   0.081685 0.708711 0.094351 0.022036
C111  C     C_R   0.084939 0.624176 0.112396 -0.127884
C112  C     C_R   0.116628 0.602212 0.150181 -0.122690
C113  C     C_R   0.146643 0.663592 0.170280 0.030697
C114  C     C_R   0.151663 0.742697 0.151407 -0.119424
C115  C     C_R   0.119036 0.765399 0.113650 -0.126499
C116  C     C_R   0.247267 0.650450 0.228476 -0.097363
Cr1   Cr    Cr6+3 0.421670 0.426920 0.499620 1.015122
Cr2   Cr    Cr6+3 0.427030 0.651190 0.500980 1.020631
Cr3   Cr    Cr6+3 0.651280 0.421870 0.499380 1.059263
Cr4   Cr    Cr6+3 0.910810 0.908010 0.001130 1.010388
Cr5   Cr    Cr6+3 0.682800 0.909890 0.998370 1.011179
Cr6   Cr    Cr6+3 0.908370 0.682300 0.002180 1.009925
H1    H     H_    0.788788 0.498795 0.595401 0.148779
H2    H     H_    0.881219 0.038225 0.900874 0.127360
H3    H     H_    0.829590 0.137276 0.650728 0.129560
H4    H     H_    0.776487 0.230280 0.713298 0.116649
H5    H     H_    0.789182 0.211277 0.782884 0.110033
H6    H     H_    0.553617 0.156211 0.832347 0.105281
H7    H     H_    0.621527 0.054676 0.708009 0.114324
H8    H     H_    0.633687 0.036307 0.777390 0.116015
H9    H     H_    0.519385 0.203667 0.668308 0.111041
H10   H     H_    0.476268 0.266209 0.603768 0.134878
H11   H     H_    0.871342 0.076577 0.832833 0.102335
H12   H     H_    0.479227 0.754830 0.598350 0.130995
H13   H     H_    0.120678 0.823900 0.904741 0.126972
H14   H     H_    0.072518 0.564136 0.907303 0.125681
H15   H     H_    0.190441 0.498697 0.658609 0.106425
H16   H     H_    0.273187 0.485200 0.718824 0.104894
H17   H     H_    0.256589 0.492433 0.788571 0.105393
H18   H     H_    0.163696 0.792071 0.836983 0.108472
H19   H     H_    0.052818 0.808621 0.713531 0.109124
H20   H     H_    0.038912 0.815844 0.783176 0.110392
H21   H     H_    0.180363 0.789456 0.668829 0.109008
H22   H     H_    0.845846 0.548635 0.901770 0.128534
H23   H     H_    0.235388 0.775135 0.602684 0.134608
H24   H     H_    0.116247 0.532640 0.839310 0.108749
H25   H     H_    0.248632 0.482700 0.592472 0.125521
H26   H     H_    0.562985 0.872343 0.094754 0.124654
H27   H     H_    0.814827 0.560708 0.096745 0.126904
H28   H     H_    0.779806 0.521642 0.330082 0.099638
H29   H     H_    0.665461 0.520880 0.276891 0.129515
H30   H     H_    0.663001 0.536993 0.207543 0.108373
H31   H     H_    0.519195 0.855236 0.160516 0.103798
H32   H     H_    0.595508 0.834177 0.290103 0.101440
H33   H     H_    0.811011 0.531638 0.661834 0.137143
H34   H     H_    0.597304 0.849612 0.220576 0.103811
H35   H     H_    0.491577 0.803508 0.340934 0.120856
H36   H     H_    0.482436 0.768526 0.408484 0.127210
H37   H     H_    0.773829 0.545157 0.162386 0.099538
H38   H     H_    0.771441 0.486043 0.397405 0.128995
H39   H     H_    0.843727 0.100960 0.088712 0.124464
H40   H     H_    0.550024 0.116320 0.096682 0.126161
H41   H     H_    0.509892 0.212977 0.327472 0.102429
H42   H     H_    0.500020 0.331622 0.275413 0.128738
H43   H     H_    0.510478 0.318156 0.205604 0.110236
H44   H     H_    0.501472 0.787806 0.664938 0.133069
H45   H     H_    0.821028 0.170829 0.153461 0.101642
H46   H     H_    0.818924 0.099583 0.282958 0.105050
H47   H     H_    0.829393 0.085207 0.213303 0.107419
H48   H     H_    0.788756 0.226370 0.335398 0.102796
H49   H     H_    0.761533 0.258648 0.404087 0.128834
H50   H     H_    0.528662 0.184086 0.161509 0.102456
H51   H     H_    0.481694 0.245830 0.396003 0.127415
H52   H     H_    0.057325 0.578555 0.098157 0.127800
H53   H     H_    0.117872 0.830567 0.100343 0.126928
H54   H     H_    0.167314 0.800097 0.337032 0.125104
H55   H     H_    0.816338 0.529070 0.834717 0.131145
H56   H     H_    0.305903 0.650860 0.210668 0.132839
H57   H     H_    0.113645 0.540003 0.164251 0.104658
H58   H     H_    0.037832 0.647304 0.292272 0.112306
H59   H     H_    0.020279 0.652348 0.222533 0.116194
H60   H     H_    0.211868 0.494638 0.338333 0.106870
H61   H     H_    0.260331 0.478831 0.405628 0.126173
H62   H     H_    0.174552 0.790964 0.166596 0.109696
H63   H     H_    0.216501 0.785313 0.404332 0.131153
H64   H     H_    0.576535 0.849859 0.903689 0.127840
H65   H     H_    0.547000 0.830282 0.836522 0.130064
H66   H     H_    0.563212 0.116888 0.900180 0.126731
N1    N     N_R   0.749871 0.596960 0.767765 -0.236171
N2    N     N_R   0.745541 0.594050 0.729828 -0.235030
N3    N     N_R   0.587680 0.745614 0.731117 -0.238461
N4    N     N_R   0.592140 0.748670 0.769104 -0.239178
O1    O     O_R   0.502070 0.323090 0.541280 -0.527496
O2    O     O_R   0.520720 0.641670 0.461580 -0.501453
O3    O     O_R   0.674120 0.502090 0.457500 -0.518199
O4    O     O_R   0.640110 0.338380 0.459630 -0.495390
O5    O     O_3   0.499990 0.499990 0.499990 -0.244679
O6    O     O_R   0.017640 0.822070 0.960410 -0.521886
O7    O     O_R   0.822000 0.989470 0.960340 -0.503670
O8    O     O_R   0.666920 0.007430 0.955290 -0.519715
O9    O     O_R   0.694410 0.812480 0.959650 -0.502153
O10   O     O_R   0.831550 0.656950 0.958960 -0.521131
O11   O     O_R   0.998590 0.685540 0.963930 -0.502235
O12   O     O_R   0.338340 0.520690 0.539540 -0.504598
O13   O     O_R   0.008220 0.831200 0.045060 -0.519326
O14   O     O_R   0.813270 0.997930 0.038810 -0.502064
O15   O     O_R   0.657500 0.016560 0.039940 -0.521342
O16   O     O_R   0.685680 0.820940 0.038120 -0.502000
O17   O     O_R   0.822130 0.666070 0.043610 -0.521601
O18   O     O_R   0.989860 0.694000 0.042400 -0.503874
O19   O     O_3   0.833990 0.833400 0.000560 -0.235169
O20   O     O_R   0.324760 0.674070 0.543580 -0.517788
O21   O     O_R   0.522400 0.640310 0.540110 -0.506320
O22   O     O_R   0.675940 0.500630 0.542210 -0.499640
O23   O     O_R   0.641790 0.337020 0.538150 -0.459909
O24   O     O_R   0.500260 0.324550 0.456580 -0.521169
O25   O     O_R   0.336660 0.522040 0.461020 -0.504265
O26   O     O_R   0.322940 0.675540 0.458880 -0.515415
I1    I     I_    0.852694 0.188809 0.569307 -0.389430
I2    I     I_    0.393594 0.635982 0.290845 -0.463940

loop_
_geom_bond_atom_site_label_1
_geom_bond_atom_site_label_2
_ccdc_geom_bond_type
Cr6   O11   S    
C55   C56   A    
C106  H33   S    
Cr3   O23   S    
C101  C102  A    
C116  H56   S    
C111  H52   S    
C41   C42   A    
C35   C36   A    
C87   C88   A    
C35   H11   S    
C23   N3    A    
C97   C98   A    
C57   C58   A    
C39   C41   A    
C77   C78   A    
C51   O25   A    
C44   H9    S    
C99   C108  S    
C105  C107  A    
C46   C49   A    
C11   H54   S    
C93   C94   A    
C81   H34   S    
C5    C6    A    
Cr4   O13   S    
C64   C68   A    
C92   C93   A    
C36   H2    S    
C34   C35   A    
C3    C116  A    
C31   C36   A    
C104  C109  A    
C59   C68   S    
C97   H43   S    
C66   C69   A    
C54   C63   S    
C8    H60   S    
C40   C49   S    
C53   H18   S    
C62   C89   S    
C83   C88   A    
Cr4   O7    S    
C57   H17   S    
Cr2   O20   S    
Cr3   O4    S    
C17   O11   A    
C2    C13   A    
C110  C111  A    
C112  C113  A    
C115  H53   S    
C103  C104  A    
C94   H50   S    
C46   C47   A    
C29   O21   A    
C47   C48   A    
C3    I2    S    
C87   H28   S    
Cr2   O26   S    
C103  H48   S    
C50   C52   A    
C107  C108  A    
Cr6   O18   S    
C73   O24   A    
Cr1   O25   S    
C103  C108  A    
C72   H31   S    
C20   O18   A    
C4    C12   S    
Cr1   O12   S    
C86   H38   S    
C97   C102  A    
C90   C91   A    
C76   H27   S    
C58   H16   S    
Cr4   O19   S    
C66   C67   A    
C59   C60   A    
C105  H51   S    
C1    O20   A    
C20   O13   A    
C74   C82   S    
C16   O10   A    
C77   H30   S    
C79   C88   S    
C38   H4    S    
C78   H29   S    
C81   C82   A    
C40   O1    A    
C40   O23   A    
C51   O26   A    
C47   H3    S    
Cr6   O17   S    
C64   H21   S    
C74   C75   A    
C32   H66   S    
C6    H59   S    
C67   C68   A    
C18   C90   S    
C24   C25   A    
C29   C84   S    
C72   C74   A    
C10   C14   A    
C91   C92   A    
C9    C14   A    
C85   C89   A    
C78   C79   A    
C8    C9    A    
C55   H24   S    
Cr3   O5    S    
C58   C59   A    
C53   C54   A    
C15   C31   S    
C2    C106  A    
C33   H6    S    
C1    C69   S    
N3    N4    A    
C60   C61   A    
C84   C95   A    
C7    C116  A    
C37   C43   A    
Cr1   O24   S    
C94   C96   A    
C75   C76   A    
C5    H58   S    
C37   C38   A    
C9    H61   S    
C95   C106  A    
C60   H19   S    
C15   O7    A    
Cr2   O5    S    
Cr4   O6    S    
C14   C51   S    
C83   H35   S    
C21   C84   A    
C45   C49   A    
C8    C12   A    
C61   C63   A    
C33   C34   A    
C26   C27   A    
Cr5   O8    S    
C13   C21   A    
C17   O6    A    
C42   H8    S    
C27   H65   S    
C22   N1    A    
C90   C96   A    
C66   H25   S    
C70   C71   A    
C45   H10   S    
C104  H49   S    
C20   C110  S    
C83   C85   A    
C107  H41   S    
C56   H14   S    
C112  H57   S    
C70   C76   A    
C19   O16   A    
C25   H22   S    
C42   C43   A    
Cr5   O15   S    
C22   N4    A    
C3    C4    A    
C21   H12   S    
C24   H55   S    
Cr1   O5    S    
C52   C53   A    
C86   C87   A    
C113  C114  A    
C75   H37   S    
C25   C30   A    
C65   C69   A    
C105  C109  A    
C54   C55   A    
C46   I1    S    
C111  C112  A    
C19   O17   A    
C31   C32   A    
C91   H39   S    
C44   C45   A    
C24   C28   A    
C57   C63   A    
C80   C81   A    
C86   C89   A    
C93   C102  S    
Cr2   O2    S    
C98   H42   S    
C11   C12   A    
C114  C115  A    
C6    C7    A    
C17   C50   S    
C10   H63   S    
C99   C100  A    
C18   O14   A    
C100  H46   S    
Cr4   O14   S    
C64   C65   A    
Cr6   O10   S    
Cr5   O9    S    
C71   C72   A    
C32   C33   A    
C41   H7    S    
C15   O8    A    
C26   H64   S    
C92   H45   S    
C7    C113  S    
C29   O22   A    
C38   C39   A    
C13   H44   S    
C77   C82   A    
C114  H62   S    
C80   H32   S    
C65   H23   S    
C100  C101  A    
C96   H40   S    
C71   H26   S    
Cr2   O21   S    
Cr3   O3    S    
C73   C109  S    
Cr5   O19   S    
C101  H47   S    
N1    N2    A    
C67   H15   S    
C50   C56   A    
Cr1   O1    S    
C10   C11   A    
C79   C80   A    
C44   C48   A    
C61   H20   S    
C4    C5    A    
Cr3   O22   S    
C98   C99   A    
C85   H36   S    
C73   O4    A    
C2    C23   S    
C62   O3    A    
C52   H13   S    
C62   O2    A    
Cr6   O19   S    
C18   O15   A    
C19   C70   S    
C22   C28   S    
Cr5   O16   S    
C37   H5    S    
C34   C43   S    
C1    O12   A    
C16   C30   S    
C110  C115  A    
C23   N2    A    
C16   O9    A    
C95   H1    S    
C39   C48   S    
C27   C28   A    
C26   C30   A    
