data_mof_unit_7505.cif
_audit_creation_date              2012-12-10T18:11:35-0500
_audit_creation_method            fapswitch 2.2
_symmetry_space_group_name_H-M    P1
_symmetry_Int_Tables_number       1
_space_group_crystal_system       triclinic
_cell_length_a                    10.520913
_cell_length_b                    12.616014
_cell_length_c                    13.175399
_cell_angle_alpha                 82.494988
_cell_angle_beta                  91.197421
_cell_angle_gamma                 101.456804
_cell_volume                      1699.24604139

loop_
_atom_site_label
_atom_site_type_symbol
_atom_type_description
_atom_site_fract_x
_atom_site_fract_y
_atom_site_fract_z
_atom_type_partial_charge
C1    C     C_R   0.478244 0.439384 0.690735 0.847783
C2    C     C_R   0.461354 0.447746 0.972514 0.084733
C3    C     C_R   0.435117 0.473075 0.867937 0.085945
C4    C     C_R   0.741637 0.498724 0.502327 0.876318
C5    C     C_R   0.475052 0.532145 0.035205 0.075678
C6    C     C_R   0.447356 0.635454 0.996077 0.178500
C7    C     C_R   0.399792 0.651794 0.897188 -0.258695
C8    C     C_R   0.391041 0.570628 0.834419 -0.202598
C9    C     C_R   0.518220 0.517297 0.135413 -0.258090
C10   C     C_R   0.503033 0.701016 0.159040 -0.226779
C11   C     C_R   0.456614 0.401006 0.799610 -0.115113
C12   C     C_3   0.063215 0.595523 0.526751 -0.145194
C13   C     C_R   0.318277 0.092483 0.345053 -0.319832
C14   C     C_R   0.654327 0.798827 0.629766 0.035394
C15   C     C_R   0.686762 0.903147 0.657254 -0.255532
C16   C     C_R   0.517445 0.560726 0.308962 0.861400
C17   C     C_R   0.627896 0.984766 0.607469 -0.186319
C18   C     C_R   0.535498 0.962059 0.529406 0.016667
C19   C     C_R   0.506779 0.854807 0.503893 0.173006
C20   C     C_R   0.471480 0.041159 0.475984 -0.033952
C21   C     C_R   0.379545 0.012046 0.397900 0.111713
C22   C     C_R   0.350455 0.903975 0.374233 0.096329
C23   C     C_3   0.964609 0.513644 0.596779 0.203949
C24   C     C_R   0.416959 0.828092 0.426827 -0.231980
C25   C     C_R   0.494962 0.149297 0.497505 -0.045396
C26   C     C_R   0.346649 0.197355 0.370022 0.020900
C27   C     C_R   0.257974 0.499718 0.501197 0.864138
C28   C     C_3   0.937820 0.400293 0.483082 0.201927
C29   C     C_3   0.027115 0.417791 0.576160 -0.193058
C30   C     C_3   0.122784 0.499362 0.504116 -0.041987
C31   C     C_3   0.035543 0.480900 0.411123 -0.188699
C32   C     C_3   0.972927 0.576523 0.433814 -0.262740
C33   C     C_3   0.247520 0.871916 0.293912 -0.403964
C34   C     C_3   0.876177 0.495480 0.504909 -0.044016
C35   C     C_3   0.211995 0.751337 0.280356 -0.916151
C36   C     C_3   0.867437 0.288266 0.458728 -0.386820
C37   C     C_3   0.962799 0.215480 0.441773 -0.868778
C38   C     C_3   0.921332 0.531915 0.701409 -0.932170
C39   C     C_R   0.465919 0.720324 0.057256 -0.200037
C40   C     C_R   0.519464 0.596509 0.199487 -0.053556
C41   C     C_R   0.473296 0.295416 0.837439 -0.196909
C42   C     C_R   0.477166 0.263920 0.942105 -0.152226
C43   C     C_R   0.474411 0.339601 0.009435 -0.193738
H1    H     H_    0.053329 0.353846 0.634372 0.135733
H2    H     H_    0.699255 0.734632 0.668123 0.135703
H3    H     H_    0.657052 0.064119 0.631970 0.128939
H4    H     H_    0.757147 0.920752 0.716940 0.147765
H5    H     H_    0.398457 0.747701 0.406964 0.235208
H6    H     H_    0.068890 0.467887 0.335129 0.143173
H7    H     H_    0.946078 0.640724 0.376221 0.162135
H8    H     H_    0.118085 0.675339 0.545204 0.157277
H9    H     H_    0.510854 0.765265 0.207236 0.165315
H10   H     H_    0.371143 0.727872 0.867790 0.150297
H11   H     H_    0.447362 0.800025 0.027521 0.136996
H12   H     H_    0.547385 0.442721 0.167011 0.153918
H13   H     H_    0.292204 0.724926 0.244884 0.265116
H14   H     H_    0.188597 0.701497 0.355033 0.272860
H15   H     H_    0.126078 0.737019 0.229896 0.254566
H16   H     H_    0.156261 0.895103 0.315845 0.213401
H17   H     H_    0.280173 0.918495 0.218362 0.207058
H18   H     H_    0.028130 0.252917 0.376086 0.255646
H19   H     H_    0.022002 0.202667 0.511420 0.264404
H20   H     H_    0.908363 0.134920 0.424877 0.252275
H21   H     H_    0.801991 0.248221 0.523561 0.202755
H22   H     H_    0.808316 0.298700 0.388638 0.219208
H23   H     H_    0.486845 0.238019 0.786177 0.154825
H24   H     H_    0.005716 0.540944 0.753756 0.244271
H25   H     H_    0.880279 0.607046 0.694219 0.248408
H26   H     H_    0.846253 0.461219 0.733301 0.237712
H27   H     H_    0.480375 0.310378 0.089663 0.130158
H28   H     H_    0.488295 0.181935 0.971094 0.138566
H29   H     H_    0.349634 0.585401 0.759317 0.177058
H30   H     H_    0.300212 0.259762 0.329930 0.131919
H31   H     H_    0.249217 0.076438 0.284378 0.137175
H32   H     H_    0.561247 0.178823 0.555387 0.114040
N1    N     N_R   0.432930 0.222190 0.444670 -0.103588
N2    N     N_R   0.566370 0.776980 0.554790 -0.127201
O1    O     O_R   0.467970 0.366730 0.627150 -0.617857
O2    O     O_R   0.510820 0.544830 0.662520 -0.618937
O3    O     O_R   0.664630 0.410960 0.482340 -0.639498
O4    O     O_R   0.707470 0.589060 0.517710 -0.609134
O5    O     O_R   0.489180 0.455170 0.337480 -0.619988
O6    O     O_R   0.532030 0.633270 0.372850 -0.637745
O7    O     O_R   0.292530 0.410940 0.482290 -0.611734
O8    O     O_R   0.335370 0.589040 0.517660 -0.652006
Zn1   Zn    Zn3+2 0.471390 0.381080 0.476380 0.923910
Zn2   Zn    Zn3+2 0.528610 0.618920 0.523620 0.919847

loop_
_geom_bond_atom_site_label_1
_geom_bond_atom_site_label_2
_ccdc_geom_bond_type
O6    Zn2   S    
C41   C42   A    
C6    C7    A    
C1    C11   S    
C15   H4    S    
C10   H9    S    
O2    Zn2   S    
C37   H19   S    
C7    C8    A    
C12   C23   S    
C28   C29   S    
C35   H15   S    
C23   C29   S    
C36   C37   S    
O7    Zn1   S    
C4    O3    A    
C5    C6    A    
C39   H11   S    
C20   C25   A    
C26   H30   S    
C10   C40   A    
C18   C19   A    
C14   N2    A    
C19   N2    A    
O3    Zn1   S    
C4    O4    A    
C26   N1    A    
C11   C41   A    
C9    H12   S    
O1    Zn1   S    
C38   H26   S    
C28   C34   S    
C33   H16   S    
C21   C22   A    
C12   C32   S    
C27   C30   S    
C1    O1    A    
C31   H6    S    
C37   H20   S    
C27   O8    A    
C14   H2    S    
O8    Zn2   S    
N2    Zn2   S    
C4    C34   S    
C8    H29   S    
C24   H5    S    
C17   H3    S    
C3    C8    A    
C36   H22   S    
O5    Zn1   S    
C16   O6    A    
C10   C39   A    
C25   H32   S    
C32   C34   S    
C5    C9    A    
C29   C30   S    
C31   C32   S    
C2    C43   A    
C23   C34   S    
C16   O5    A    
C17   C18   A    
C13   C21   A    
C20   C21   A    
C32   H7    S    
O4    Zn2   S    
C16   C40   S    
C38   H25   S    
C33   H17   S    
C29   H1    S    
C1    O2    A    
C22   C24   A    
C13   C26   A    
C2    C5    A    
C42   C43   A    
C7    H10   S    
C38   H24   S    
N1    Zn1   S    
C12   H8    S    
C15   C17   A    
C22   C33   S    
C27   O7    A    
C12   C30   S    
C35   H13   S    
C6    C39   A    
C28   C31   S    
C37   H18   S    
C41   H23   S    
C43   H27   S    
C23   C38   S    
C35   H14   S    
C25   N1    A    
C19   C24   A    
C30   C31   S    
C42   H28   S    
C33   C35   S    
C2    C3    A    
C18   C20   A    
C9    C40   A    
C3    C11   A    
C13   H31   S    
C28   C36   S    
C14   C15   A    
C36   H21   S    
