data_mof_unit_64042.cif
_audit_creation_date              2012-12-10T18:08:11-0500
_audit_creation_method            fapswitch 2.2
_symmetry_space_group_name_H-M    P1
_symmetry_Int_Tables_number       1
_space_group_crystal_system       triclinic
_cell_length_a                    18.73159
_cell_length_b                    18.697083
_cell_length_c                    18.679373
_cell_angle_alpha                 109.406126
_cell_angle_beta                  109.368233
_cell_angle_gamma                 109.366777
_cell_volume                      5052.90322053

loop_
_atom_site_label
_atom_site_type_symbol
_atom_type_description
_atom_site_fract_x
_atom_site_fract_y
_atom_site_fract_z
_atom_type_partial_charge
C1    C     C_R   0.380970 0.501290 0.379863 0.893434
C2    C     C_R   0.316223 0.503214 0.314030 -0.088255
C3    C     C_R   0.311823 0.236817 0.484625 -0.316454
C4    C     C_R   0.619501 0.619914 0.499301 0.883204
C5    C     C_R   0.248670 0.172214 0.484529 0.180705
C6    C     C_R   0.184705 0.186765 0.499160 -0.130120
C7    C     C_R   0.181802 0.263981 0.511482 0.085859
C8    C     C_R   0.243994 0.327654 0.508039 0.173681
C9    C     C_R   0.309929 0.313775 0.496747 -0.123493
C10   C     C_R   0.762012 0.512128 0.684856 -0.245885
C11   C     C_R   0.827098 0.514475 0.749724 -0.177428
C12   C     C_R   0.829453 0.805334 0.572152 0.073228
C13   C     C_R   0.813612 0.501182 0.814481 -0.037077
C14   C     C_R   0.735945 0.486777 0.815620 -0.243395
C15   C     C_R   0.670516 0.485229 0.751208 0.217599
C16   C     C_R   0.619923 0.499764 0.620113 0.885132
C17   C     C_R   0.684581 0.498335 0.686098 -0.036311
C18   C     C_R   0.999903 0.879651 0.379623 0.873941
C19   C     C_R   0.880083 0.878620 0.498946 0.883031
C20   C     C_R   0.000036 0.120257 0.620218 0.860628
C21   C     C_R   0.119779 0.120727 0.500389 0.954251
C22   C     C_R   0.999709 0.620043 0.119817 0.872536
C23   C     C_3   0.863149 0.875571 0.662409 -0.496843
C24   C     C_R   0.119848 0.500113 0.120244 0.891552
C25   C     C_R   0.000127 0.379890 0.879923 0.860366
C26   C     C_R   0.879832 0.500547 0.880137 0.879557
C27   C     C_R   0.976057 0.808667 0.231405 -0.218865
C28   C     C_R   0.378675 0.379840 0.499018 0.917411
C29   C     C_R   0.975792 0.745059 0.166667 0.000212
C30   C     C_R   0.998491 0.686025 0.184479 -0.043455
C31   C     C_R   0.021458 0.690443 0.265533 -0.190546
C32   C     C_R   0.023046 0.754953 0.330330 -0.176957
C33   C     C_R   0.999939 0.813601 0.312983 -0.038922
C34   C     C_3   0.789890 0.809393 0.664124 0.033589
C35   C     C_R   0.920721 0.177323 0.679685 -0.194343
C36   C     C_R   0.920806 0.240677 0.744369 -0.180198
C37   C     C_R   0.000152 0.313769 0.813648 -0.003178
C38   C     C_R   0.079465 0.323432 0.819526 -0.177997
C39   C     C_R   0.079467 0.258807 0.756184 -0.182631
C40   C     C_R   0.764479 0.745734 0.573755 0.062290
C41   C     C_R   0.000073 0.186436 0.686289 -0.002620
C42   C     C_R   0.685280 0.683922 0.497777 -0.090131
C43   C     C_R   0.675608 0.675693 0.417256 -0.273158
C44   C     C_R   0.740147 0.738190 0.415312 -0.023433
C45   C     C_R   0.251891 0.424441 0.237577 -0.281665
C46   C     C_R   0.815394 0.807592 0.495095 -0.138803
C47   C     C_3   0.462752 0.701773 0.396281 -0.748049
C48   C     C_3   0.191440 0.022031 0.380346 -0.752850
C49   C     C_3   0.041331 0.258890 0.458310 -0.713751
C50   C     C_3   0.203984 0.401428 0.430345 -0.738370
C51   C     C_3   0.520425 0.380543 0.692223 -0.784252
C52   C     C_1   0.727293 0.729964 0.331698 0.193904
C53   C     C_1   0.949942 0.739880 0.082246 0.148290
C54   C     C_3   0.690843 0.869582 0.618831 -0.730661
C55   C     C_1   0.122794 0.340624 0.093702 0.175066
C56   C     C_R   0.186649 0.422774 0.173730 -0.010034
C57   C     C_1   0.247786 0.661071 0.278871 0.151494
C58   C     C_R   0.185937 0.501057 0.187450 -0.139846
C59   C     C_R   0.250303 0.580941 0.264599 -0.077323
C60   C     C_R   0.317218 0.582387 0.328004 0.176267
H1    H     H_    0.616575 0.623115 0.356805 0.159688
H2    H     H_    0.859390 0.233536 0.739836 0.144394
H3    H     H_    0.140896 0.379971 0.873587 0.145279
H4    H     H_    0.140834 0.265680 0.760770 0.141435
H5    H     H_    0.928909 0.891215 0.708560 0.187194
H6    H     H_    0.858779 0.933624 0.663501 0.203280
H7    H     H_    0.813832 0.788395 0.711965 0.117922
H8    H     H_    0.252318 0.364101 0.228072 0.169179
H9    H     H_    0.369022 0.707254 0.430212 0.227372
H10   H     H_    0.446036 0.719098 0.343893 0.236128
H11   H     H_    0.488082 0.656030 0.381152 0.230097
H12   H     H_    0.362640 0.226941 0.475273 0.169856
H13   H     H_    0.514782 0.762071 0.458896 0.234745
H14   H     H_    0.311321 0.100317 0.493621 0.226760
H15   H     H_    0.213446 0.037733 0.336372 0.236896
H16   H     H_    0.123740 0.010117 0.358355 0.230004
H17   H     H_    0.191400 0.961260 0.375761 0.245459
H18   H     H_    0.143275 0.334176 0.588155 0.209598
H19   H     H_    0.047469 0.320164 0.458678 0.215039
H20   H     H_    0.983825 0.228592 0.465118 0.246442
H21   H     H_    0.030118 0.212745 0.394570 0.246053
H22   H     H_    0.214768 0.427026 0.551585 0.223126
H23   H     H_    0.772374 0.522401 0.634515 0.150901
H24   H     H_    0.134406 0.349700 0.387630 0.230083
H25   H     H_    0.240573 0.388373 0.396281 0.227657
H26   H     H_    0.208934 0.465456 0.441520 0.234900
H27   H     H_    0.597923 0.492777 0.813268 0.226455
H28   H     H_    0.535839 0.336111 0.713568 0.235258
H29   H     H_    0.509113 0.359519 0.624600 0.234239
H30   H     H_    0.459539 0.375578 0.691826 0.242954
H31   H     H_    0.734634 0.861779 0.732520 0.225954
H32   H     H_    0.627774 0.861328 0.614325 0.228020
H33   H     H_    0.679798 0.836942 0.551556 0.249693
H34   H     H_    0.887154 0.525191 0.748647 0.154676
H35   H     H_    0.736815 0.940635 0.651694 0.217630
H36   H     H_    0.726199 0.476598 0.866263 0.149819
H37   H     H_    0.958541 0.854703 0.218648 0.156810
H38   H     H_    0.039159 0.644715 0.278727 0.141536
H39   H     H_    0.041050 0.758339 0.393287 0.154383
H40   H     H_    0.859326 0.120797 0.625524 0.139894
N1    N     N_2   0.386987 0.662876 0.404226 -0.289046
N2    N     N_1   0.245679 0.724908 0.290237 -0.201995
N3    N     N_2   0.249557 0.092755 0.469718 -0.292113
N4    N     N_2   0.118542 0.277965 0.530984 -0.311595
N5    N     N_2   0.239618 0.403965 0.513401 -0.285926
N6    N     N_2   0.590890 0.469742 0.751520 -0.298873
N7    N     N_1   0.717051 0.723341 0.264722 -0.198812
N8    N     N_1   0.929184 0.735587 0.014621 -0.199239
N9    N     N_2   0.723690 0.832159 0.669585 -0.256178
N10   N     N_1   0.071749 0.274982 0.029628 -0.198958
O1    O     O_R   0.408340 0.551690 0.460080 -0.593935
O2    O     O_R   0.051700 0.643420 0.091650 -0.606479
O3    O     O_R   0.039910 0.448390 0.091720 -0.618477
O4    O     O_R   0.408400 0.448280 0.356690 -0.634506
O5    O     O_R   0.143340 0.551810 0.091690 -0.614553
O6    O     O_R   0.948300 0.356760 0.908530 -0.616269
O7    O     O_R   0.051730 0.460180 0.908500 -0.629877
O8    O     O_R   0.856660 0.448370 0.908490 -0.629480
O9    O     O_R   0.960090 0.551790 0.908450 -0.619838
O10   O     O_R   0.591580 0.643330 0.551700 -0.595783
O11   O     O_R   0.591640 0.539920 0.448310 -0.629007
O12   O     O_R   0.948260 0.908480 0.356680 -0.624398
O13   O     O_R   0.591600 0.551720 0.643310 -0.605037
O14   O     O_R   0.591660 0.448310 0.539920 -0.631953
O15   O     O_R   0.408360 0.460080 0.551690 -0.590496
O16   O     O_R   0.408420 0.356670 0.448300 -0.635562
O17   O     O_R   0.051710 0.908420 0.460050 -0.620777
O18   O     O_R   0.960120 0.908380 0.551680 -0.619569
O19   O     O_R   0.856660 0.908440 0.448310 -0.617123
O20   O     O_R   0.051740 0.091590 0.643330 -0.625573
O21   O     O_R   0.948290 0.091650 0.539960 -0.623245
O22   O     O_R   0.143330 0.091630 0.551690 -0.611791
O23   O     O_R   0.039880 0.091690 0.448320 -0.616494
O24   O     O_R   0.948270 0.540000 0.091680 -0.626486
Zn1   Zn    Zn3+2 0.499960 0.569050 0.569040 0.989471
Zn2   Zn    Zn3+2 0.500040 0.430950 0.430960 0.949095
Zn3   Zn    Zn3+2 0.069080 0.999990 0.569020 0.962503
Zn4   Zn    Zn3+2 0.930920 0.000070 0.430980 0.959456
Zn5   Zn    Zn3+2 0.930940 0.431040 0.000110 0.965546
Zn6   Zn    Zn3+2 0.069060 0.569140 0.000070 0.976639

loop_
_geom_bond_atom_site_label_1
_geom_bond_atom_site_label_2
_ccdc_geom_bond_type
C19   O19   A    
C55   C56   S    
C5    N3    S    
O8    Zn5   S    
C47   N1    S    
C27   C29   A    
C11   C13   A    
C48   H16   S    
C35   C36   A    
C43   C44   A    
O1    Zn1   S    
C8    N5    S    
C49   N4    S    
C20   C41   S    
C19   C46   S    
C50   H24   S    
C7    C8    A    
C39   C41   A    
C27   C33   A    
C39   H4    S    
C12   C23   S    
C29   C30   A    
C29   C53   S    
C22   O24   A    
C34   C40   S    
O9    Zn6   S    
C15   N6    S    
C36   C37   A    
C16   O13   A    
C21   O22   A    
C51   H30   S    
C30   C31   A    
C2    C60   A    
C57   C59   S    
C10   C17   A    
C10   H23   S    
C1    C2    S    
C31   H38   S    
C49   H21   S    
O2    Zn6   S    
C54   H33   S    
C50   H25   S    
C25   C37   S    
C21   O23   A    
C19   O18   A    
C45   C56   A    
C44   C46   A    
C16   C17   S    
C50   N5    S    
O3    Zn5   S    
O12   Zn4   S    
O6    Zn5   S    
O15   Zn1   S    
C40   C42   A    
O16   Zn2   S    
C59   C60   A    
C13   C14   A    
C48   H15   S    
C36   H2    S    
C14   H36   S    
C28   O16   A    
C2    C45   A    
O14   Zn2   S    
H18   N4    S    
C26   O9    A    
C47   H13   S    
C12   C46   A    
C25   O6    A    
C20   O20   A    
O24   Zn5   S    
H31   N9    S    
C8    C9    A    
C58   C59   A    
C48   N3    S    
C49   H19   S    
C54   N9    S    
O13   Zn1   S    
C48   H17   S    
C12   C40   A    
O18   Zn3   S    
H22   N5    S    
C47   H10   S    
C54   H32   S    
C37   C38   A    
C3    C9    A    
C18   O17   A    
C31   C32   A    
C23   C34   S    
C45   H8    S    
O23   Zn4   S    
C57   N2    T    
C47   H11   S    
C54   H35   S    
C18   O12   A    
C11   H34   S    
C22   O2    A    
C7    N4    S    
C55   N10   T    
O19   Zn4   S    
C13   C26   S    
O7    Zn6   S    
C42   C43   A    
C20   O21   A    
C23   H6    S    
C60   N1    S    
C28   O15   A    
C43   H1    S    
C38   H3    S    
C51   H28   S    
C15   C17   A    
C27   H37   S    
C22   C30   S    
C26   O8    A    
C52   N7    T    
C3    C5    A    
C25   O7    A    
C34   H7    S    
C49   H20   S    
C6    C7    A    
H9    N1    S    
C32   H39   S    
O10   Zn1   S    
C32   C33   A    
C23   H5    S    
C3    H12   S    
C16   O14   A    
O21   Zn4   S    
C1    O1    A    
C6    C21   S    
C53   N8    T    
C44   C52   S    
C38   C39   A    
H27   N6    S    
C4    C42   S    
C51   N6    S    
C56   C58   A    
C4    O11   A    
O11   Zn2   S    
C35   C41   A    
C18   C33   S    
C10   C11   A    
C50   H26   S    
C24   O3    A    
O5    Zn6   S    
C24   O5    A    
C24   C58   S    
C1    O4    A    
C5    C6    A    
C34   N9    S    
O4    Zn2   S    
C14   C15   A    
C4    O10   A    
O17   Zn3   S    
O22   Zn3   S    
O20   Zn3   S    
C51   H29   S    
C35   H40   S    
C9    C28   S    
H14   N3    S    
