data_mof_unit_29073.cif
_audit_creation_date              2012-12-10T16:52:38-0500
_audit_creation_method            fapswitch 2.2
_symmetry_space_group_name_H-M    P1
_symmetry_Int_Tables_number       1
_space_group_crystal_system       triclinic
_cell_length_a                    13.080549
_cell_length_b                    10.929206
_cell_length_c                    9.756382
_cell_angle_alpha                 90.478801
_cell_angle_beta                  96.842586
_cell_angle_gamma                 90.318589
_cell_volume                      1384.7593221

loop_
_atom_site_label
_atom_site_type_symbol
_atom_type_description
_atom_site_fract_x
_atom_site_fract_y
_atom_site_fract_z
_atom_type_partial_charge
C1    C     C_R   0.499076 0.265894 0.499155 0.807921
C2    C     C_2   0.490876 0.133842 0.494107 -0.042228
C3    C     C_2   0.509467 0.404730 0.927639 0.360114
C4    C     C_R   0.300402 0.497858 0.473209 0.854581
C5    C     C_2   0.477007 0.406347 0.069767 0.220361
C6    C     C_R   0.505864 0.734360 0.501181 0.836089
C7    C     C_R   0.699319 0.505390 0.526549 0.838846
C8    C     C_R   0.812558 0.515119 0.543063 -0.296196
C9    C     C_R   0.186745 0.500115 0.456613 -0.308774
C10   C     C_R   0.025177 0.554551 0.320622 0.118078
C11   C     C_R   0.130378 0.527568 0.328290 0.358287
C12   C     C_R   0.028173 0.503426 0.565002 -0.230648
C13   C     C_R   0.134230 0.479903 0.572362 0.414786
C14   C     C_3   0.822067 0.333043 0.805273 -0.246145
C15   C     C_3   0.054015 0.609152 0.859206 -0.245818
C16   C     C_3   0.174062 0.416584 0.147207 -0.261476
C17   C     C_3   0.187481 0.307702 0.687716 -0.227306
C18   C     C_R   0.972369 0.539339 0.438250 -0.039468
C19   C     C_R   0.864750 0.555048 0.431842 0.109905
C20   C     C_R   0.869766 0.485925 0.670110 0.349492
C21   C     C_R   0.976881 0.493164 0.683720 0.435123
C22   C     C_2   0.537127 0.936694 0.398205 0.165375
C23   C     C_2   0.524477 0.865588 0.507556 -0.353391
C24   C     C_2   0.553412 0.068850 0.420267 0.180457
Cu1   Cu    Cu3+1 0.500020 0.500020 0.638640 0.987158
Cu2   Cu    Cu3+1 0.499980 0.499980 0.361360 0.941034
H1    H     H_    0.546125 0.564918 0.119383 0.195914
H2    H     H_    0.378562 0.608669 0.827648 0.274033
H3    H     H_    0.475530 0.235805 0.148125 0.250635
H4    H     H_    0.376197 0.325910 0.185903 0.263368
H5    H     H_    0.786802 0.313242 0.900541 0.176021
H6    H     H_    0.901654 0.295916 0.819959 0.155270
H7    H     H_    0.775440 0.285227 0.717722 0.138892
H8    H     H_    0.012520 0.674187 0.161323 0.231640
H9    H     H_    0.971395 0.529354 0.117454 0.246541
H10   H     H_    0.982815 0.659710 0.875685 0.152944
H11   H     H_    0.097634 0.659602 0.785938 0.155601
H12   H     H_    0.532309 0.906213 0.610403 0.156032
H13   H     H_    0.104028 0.606677 0.958840 0.215014
H14   H     H_    0.094237 0.390660 0.105240 0.162476
H15   H     H_    0.205941 0.344773 0.220212 0.127589
H16   H     H_    0.220379 0.418297 0.059101 0.222072
H17   H     H_    0.227011 0.273855 0.600063 0.111071
H18   H     H_    0.107927 0.269527 0.680377 0.141048
H19   H     H_    0.230737 0.273283 0.784302 0.178760
H20   H     H_    0.465435 0.850340 0.226779 0.253138
H21   H     H_    0.595738 0.825838 0.257977 0.223222
H22   H     H_    0.673126 0.065989 0.301893 0.228040
H23   H     H_    0.769749 0.551695 0.249281 0.256007
H24   H     H_    0.687748 0.163192 0.435939 0.185010
H25   H     H_    0.760880 0.681813 0.348699 0.211955
H26   H     H_    0.415139 0.099938 0.659175 0.219478
H27   H     H_    0.338624 0.114514 0.508070 0.200619
H28   H     H_    0.612949 0.268516 0.951600 0.176026
H29   H     H_    0.494882 0.225271 0.878364 0.207050
H30   H     H_    0.491958 0.675546 0.885274 0.224913
N1    N     N_2   0.498860 0.498660 0.846770 -0.131396
N2    N     N_3   0.633847 0.129332 0.356714 -0.587672
N3    N     N_2   0.498840 0.498630 0.152900 -0.286889
N4    N     N_3   0.810152 0.615784 0.315266 -0.532256
N5    N     N_3   0.407553 0.077135 0.554171 -0.619229
N6    N     N_3   0.551145 0.293702 0.879709 -0.547046
N7    N     N_3   0.446395 0.597910 0.894298 -0.527735
N8    N     N_3   0.422015 0.301473 0.110038 -0.621337
N9    N     N_3   0.972915 0.597953 0.192637 -0.538304
N10   N     N_3   0.537055 0.890159 0.259931 -0.590526
O1    O     O_R   0.500020 0.321960 0.617050 -0.561386
O2    O     O_3   0.030384 0.487973 0.814576 -0.541868
O3    O     O_3   0.178391 0.533946 0.209713 -0.565902
O4    O     O_3   0.186999 0.436694 0.693796 -0.515390
O5    O     O_R   0.499980 0.321920 0.382890 -0.582080
O6    O     O_R   0.349010 0.500000 0.598060 -0.546250
O7    O     O_R   0.348980 0.499950 0.363910 -0.537437
O8    O     O_R   0.500020 0.678080 0.617110 -0.595629
O9    O     O_R   0.499980 0.678040 0.382950 -0.584694
O10   O     O_R   0.651020 0.500050 0.636090 -0.512398
O11   O     O_R   0.650990 0.500000 0.401940 -0.605980
O12   O     O_3   0.821636 0.460766 0.785608 -0.535133

loop_
_geom_bond_atom_site_label_1
_geom_bond_atom_site_label_2
_ccdc_geom_bond_type
H4    N8    S    
Cu1   O1    S    
C14   H5    S    
C14   H7    S    
C7    C8    S    
C8    C20   A    
H23   N4    S    
C17   H19   S    
H20   N10   S    
H26   N5    S    
C10   N9    S    
C13   O4    S    
C15   O2    S    
H29   N6    S    
Cu2   O7    S    
Cu1   O8    S    
C9    C13   A    
C22   N10   S    
H27   N5    S    
C15   H11   S    
N1    N7    S    
Cu2   N3    S    
H21   N10   S    
C2    N5    S    
C7    O11   A    
H3    N8    S    
C17   O4    S    
Cu2   O11   S    
Cu2   O5    S    
Cu1   N1    S    
H8    N9    S    
C6    O8    A    
C8    C19   A    
C5    N3    D    
H24   N2    S    
C6    O9    A    
C18   C19   A    
H28   N6    S    
Cu1   Cu2   S    
C12   C21   A    
C5    N8    S    
C17   H17   S    
Cu2   O9    S    
H30   N7    S    
Cu1   O6    S    
C1    O5    A    
C12   C13   A    
C9    C11   A    
C15   H13   S    
C4    O7    A    
C16   H14   S    
C3    N1    D    
C21   O2    S    
C2    C24   D    
C22   C24   S    
C16   H16   S    
C15   H10   S    
C4    O6    A    
C3    N6    S    
C16   O3    S    
C14   H6    S    
C3    C5    S    
C11   O3    S    
H22   N2    S    
C7    O10   A    
C19   N4    S    
C23   H12   S    
C20   O12   S    
Cu1   O10   S    
C17   H18   S    
H1    N3    S    
C10   C18   A    
C6    C23   S    
C1    C2    S    
C1    O1    A    
C14   O12   S    
C10   C11   A    
H2    N7    S    
C20   C21   A    
C24   N2    S    
C12   C18   A    
H9    N9    S    
C22   C23   D    
H25   N4    S    
C4    C9    S    
C16   H15   S    
