data_mof_unit_8936.cif
_audit_creation_date              2012-12-11T16:52:20-0500
_audit_creation_method            fapswitch 2.2
_symmetry_space_group_name_H-M    P1
_symmetry_Int_Tables_number       1
_space_group_crystal_system       triclinic
_cell_length_a                    7.196698
_cell_length_b                    26.065414
_cell_length_c                    28.734786
_cell_angle_alpha                 89.999909
_cell_angle_beta                  90.001003
_cell_angle_gamma                 90.00324
_cell_volume                      5390.21231677

loop_
_atom_site_label
_atom_site_type_symbol
_atom_type_description
_atom_site_fract_x
_atom_site_fract_y
_atom_site_fract_z
_atom_type_partial_charge
O1    O     O_R   0.601030 0.796770 0.202460 -0.537155
O2    O     O_R   0.398970 0.203230 0.797540 -0.537155
O3    O     O_R   0.398970 0.203230 0.702460 -0.537160
O4    O     O_R   0.601030 0.796770 0.297540 -0.537160
O5    O     O_R   0.101030 0.703230 0.297540 -0.537161
O6    O     O_R   0.898970 0.296770 0.702460 -0.537161
O7    O     O_R   0.898970 0.296770 0.797540 -0.537145
O8    O     O_R   0.101030 0.703230 0.202460 -0.537145
O9    O     O_R   0.271290 0.802910 0.297210 -0.539914
O10   O     O_R   0.728710 0.197090 0.702790 -0.539914
O11   O     O_R   0.728710 0.197090 0.797210 -0.539903
O12   O     O_R   0.271290 0.802910 0.202790 -0.539903
O13   O     O_R   0.771290 0.697090 0.202790 -0.539901
O14   O     O_R   0.228710 0.302910 0.797210 -0.539901
O15   O     O_R   0.228710 0.302910 0.702790 -0.539912
O16   O     O_R   0.771290 0.697090 0.297210 -0.539912
C1    C     C_R   0.440116 0.815415 0.312630 0.682297
C2    C     C_R   0.559883 0.184585 0.687370 0.682298
C3    C     C_R   0.559885 0.184584 0.812628 0.682329
C4    C     C_R   0.440115 0.815416 0.187372 0.682329
C5    C     C_R   0.940112 0.684582 0.187374 0.682313
C6    C     C_R   0.059888 0.315418 0.812626 0.682312
C7    C     C_R   0.059888 0.315416 0.687370 0.682279
C8    C     C_R   0.940112 0.684584 0.312630 0.682279
O17   O     O_3   0.434520 0.717290 0.250000 -0.374632
O18   O     O_3   0.565480 0.282710 0.750000 -0.374632
O19   O     O_3   0.934520 0.782710 0.250000 -0.374630
O20   O     O_3   0.065480 0.217290 0.750000 -0.374630
V1    V     V_3+5 0.159680 0.756060 0.250000 1.390335
V2    V     V_3+5 0.840320 0.243940 0.750000 1.390335
V3    V     V_3+5 0.659680 0.743940 0.250000 1.390340
V4    V     V_3+5 0.340320 0.256060 0.750000 1.390340
C9    C     C_R   0.875281 0.373965 0.635128 -0.165146
C10   C     C_R   0.124719 0.626035 0.364871 -0.165146
C11   C     C_R   0.124623 0.625803 0.135335 -0.165210
C12   C     C_R   0.875377 0.374197 0.864664 -0.165210
C13   C     C_R   0.375323 0.125934 0.864778 -0.165182
C14   C     C_R   0.624677 0.874066 0.135222 -0.165182
C15   C     C_R   0.624741 0.873946 0.364885 -0.165145
C16   C     C_R   0.375259 0.126054 0.635114 -0.165145
H1    H     H_    0.748240 0.362206 0.652278 0.126576
H2    H     H_    0.251760 0.637794 0.347722 0.126576
H3    H     H_    0.251545 0.637383 0.152639 0.126631
H4    H     H_    0.748455 0.362617 0.847360 0.126631
H5    H     H_    0.248349 0.137616 0.847561 0.126614
H6    H     H_    0.751651 0.862384 0.152439 0.126614
H7    H     H_    0.751780 0.862172 0.347748 0.126581
H8    H     H_    0.248220 0.137828 0.652252 0.126581
C17   C     C_R   0.862995 0.409462 0.598730 -0.136645
C18   C     C_R   0.137005 0.590538 0.401270 -0.136645
C19   C     C_R   0.136941 0.590296 0.098945 -0.136571
C20   C     C_R   0.863059 0.409704 0.901055 -0.136571
C21   C     C_R   0.363016 0.090429 0.901170 -0.136601
C22   C     C_R   0.636984 0.909571 0.098829 -0.136601
C23   C     C_R   0.637034 0.909445 0.401282 -0.136635
C24   C     C_R   0.362966 0.090554 0.598718 -0.136635
H9    H     H_    0.728076 0.424575 0.589189 0.106789
H10   H     H_    0.271924 0.575425 0.410811 0.106789
H11   H     H_    0.271751 0.574989 0.089572 0.106861
H12   H     H_    0.728249 0.425011 0.910427 0.106861
H13   H     H_    0.228157 0.075226 0.910633 0.106824
H14   H     H_    0.771843 0.924774 0.089367 0.106824
H15   H     H_    0.771956 0.924548 0.410831 0.106784
H16   H     H_    0.228044 0.075452 0.589169 0.106784
C25   C     C_R   0.023164 0.425627 0.575088 0.114943
C26   C     C_R   0.976836 0.574373 0.424912 0.114944
C27   C     C_R   0.976929 0.574364 0.075104 0.114900
C28   C     C_R   0.023071 0.425636 0.924896 0.114900
C29   C     C_R   0.523097 0.074366 0.924901 0.114880
C30   C     C_R   0.476903 0.925634 0.075099 0.114880
C31   C     C_R   0.476867 0.925628 0.424910 0.114923
C32   C     C_R   0.523133 0.074372 0.575090 0.114923
C33   C     C_R   0.196857 0.406857 0.589504 -0.151579
C34   C     C_R   0.803143 0.593143 0.410496 -0.151579
C35   C     C_R   0.803311 0.593359 0.089333 -0.151598
C36   C     C_R   0.196689 0.406641 0.910667 -0.151598
C37   C     C_R   0.696750 0.093239 0.910568 -0.151589
C38   C     C_R   0.303250 0.906761 0.089432 -0.151589
C39   C     C_R   0.303169 0.906873 0.410480 -0.151586
C40   C     C_R   0.696831 0.093127 0.589520 -0.151586
H17   H     H_    0.322519 0.419233 0.572033 0.108646
H18   H     H_    0.677481 0.580767 0.427966 0.108646
H19   H     H_    0.677749 0.581163 0.071715 0.108607
H20   H     H_    0.322251 0.418837 0.928285 0.108607
H21   H     H_    0.822353 0.080939 0.928103 0.108626
H22   H     H_    0.177647 0.919061 0.071897 0.108626
H23   H     H_    0.177510 0.919265 0.427938 0.108641
H24   H     H_    0.822490 0.080735 0.572062 0.108641
C41   C     C_R   0.209639 0.371462 0.626134 -0.163433
C42   C     C_R   0.790361 0.628538 0.373866 -0.163433
C43   C     C_R   0.790486 0.628749 0.125966 -0.163438
C44   C     C_R   0.209513 0.371251 0.874034 -0.163438
C45   C     C_R   0.709560 0.128631 0.873937 -0.163426
C46   C     C_R   0.290440 0.871369 0.126063 -0.163425
C47   C     C_R   0.290378 0.871478 0.373850 -0.163426
C48   C     C_R   0.709622 0.128522 0.626150 -0.163426
H25   H     H_    0.345542 0.357299 0.635967 0.122261
H26   H     H_    0.654458 0.642701 0.364033 0.122261
H27   H     H_    0.654664 0.643090 0.135652 0.122278
H28   H     H_    0.345335 0.356910 0.864348 0.122278
H29   H     H_    0.845420 0.142871 0.864166 0.122283
H30   H     H_    0.154580 0.857129 0.135834 0.122283
H31   H     H_    0.154469 0.857331 0.364004 0.122269
H32   H     H_    0.845531 0.142669 0.635996 0.122269
C49   C     C_R   0.048687 0.354188 0.649254 -0.049414
C50   C     C_R   0.951313 0.645812 0.350746 -0.049414
C51   C     C_R   0.951319 0.645804 0.149268 -0.049393
C52   C     C_R   0.048681 0.354196 0.850732 -0.049394
C53   C     C_R   0.548676 0.145810 0.850738 -0.049424
C54   C     C_R   0.451324 0.854190 0.149262 -0.049424
C55   C     C_R   0.451327 0.854186 0.350745 -0.049424
C56   C     C_R   0.548673 0.145814 0.649254 -0.049424
C57   C     C_R   0.096952 0.510989 0.540884 -0.195605
C58   C     C_R   0.903048 0.489010 0.459115 -0.195605
C59   C     C_R   0.901614 0.489195 0.040710 -0.195582
C60   C     C_R   0.098385 0.510805 0.959290 -0.195582
C61   C     C_R   0.597647 0.989102 0.959198 -0.195540
C62   C     C_R   0.402353 0.010898 0.040802 -0.195540
C63   C     C_R   0.403044 0.010984 0.459114 -0.195576
C64   C     C_R   0.596956 0.989016 0.540886 -0.195576
H33   H     H_    0.170860 0.519575 0.572819 0.127974
H34   H     H_    0.829140 0.480425 0.427180 0.127974
H35   H     H_    0.826566 0.480753 0.072512 0.127914
H36   H     H_    0.173434 0.519247 0.927488 0.127914
H37   H     H_    0.672129 0.980595 0.927327 0.127921
H38   H     H_    0.327871 0.019405 0.072673 0.127921
H39   H     H_    0.329119 0.019562 0.427178 0.127957
H40   H     H_    0.670881 0.980438 0.572822 0.127957
C65   C     C_R   0.087736 0.548112 0.505422 0.176879
C66   C     C_R   0.912264 0.451888 0.494578 0.176879
C67   C     C_R   0.910694 0.452085 0.005234 0.176895
C68   C     C_R   0.089306 0.547915 0.994765 0.176895
C69   C     C_R   0.588519 0.951993 0.994673 0.176834
C70   C     C_R   0.411481 0.048007 0.005327 0.176834
C71   C     C_R   0.412233 0.048103 0.494581 0.176853
C72   C     C_R   0.587767 0.951897 0.505419 0.176853
C73   C     C_R   0.990280 0.536895 0.463846 0.023413
C74   C     C_R   0.009720 0.463104 0.536154 0.023413
C75   C     C_R   0.009601 0.463115 0.963833 0.023480
C76   C     C_R   0.990399 0.536885 0.036167 0.023480
C77   C     C_R   0.490360 0.963113 0.036163 0.023471
C78   C     C_R   0.509640 0.036886 0.963837 0.023471
C79   C     C_R   0.509688 0.036892 0.536156 0.023436
C80   C     C_R   0.490312 0.963108 0.463844 0.023436
C81   C     C_3   0.176673 0.599760 0.513265 -0.782485
H41   H     H_    0.230456 0.603679 0.549326 0.204196
H42   H     H_    0.295386 0.605094 0.489152 0.203689
H43   H     H_    0.072966 0.630656 0.507497 0.215867
C82   C     C_3   0.823327 0.400240 0.486735 -0.782484
H44   H     H_    0.769544 0.396321 0.450674 0.204196
H45   H     H_    0.927034 0.369344 0.492503 0.215867
H46   H     H_    0.704614 0.394906 0.510848 0.203688
C83   C     C_3   0.820061 0.400633 0.012901 -0.782595
H47   H     H_    0.765466 0.396788 0.048891 0.204251
H48   H     H_    0.701651 0.395621 0.988639 0.203513
H49   H     H_    0.922937 0.369509 0.007217 0.215940
C84   C     C_3   0.179939 0.599367 0.987099 -0.782595
H50   H     H_    0.234534 0.603212 0.951109 0.204251
H51   H     H_    0.077063 0.630491 0.992783 0.215940
H52   H     H_    0.298349 0.604379 0.011361 0.203513
C85   C     C_3   0.678338 0.900456 0.986924 -0.782612
H53   H     H_    0.732481 0.896575 0.950895 0.204264
H54   H     H_    0.796910 0.895317 0.011110 0.203621
H55   H     H_    0.575080 0.869437 0.992671 0.215932
C86   C     C_3   0.321662 0.099544 0.013076 -0.782612
H56   H     H_    0.267519 0.103425 0.049105 0.204264
H57   H     H_    0.424920 0.130563 0.007329 0.215932
H58   H     H_    0.203090 0.104683 0.988890 0.203621
C87   C     C_3   0.323263 0.099740 0.486739 -0.782542
H59   H     H_    0.269520 0.103656 0.450675 0.204222
H60   H     H_    0.204532 0.105048 0.510847 0.203694
H61   H     H_    0.426929 0.130646 0.492523 0.215887
C88   C     C_3   0.676737 0.900260 0.513261 -0.782542
H62   H     H_    0.730480 0.896344 0.549324 0.204222
H63   H     H_    0.573071 0.869354 0.507476 0.215887
H64   H     H_    0.795468 0.894952 0.489152 0.203694

loop_
_geom_bond_atom_site_label_1
_geom_bond_atom_site_label_2
_ccdc_geom_bond_type
O17   V3    S    
C32   C79   S    
C57   H33   S    
O18   V4    S    
C86   H56   S    
O12   V1    S    
C12   C52   A    
C87   H60   S    
C87   H59   S    
C29   C37   A    
C10   H2    S    
C62   C77   A    
C21   C29   A    
C36   H20   S    
C39   H23   S    
C81   H41   S    
C27   C35   A    
C25   C33   A    
O15   V4    S    
C16   C56   A    
C59   C67   A    
C88   H62   S    
O16   V3    S    
C48   C56   A    
O11   C3    A    
C84   H50   S    
C17   C25   A    
O8    V1    S    
C2    C56   S    
C82   H45   S    
C30   C38   A    
C9    C17   A    
C26   C34   A    
O1    V3    S    
C17   H9    S    
O19   V1    S    
O3    C2    A    
O2    V4    S    
C58   C73   A    
C69   C85   S    
C20   H12   S    
C85   H54   S    
C61   C69   A    
C21   H13   S    
C44   C52   A    
C15   C23   A    
C68   C76   A    
O11   V2    S    
C16   C24   A    
C22   C30   A    
C24   H16   S    
C14   C54   A    
C11   H3    S    
C13   C53   A    
C12   C20   A    
O9    V1    S    
C60   C75   A    
C13   C21   A    
C38   H22   S    
O15   C7    A    
C37   H21   S    
C14   C22   A    
O16   C8    A    
O7    V2    S    
C40   H24   S    
C63   C80   A    
C58   C66   A    
C64   C79   A    
C34   H18   S    
C1    C55   S    
C33   H17   S    
C81   H42   S    
C47   H31   S    
C85   H53   S    
O5    V1    S    
C3    C53   S    
C10   C18   A    
C59   H35   S    
C10   C50   A    
C11   C51   A    
C43   C51   A    
C67   C83   S    
C9    C49   A    
C42   C50   A    
C26   C73   S    
C82   H46   S    
C45   H29   S    
C22   H14   S    
C24   C32   A    
C20   C28   A    
C46   C54   A    
C63   C71   A    
C31   C39   A    
C32   C40   A    
C23   H15   S    
C64   C72   A    
C18   H10   S    
C40   C48   A    
C84   H51   S    
C39   C47   A    
C70   C78   A    
O10   V2    S    
C60   C68   A    
C8    C50   S    
O12   C4    A    
C66   C82   S    
O8    C5    A    
C70   C86   S    
O13   C5    A    
C19   C27   A    
C83   H49   S    
C27   C76   S    
C18   C26   A    
C83   H48   S    
C5    C51   S    
C88   H63   S    
C57   C65   A    
C36   C44   A    
C4    C54   S    
O4    C1    A    
O9    C1    A    
O6    V2    S    
C86   H58   S    
C48   H32   S    
C11   C19   A    
O14   C6    A    
C87   H61   S    
C12   H4    S    
C19   H11   S    
C25   C74   S    
C13   H5    S    
C66   C74   A    
C85   H55   S    
C81   H43   S    
C44   H28   S    
C15   H7    S    
C88   H64   S    
C16   H8    S    
C72   C88   S    
C30   C77   S    
C60   H36   S    
O2    C3    A    
C7    C49   S    
C65   C81   S    
O13   V3    S    
O14   V4    S    
O1    C4    A    
C62   C70   A    
C64   H40   S    
C38   C46   A    
C35   C43   A    
C84   H52   S    
C28   C36   A    
O7    C6    A    
C69   C77   A    
C68   C84   S    
C9    H1    S    
C41   C49   A    
C34   C42   A    
O20   V2    S    
C61   C78   A    
C29   C78   S    
C33   C41   A    
C72   C80   A    
C47   C55   A    
C82   H44   S    
C15   C55   A    
C35   H19   S    
O5    C8    A    
O10   C2    A    
C6    C52   S    
O6    C7    A    
C37   C45   A    
C71   C79   A    
C71   C87   S    
O3    V4    S    
C14   H6    S    
O4    V3    S    
C67   C75   A    
C58   H34   S    
C65   C73   A    
C59   C76   A    
C46   H30   S    
C86   H57   S    
C41   H25   S    
C57   C74   A    
C28   C75   S    
C62   H38   S    
C43   H27   S    
C83   H47   S    
C61   H37   S    
C42   H26   S    
C23   C31   A    
C45   C53   A    
C31   C80   S    
C63   H39   S    
