data_mof_unit_21519.cif
_audit_creation_date              2012-12-10T20:32:00-0500
_audit_creation_method            fapswitch 2.2
_symmetry_space_group_name_H-M    P1
_symmetry_Int_Tables_number       1
_space_group_crystal_system       triclinic
_cell_length_a                    9.91124
_cell_length_b                    10.700479
_cell_length_c                    15.464142
_cell_angle_alpha                 90.773879
_cell_angle_beta                  67.980273
_cell_angle_gamma                 89.782351
_cell_volume                      1520.20792475

loop_
_atom_site_label
_atom_site_type_symbol
_atom_type_description
_atom_site_fract_x
_atom_site_fract_y
_atom_site_fract_z
_atom_type_partial_charge
C1    C     C_R   0.499168 0.739922 0.501185 0.902669
C2    C     C_R   0.702539 0.612424 0.045828 0.118178
C3    C     C_R   0.583717 0.530766 0.088865 0.072823
C4    C     C_R   0.408624 0.500105 0.675952 0.899247
C5    C     C_R   0.796138 0.644551 0.093111 -0.034577
C6    C     C_R   0.758082 0.607364 0.185445 -0.302326
C7    C     C_R   0.576021 0.468036 0.170244 -0.102670
C8    C     C_R   0.365778 0.937092 0.523965 0.123737
C9    C     C_R   0.493607 0.871941 0.511912 -0.103588
C10   C     C_R   0.615254 0.935745 0.514641 -0.145992
C11   C     C_R   0.614390 0.064433 0.516663 -0.197128
C12   C     C_R   0.399501 0.526243 0.918940 0.078526
C13   C     C_R   0.493195 0.128888 0.513426 -0.108063
C14   C     C_R   0.365811 0.064845 0.524282 0.119820
C15   C     C_3   0.270250 0.071601 0.469138 -0.431021
C16   C     C_R   0.499195 0.260218 0.501752 0.869295
C17   C     C_3   0.270138 0.929927 0.468809 -0.456641
C18   C     C_R   0.906259 0.597862 0.538840 0.126341
C19   C     C_R   0.957227 0.409179 0.453229 0.002068
C20   C     C_R   0.100449 0.409749 0.454113 -0.086667
C21   C     C_R   0.048312 0.597288 0.539052 0.185329
C22   C     C_3   0.998260 0.640736 0.638000 -0.567746
C23   C     C_R   0.265861 0.466092 0.971314 0.057003
C24   C     C_3   0.844444 0.641667 0.638324 -0.237810
C25   C     C_R   0.591116 0.500937 0.324308 0.854004
C26   C     C_R   0.350240 0.497556 0.777694 -0.058013
C27   C     C_R   0.647690 0.520414 0.224156 -0.116278
C28   C     C_R   0.179621 0.416087 0.922774 0.017240
C29   C     C_R   0.219810 0.438253 0.827407 -0.221756
C30   C     C_R   0.436844 0.541861 0.823429 -0.186625
C31   C     C_2   0.072385 0.445941 0.134618 0.476000
C32   C     C_2   0.930020 0.719927 0.052251 0.359671
C33   C     C_2   0.920409 0.309401 0.399269 0.508207
C34   C     C_R   0.498373 0.561060 0.961596 0.062575
C35   C     C_2   0.510016 0.341612 0.194341 0.405083
C36   C     C_2   0.779760 0.770749 0.648077 0.444219
C37   C     C_2   0.062940 0.323029 0.961981 0.344253
C38   C     C_R   0.473053 0.519061 0.051937 0.062767
C39   C     C_R   0.331555 0.481091 0.107335 -0.126644
C40   C     C_R   0.225516 0.460128 0.069396 -0.011016
C41   C     C_R   0.620539 0.637378 0.917837 -0.239989
C42   C     C_R   0.717630 0.665570 0.960466 -0.167906
H1    H     H_    0.161949 0.113673 0.510280 0.217821
H2    H     H_    0.711972 0.112231 0.513950 0.190306
H3    H     H_    0.326367 0.111497 0.398719 0.213130
H4    H     H_    0.161735 0.890261 0.509703 0.197072
H5    H     H_    0.837904 0.324196 0.370651 0.143960
H6    H     H_    0.015240 0.568796 0.684266 0.223674
H7    H     H_    0.482384 0.305038 0.263894 0.061227
H8    H     H_    0.042203 0.734309 0.644674 0.198710
H9    H     H_    0.773149 0.571185 0.685344 0.181989
H10   H     H_    0.846385 0.848310 0.611706 0.054298
H11   H     H_    0.801637 0.732209 0.926373 0.211290
H12   H     H_    0.326134 0.887384 0.398213 0.214653
H13   H     H_    0.971399 0.321407 0.939590 0.087356
H14   H     H_    0.156602 0.398384 0.789960 0.138320
H15   H     H_    0.538460 0.582187 0.781268 0.170678
H16   H     H_    0.178282 0.337325 0.417601 0.175302
H17   H     H_    0.817058 0.643906 0.226719 0.171975
H18   H     H_    0.300842 0.474564 0.182069 0.181563
H19   H     H_    0.638680 0.684502 0.853481 0.194728
H20   H     H_    0.984126 0.452160 0.110057 0.078578
H21   H     H_    0.966281 0.777513 0.097548 0.098792
H22   H     H_    0.714339 0.887341 0.508737 0.167870
N1    N     N_R   0.856900 0.500860 0.500610 -0.158278
N2    N     N_R   0.142540 0.500820 0.500610 -0.119442
O1    O     O_R   0.385310 0.683210 0.499990 -0.610680
O2    O     O_2   0.006423 0.712300 0.969431 -0.572693
O3    O     O_2   0.986039 0.209587 0.383215 -0.603840
O4    O     O_2   0.493793 0.273622 0.134968 -0.526677
O5    O     O_2   0.651922 0.789498 0.696359 -0.583574
O6    O     O_2   0.072542 0.242445 0.014599 -0.525127
O7    O     O_R   0.614650 0.683240 0.500000 -0.610399
O8    O     O_R   0.319830 0.499970 0.632240 -0.610675
O9    O     O_R   0.549170 0.500000 0.632250 -0.608871
O10   O     O_R   0.385350 0.316760 0.500000 -0.624310
O11   O     O_R   0.614690 0.316790 0.500010 -0.657681
O12   O     O_R   0.450830 0.500000 0.367750 -0.624046
O13   O     O_R   0.680170 0.500030 0.367760 -0.616424
O14   O     O_2   0.042215 0.431060 0.217788 -0.608344
Zn1   Zn    Zn3+2 0.346870 0.499980 0.499990 0.946319
Zn2   Zn    Zn3+2 0.653130 0.500020 0.500010 0.954852

loop_
_geom_bond_atom_site_label_1
_geom_bond_atom_site_label_2
_ccdc_geom_bond_type
C22   H6    S    
C21   N2    A    
C18   C21   A    
C41   C42   A    
C19   C20   A    
C41   H19   S    
C31   O14   D    
C18   N1    A    
C12   C23   A    
C24   C36   S    
C18   C24   S    
C28   C37   S    
C20   N2    A    
C28   C29   A    
C3    C7    A    
C42   H11   S    
C38   C39   A    
C23   C40   A    
C30   H15   S    
C7    C27   A    
C31   C40   S    
C16   O11   A    
C4    O9    A    
C35   O4    D    
C8    C9    A    
C35   H7    S    
C9    C10   A    
C4    O8    A    
C36   H10   S    
C36   O5    D    
C33   O3    D    
C22   H8    S    
C5    C32   S    
C24   H9    S    
C16   O10   A    
C13   C14   A    
C31   H20   S    
C34   C41   A    
C25   O12   A    
C1    C9    S    
C17   H4    S    
C3    C38   A    
C19   C33   S    
C39   C40   A    
C6    C27   A    
C11   H2    S    
C23   C28   A    
C26   C30   A    
C33   H5    S    
C22   C24   S    
C13   C16   S    
C2    C5    A    
C15   H3    S    
O8    Zn1   S    
C20   H16   S    
O7    Zn2   S    
C15   C17   S    
C8    C14   A    
C12   C30   A    
C34   C38   A    
C7    C35   S    
C6    H17   S    
C10   H22   S    
C32   H21   S    
C25   O13   A    
O10   Zn1   S    
O13   Zn2   S    
C4    C26   S    
O9    Zn2   S    
O1    Zn1   S    
C29   H14   S    
C25   C27   S    
C8    C17   S    
C32   O2    D    
C1    O7    A    
C2    C3    A    
C15   H1    S    
N2    Zn1   S    
C11   C13   A    
O12   Zn1   S    
N1    Zn2   S    
C5    C6    A    
O11   Zn2   S    
C2    C42   A    
C39   H18   S    
C1    O1    A    
C19   N1    A    
C10   C11   A    
C37   H13   S    
C26   C29   A    
C37   O6    D    
C14   C15   S    
C21   C22   S    
C12   C34   A    
C17   H12   S    
