data_mof_unit_27304.cif
_audit_creation_date              2012-12-11T14:29:48-0500
_audit_creation_method            fapswitch 2.2
_symmetry_space_group_name_H-M    P1
_symmetry_Int_Tables_number       1
_space_group_crystal_system       triclinic
_cell_length_a                    6.938909
_cell_length_b                    14.828639
_cell_length_c                    16.206274
_cell_angle_alpha                 90.516713
_cell_angle_beta                  90.260348
_cell_angle_gamma                 90.07593
_cell_volume                      1667.45112068

loop_
_atom_site_label
_atom_site_type_symbol
_atom_type_description
_atom_site_fract_x
_atom_site_fract_y
_atom_site_fract_z
_atom_type_partial_charge
O1    O     O_R   0.494400 0.416610 0.413880 -0.528675
O2    O     O_R   0.823920 0.406790 0.585520 -0.528583
O3    O     O_R   0.994250 0.583390 0.586120 -0.537696
C1    C     C_R   0.655676 0.385759 0.614298 0.772598
O4    O     O_R   0.824110 0.405730 0.414490 -0.542254
O5    O     O_R   0.994440 0.582310 0.413870 -0.525832
C2    C     C_R   0.654979 0.386566 0.384582 0.732979
O6    O     O_R   0.494210 0.417690 0.586130 -0.540908
O7    O     O_3   0.660810 0.557940 0.500000 -0.361476
V1    V     V_3+5 0.935650 0.489250 0.500000 1.535104
O8    O     O_R   0.324160 0.593210 0.414480 -0.525273
C3    C     C_R   0.154772 0.614748 0.386243 0.747281
O9    O     O_R   0.323970 0.594270 0.585510 -0.547224
C4    C     C_R   0.155578 0.616048 0.614033 0.674023
V2    V     V_3+5 0.435660 0.510750 0.500000 1.535040
O10   O     O_3   0.160630 0.442060 0.500000 -0.361812
H1    H     H_    0.353992 0.911016 0.512848 0.145470
C5    C     C_R   0.048407 0.566061 0.779587 -0.142902
C6    C     C_R   0.997986 0.538822 0.858590 -0.199489
C7    C     C_R   0.987781 0.601415 0.923156 0.012625
C8    C     C_R   0.027411 0.692451 0.907618 -0.118649
C9    C     C_R   0.076469 0.722333 0.827521 0.044494
C10   C     C_R   0.088627 0.657534 0.762392 0.069995
C11   C     C_R   0.114012 0.815024 0.812170 -0.177448
C12   C     C_R   0.161328 0.843115 0.730335 -0.008555
C13   C     C_R   0.190139 0.776031 0.667452 0.071076
C14   C     C_R   0.146256 0.684127 0.682425 -0.163994
C15   C     C_R   0.182277 0.936007 0.707955 -0.028963
C16   C     C_R   0.259448 0.958511 0.631037 -0.102570
C17   C     C_R   0.299258 0.892321 0.572782 -0.137331
C18   C     C_R   0.259052 0.802679 0.589361 -0.115686
H2    H     H_    0.057370 0.514113 0.732456 0.125392
H3    H     H_    0.968259 0.468159 0.869401 0.120450
H4    H     H_    0.019624 0.739449 0.958908 0.139331
H5    H     H_    0.279270 0.028458 0.614107 0.164519
H6    H     H_    0.283908 0.754691 0.539966 0.122906
C19   C     C_2   0.000679 0.730994 0.296718 0.111099
C20   C     C_2   0.146539 0.671751 0.311685 0.001416
C21   C     C_2   0.980232 0.781730 0.218511 -0.045933
C22   C     C_2   0.126663 0.828495 0.186202 -0.297201
H7    H     H_    0.837251 0.787051 0.191462 0.175175
H8    H     H_    0.265531 0.828594 0.217354 0.159387
C23   C     C_2   0.770934 0.234932 0.802404 -0.037708
C24   C     C_2   0.620702 0.177970 0.815436 -0.316867
H9    H     H_    0.508781 0.172293 0.768709 0.181718
C25   C     C_2   0.792889 0.280571 0.721321 0.098202
C26   C     C_2   0.644284 0.327047 0.687821 -0.327236
H10   H     H_    0.507131 0.327057 0.719907 0.148953
C27   C     C_2   0.775709 0.213682 0.214740 0.227978
C28   C     C_2   0.616567 0.171573 0.184942 -0.307992
H11   H     H_    0.483009 0.178347 0.219068 0.154507
C29   C     C_2   0.769899 0.265822 0.292916 -0.218774
C30   C     C_2   0.642831 0.332247 0.308381 0.020710
H12   H     H_    0.882751 0.252167 0.337782 0.141954
O11   O     O_R   0.770210 0.079270 0.910680 -0.529401
O12   O     O_R   0.440150 0.091160 0.082270 -0.536132
O13   O     O_R   0.269970 0.914530 0.082860 -0.545552
C31   C     C_R   0.609634 0.112000 0.111375 0.792174
O14   O     O_R   0.440480 0.090100 0.911240 -0.525365
O15   O     O_R   0.270310 0.913460 0.910610 -0.534178
C32   C     C_R   0.609899 0.113627 0.884779 0.822518
O16   O     O_R   0.769870 0.080340 0.082930 -0.522044
O17   O     O_3   0.603660 0.938980 0.996790 -0.387063
V3    V     V_3+5 0.328750 0.007610 0.996740 1.546584
O18   O     O_R   0.940600 0.902510 0.911180 -0.554946
C33   C     C_R   0.108708 0.880829 0.882517 0.659539
O19   O     O_R   0.940270 0.903570 0.082200 -0.546452
C34   C     C_R   0.109545 0.885000 0.112259 0.751433
V4    V     V_3+5 0.828770 0.986010 0.996670 1.514690
O20   O     O_3   0.103730 0.054750 0.996710 -0.342496
I1    I     I_    0.362298 0.639902 0.222210 -0.281098
C35   C     C_2   0.918093 0.256368 0.866904 0.457460
H13   H     H_    0.057326 0.283161 0.849306 0.070495
O21   O     O_2   0.882049 0.249874 0.940289 -0.516665
I2    I     I_    0.069090 0.267439 0.664209 -0.417526
I3    I     I_    0.051304 0.208681 0.159140 -0.286505
I4    I     I_    0.443924 0.379708 0.218333 -0.278610
C36   C     C_2   0.935927 0.570439 0.006733 0.441506
H14   H     H_    0.906750 0.499526 0.017287 0.085640
O22   O     O_2   0.925018 0.623347 0.064707 -0.511253
C37   C     C_2   0.101528 0.011467 0.756881 0.379667
H15   H     H_    0.962089 0.004578 0.785811 0.050522
O23   O     O_2   0.187862 0.082801 0.763554 -0.535607
I5    I     I_    0.781860 0.761397 0.384490 -0.408685

loop_
_geom_bond_atom_site_label_1
_geom_bond_atom_site_label_2
_ccdc_geom_bond_type
C31   O16   A    
C23   C35   S    
O2    C1    A    
C6    C7    A    
C1    O6    A    
C37   H15   S    
C21   H7    S    
C29   C30   D    
C12   C15   A    
C13   C14   A    
C19   C20   D    
C15   C16   A    
O5    C3    A    
C17   C18   A    
C36   O22   D    
V2    O10   S    
C5    C6    A    
C25   C26   D    
O8    V2    S    
O17   V4    S    
O12   V3    S    
C19   I5    S    
O1    V2    S    
V3    O20   S    
C4    C14   S    
O7    V1    S    
C11   C33   S    
C22   H8    S    
O15   C33   A    
C13   C18   A    
O9    C4    A    
H1    C17   S    
C25   I2    S    
C37   O23   D    
C29   H12   S    
C9    C10   A    
O14   C32   A    
O19   C34   A    
C28   C31   S    
C11   C12   A    
C35   O21   D    
C6    H3    S    
C21   C22   D    
O4    C2    A    
C36   H14   S    
C8    H4    S    
C12   C13   A    
C5    C10   A    
O16   V4    S    
O19   V4    S    
C30   I4    S    
C23   C24   D    
C16   C17   A    
C26   H10   S    
C27   C29   S    
C28   H11   S    
O14   V3    S    
C27   I3    S    
O11   V4    S    
O3    C4    A    
O18   C33   A    
O6    V2    S    
C10   C14   A    
O9    V2    S    
C9    C11   A    
C5    H2    S    
C2    C30   S    
O13   C34   A    
O2    V1    S    
C24   H9    S    
O13   V3    S    
C20   I1    S    
C15   C37   S    
O1    C2    A    
C35   H13   S    
O5    V1    S    
O8    C3    A    
C24   C32   S    
C16   H5    S    
C7    C36   S    
O15   V3    S    
O7    V2    S    
O4    V1    S    
C19   C21   S    
O3    V1    S    
V1    O10   S    
O18   V4    S    
O11   C32   A    
O12   C31   A    
C3    C20   S    
V4    O20   S    
C23   C25   S    
O17   V3    S    
C7    C8    A    
C27   C28   D    
C22   C34   S    
C18   H6    S    
C8    C9    A    
C1    C26   S    
