data_mof_unit_8271.cif
_audit_creation_date              2012-12-10T17:12:41-0500
_audit_creation_method            fapswitch 2.2
_symmetry_space_group_name_H-M    P1
_symmetry_Int_Tables_number       1
_space_group_crystal_system       triclinic
_cell_length_a                    23.432429
_cell_length_b                    10.80189
_cell_length_c                    10.004197
_cell_angle_alpha                 90.15343
_cell_angle_beta                  90.035866
_cell_angle_gamma                 89.331661
_cell_volume                      2532.02572894

loop_
_atom_site_label
_atom_site_type_symbol
_atom_type_description
_atom_site_fract_x
_atom_site_fract_y
_atom_site_fract_z
_atom_type_partial_charge
C1    C     C_R   0.499363 0.262664 0.499712 0.925246
C2    C     C_R   0.116755 0.621421 0.505277 0.548673
C3    C     C_R   0.238653 0.551354 0.382136 0.264872
C4    C     C_R   0.389369 0.501781 0.499966 0.891941
C5    C     C_R   0.298154 0.546440 0.383871 -0.283493
C6    C     C_R   0.327262 0.508646 0.499663 -0.062550
C7    C     C_R   0.296736 0.479025 0.615377 -0.211483
C8    C     C_R   0.237595 0.483811 0.614235 -0.154456
C9    C     C_R   0.208551 0.518772 0.497997 0.297796
C10   C     C_R   0.762882 0.437557 0.391260 -0.179486
C11   C     C_R   0.703366 0.439772 0.387796 0.180162
C12   C     C_R   0.977557 0.270566 0.466725 0.224672
C13   C     C_R   0.672915 0.484986 0.500450 -0.074448
C14   C     C_R   0.702601 0.519599 0.616364 -0.265202
C15   C     C_R   0.761697 0.514260 0.619262 -0.099783
C16   C     C_R   0.501523 0.737304 0.500137 0.935447
C17   C     C_R   0.791823 0.475368 0.506084 0.287983
C18   C     C_2   0.504004 0.932984 0.387705 -0.149818
C19   C     C_2   0.507724 0.868352 0.501075 -0.327911
C20   C     C_2   0.507436 0.066581 0.388775 -0.161121
C21   C     C_2   0.495666 0.131287 0.499507 -0.322156
C22   C     C_2   0.540283 0.549000 0.925119 -0.129363
C23   C     C_R   0.036896 0.278655 0.470363 -0.236838
C24   C     C_2   0.538436 0.555591 0.075290 -0.120932
C25   C     C_R   0.610667 0.496172 0.499911 0.880266
C26   C     C_R   0.877358 0.594819 0.510210 0.511530
C27   C     C_R   0.883725 0.374278 0.494708 0.507948
C28   C     C_R   0.943517 0.378438 0.485846 -0.045736
C29   C     C_R   0.970164 0.494970 0.497617 -0.104976
C30   C     C_R   0.937061 0.604762 0.509670 -0.046505
C31   C     C_3   0.939532 0.134983 0.299263 -0.698603
C32   C     C_3   0.654681 0.270287 0.282111 -0.713428
C33   C     C_3   0.930843 0.888799 0.657059 -0.684641
C34   C     C_R   0.063350 0.392895 0.485540 -0.035383
C35   C     C_3   0.193281 0.489920 0.176616 -0.763792
C36   C     C_R   0.030172 0.501771 0.496355 -0.022092
C37   C     C_R   0.057092 0.617344 0.505697 -0.041713
C38   C     C_R   0.024117 0.725672 0.515027 -0.233327
C39   C     C_R   0.964603 0.720436 0.518444 0.212381
C40   C     C_R   0.122704 0.401146 0.487349 0.500717
H1    H     H_    0.784278 0.543353 0.708247 0.144400
H2    H     H_    0.321453 0.571438 0.294575 0.162611
H3    H     H_    0.318483 0.450219 0.705869 0.164651
H4    H     H_    0.214084 0.458529 0.703059 0.147736
H5    H     H_    0.786862 0.406687 0.304543 0.136858
H6    H     H_    0.976786 0.081382 0.477602 0.207649
H7    H     H_    0.979339 0.131012 0.238930 0.215362
H8    H     H_    0.911572 0.211019 0.261554 0.252779
H9    H     H_    0.916498 0.046543 0.286677 0.237822
H10   H     H_    0.696936 0.410292 0.183894 0.216834
H11   H     H_    0.691450 0.204814 0.290490 0.236661
H12   H     H_    0.498509 0.887774 0.291467 0.174819
H13   H     H_    0.629652 0.246579 0.191498 0.230102
H14   H     H_    0.626575 0.259876 0.370654 0.238042
H15   H     H_    0.680182 0.553238 0.704147 0.166756
H16   H     H_    0.062233 0.194894 0.457341 0.193252
H17   H     H_    0.044309 0.815314 0.520484 0.189747
H18   H     H_    0.943390 0.893533 0.451204 0.220385
H19   H     H_    0.974114 0.918670 0.688071 0.206702
H20   H     H_    0.913938 0.822138 0.731185 0.249346
H21   H     H_    0.902066 0.971165 0.654915 0.262116
H22   H     H_    0.229758 0.659516 0.213962 0.233572
H23   H     H_    0.517046 0.910335 0.597008 0.152605
H24   H     H_    0.168856 0.527770 0.090489 0.239653
H25   H     H_    0.165809 0.422938 0.229380 0.267195
H26   H     H_    0.232024 0.441246 0.138284 0.236769
H27   H     H_    0.518551 0.112027 0.295713 0.171765
H28   H     H_    0.481654 0.089241 0.591848 0.153383
H29   H     H_    0.576873 0.588867 0.875594 0.158702
H30   H     H_    0.464360 0.469995 0.897728 0.162235
H31   H     H_    0.571586 0.607554 0.125266 0.166051
H32   H     H_    0.471170 0.446064 0.101903 0.162018
N1    N     N_R   0.852561 0.481291 0.504763 -0.358780
N2    N     N_R   0.147903 0.514124 0.496517 -0.347366
N3    N     N_2   0.500610 0.501330 0.852150 -0.191436
N4    N     N_2   0.500630 0.501360 0.147810 -0.193849
N5    N     N_2   0.953027 0.153700 0.439065 -0.256101
N6    N     N_2   0.674787 0.396048 0.271525 -0.292349
N7    N     N_2   0.932786 0.832734 0.525701 -0.248283
N8    N     N_2   0.209214 0.590035 0.264810 -0.297884
O1    O     O_R   0.499990 0.319060 0.613040 -0.612902
O2    O     O_R   0.583840 0.500020 0.613040 -0.626575
O3    O     O_R   0.583850 0.500060 0.386900 -0.586147
O4    O     O_2   0.843798 0.697134 0.515041 -0.526144
O5    O     O_2   0.856555 0.264834 0.495944 -0.529558
O6    O     O_2   0.155232 0.297389 0.478735 -0.557514
O7    O     O_2   0.143527 0.731071 0.514502 -0.555010
O8    O     O_R   0.500010 0.319100 0.386900 -0.613699
O9    O     O_R   0.416150 0.499940 0.613100 -0.622049
O10   O     O_R   0.416160 0.499980 0.386960 -0.618873
O11   O     O_R   0.499990 0.680900 0.613100 -0.612321
O12   O     O_R   0.500010 0.680940 0.386960 -0.614572
Zn1   Zn    Zn3+2 0.499990 0.499970 0.650990 0.949421
Zn2   Zn    Zn3+2 0.500010 0.500030 0.349010 0.953017

loop_
_geom_bond_atom_site_label_1
_geom_bond_atom_site_label_2
_ccdc_geom_bond_type
C5    H2    S    
C1    C21   S    
C20   H27   S    
H32   N4    S    
C18   H12   S    
C23   H16   S    
C29   C36   A    
C37   C38   A    
C12   C28   A    
C34   C40   A    
H22   N8    S    
C36   C37   A    
C5    C6    A    
C35   H25   S    
C10   C17   A    
C1    O1    A    
C35   N8    S    
C26   N1    A    
C18   C19   D    
C40   O6    S    
C27   O5    S    
N4    Zn2   S    
C19   H23   S    
C8    C9    A    
C31   N5    S    
C35   H24   S    
C7    H3    S    
C22   H29   S    
C18   C20   S    
C2    N2    A    
C1    O8    A    
C14   H15   S    
C33   H19   S    
O2    Zn1   S    
C31   H7    S    
C13   C14   A    
C17   N1    S    
C13   C25   S    
C22   N3    D    
C31   H9    S    
C3    N8    S    
H10   N6    S    
C32   H14   S    
O10   Zn2   S    
C4    O10   A    
O8    Zn2   S    
C7    C8    A    
C15   H1    S    
C4    C6    S    
C33   N7    S    
C35   H26   S    
O3    Zn2   S    
C39   N7    S    
C32   H11   S    
C29   C30   A    
C3    C9    A    
C11   N6    S    
O11   Zn1   S    
C38   H17   S    
O1    Zn1   S    
C12   C23   A    
C23   C34   A    
C12   N5    S    
C10   H5    S    
O12   Zn2   S    
C2    O7    S    
H18   N7    S    
C16   O12   A    
C33   H20   S    
C31   H8    S    
C21   H28   S    
C25   O2    A    
C22   C24   S    
C9    N2    S    
C32   H13   S    
C27   C28   A    
N3    Zn1   S    
C4    O9    A    
C15   C17   A    
C28   C29   A    
C26   O4    S    
C24   N4    D    
C8    H4    S    
C3    C5    A    
H6    N5    S    
C26   C30   A    
C6    C7    A    
C11   C13   A    
C2    C37   A    
C38   C39   A    
C16   C19   S    
C40   N2    A    
C30   C39   A    
C34   C36   A    
O9    Zn1   S    
C10   C11   A    
C32   N6    S    
C20   C21   D    
C16   O11   A    
C33   H21   S    
H30   N3    S    
C25   O3    A    
C14   C15   A    
C27   N1    A    
C24   H31   S    
