data_mof_unit_29481.cif
_audit_creation_date              2012-12-10T17:30:20-0500
_audit_creation_method            fapswitch 2.2
_symmetry_space_group_name_H-M    P1
_symmetry_Int_Tables_number       1
_space_group_crystal_system       triclinic
_cell_length_a                    12.02226
_cell_length_b                    12.837414
_cell_length_c                    14.969579
_cell_angle_alpha                 90.480967
_cell_angle_beta                  85.936414
_cell_angle_gamma                 93.419395
_cell_volume                      2300.39490934

loop_
_atom_site_label
_atom_site_type_symbol
_atom_type_description
_atom_site_fract_x
_atom_site_fract_y
_atom_site_fract_z
_atom_type_partial_charge
C1    C     C_R   0.522295 0.700314 0.497832 0.886120
C2    C     C_R   0.371110 0.138023 0.464699 -0.180104
C3    C     C_R   0.451421 0.867859 0.467481 -0.286315
C4    C     C_R   0.553000 0.132208 0.525666 -0.269984
C5    C     C_R   0.455327 0.974537 0.478053 0.184105
C6    C     C_R   0.549210 0.025577 0.514814 0.177081
C7    C     C_R   0.954287 0.393815 0.421083 0.363580
C8    C     C_R   0.042976 0.583320 0.596860 0.297773
C9    C     C_R   0.837941 0.410948 0.423842 0.203335
C10   C     C_R   0.161298 0.582431 0.581349 0.216225
C11   C     C_R   0.856944 0.536669 0.539663 -0.026772
C12   C     C_R   0.478010 0.299627 0.501493 0.885115
C13   C     C_R   0.142465 0.457954 0.464531 -0.006468
C14   C     C_R   0.974376 0.527531 0.536984 -0.143353
C15   C     C_R   0.024094 0.459381 0.473231 -0.128775
C16   C     C_R   0.499861 0.500569 0.673220 0.892452
C17   C     C_R   0.499933 0.500820 0.326807 0.891135
C18   C     C_R   0.403012 0.468146 0.190887 -0.213166
C19   C     C_R   0.593892 0.540811 0.809383 -0.201889
C20   C     C_R   0.499031 0.504212 0.231212 -0.093063
C21   C     C_R   0.498982 0.502476 0.768990 -0.104776
C22   C     C_R   0.593053 0.545257 0.180765 -0.260431
C23   C     C_R   0.688669 0.582810 0.942398 -0.256134
C24   C     C_R   0.402358 0.467475 0.819674 -0.238150
C25   C     C_R   0.594001 0.547411 0.087940 0.098822
C26   C     C_R   0.400513 0.467545 0.912562 0.096772
C27   C     C_R   0.497525 0.508116 0.046731 0.015234
C28   C     C_R   0.497176 0.506445 0.953737 0.011382
C29   C     C_R   0.401458 0.469849 0.098690 0.094720
C30   C     C_R   0.593757 0.543449 0.901736 0.089312
C31   C     C_R   0.689391 0.586190 0.035464 0.185079
C32   C     C_R   0.304486 0.430303 0.965087 0.200136
C33   C     C_3   0.784063 0.735905 0.100231 -0.748164
C34   C     C_R   0.305730 0.432474 0.058123 -0.270351
C35   C     C_3   0.207221 0.281355 0.901335 -0.758126
C36   C     C_3   0.235276 0.757995 0.614269 -0.635382
C37   C     C_3   0.784212 0.386543 0.271042 -0.640994
C38   C     C_R   0.465101 0.188208 0.499423 -0.059531
C39   C     C_R   0.537052 0.811605 0.497137 -0.061142
C40   C     C_R   0.637956 0.969306 0.539800 -0.186176
C41   C     C_R   0.366179 0.030731 0.453768 -0.207574
C42   C     C_R   0.631658 0.861748 0.531275 -0.181580
H1    H     H_    0.330188 0.437109 0.231281 0.179829
H2    H     H_    0.698385 0.817737 0.553987 0.184024
H3    H     H_    0.710445 0.008063 0.567504 0.162265
H4    H     H_    0.293789 0.992030 0.425870 0.148682
H5    H     H_    0.184468 0.409744 0.415039 0.216220
H6    H     H_    0.815697 0.590145 0.585041 0.222241
H7    H     H_    0.115745 0.162606 0.391740 0.379993
H8    H     H_    0.915791 0.497524 0.754797 0.355583
H9    H     H_    0.860333 0.611027 0.039549 0.245514
H10   H     H_    0.782969 0.784737 0.039356 0.253610
H11   H     H_    0.859540 0.759784 0.135764 0.247552
H12   H     H_    0.666855 0.570390 0.768733 0.216066
H13   H     H_    0.709174 0.749587 0.145673 0.245340
H14   H     H_    0.133383 0.408159 0.960852 0.241992
H15   H     H_    0.207163 0.233068 0.962640 0.250379
H16   H     H_    0.281872 0.265966 0.856184 0.246106
H17   H     H_    0.131488 0.258354 0.865814 0.248502
H18   H     H_    0.238787 0.626485 0.697272 0.260380
H19   H     H_    0.313762 0.796554 0.636477 0.226522
H20   H     H_    0.163946 0.793389 0.651458 0.277985
H21   H     H_    0.230843 0.772876 0.541690 0.216222
H22   H     H_    0.748439 0.279810 0.377168 0.262286
H23   H     H_    0.664813 0.575810 0.214451 0.185883
H24   H     H_    0.708431 0.362472 0.236044 0.226932
H25   H     H_    0.855592 0.347186 0.237907 0.277916
H26   H     H_    0.800809 0.472210 0.264105 0.222530
H27   H     H_    0.329399 0.439198 0.786162 0.191100
H28   H     H_    0.762135 0.611927 0.901921 0.211866
H29   H     H_    0.232276 0.403335 0.098669 0.183125
H30   H     H_    0.625206 0.171863 0.553310 0.163536
H31   H     H_    0.380420 0.828228 0.438245 0.155971
H32   H     H_    0.304065 0.182145 0.443287 0.192959
N1    N     N_R   0.207800 0.519350 0.516680 -0.151482
N2    N     N_R   0.792200 0.480650 0.483320 -0.149676
N3    N     N_2   0.786846 0.626846 0.075590 -0.321206
N4    N     N_2   0.206521 0.390805 0.925031 -0.310503
N5    N     N_2   0.234340 0.647042 0.631344 -0.247740
N6    N     N_2   0.766468 0.357958 0.364622 -0.246820
O1    O     O_R   0.421700 0.658830 0.504450 -0.599092
O2    O     O_2   0.077198 0.327170 0.277354 -0.347454
O3    O     O_3   0.097120 0.227164 0.424793 -0.585842
O4    O     O_2   0.060541 0.669252 0.764890 -0.316395
O5    O     O_2   0.929627 0.741624 0.667740 -0.294576
O6    O     O_3   0.878030 0.561186 0.740451 -0.593123
O7    O     O_R   0.578300 0.341170 0.495550 -0.617731
O8    O     O_R   0.609310 0.646410 0.493750 -0.627772
O9    O     O_R   0.390690 0.353590 0.506250 -0.614332
O10   O     O_R   0.406180 0.506230 0.637500 -0.619666
O11   O     O_R   0.593820 0.493770 0.362500 -0.599616
O12   O     O_R   0.593800 0.493820 0.626800 -0.616144
O13   O     O_R   0.406200 0.506180 0.373200 -0.629882
O14   O     O_2   0.923284 0.206384 0.333954 -0.322283
S1    S     S_3+6 0.011365 0.286540 0.360212 -0.032153
S2    S     S_3+6 0.980039 0.643243 0.694583 -0.026492
Zn1   Zn    Zn3+2 0.374730 0.508290 0.507150 0.970541
Zn2   Zn    Zn3+2 0.625270 0.491710 0.492850 0.970349

loop_
_geom_bond_atom_site_label_1
_geom_bond_atom_site_label_2
_ccdc_geom_bond_type
C25   C31   A    
H18   N5    S    
C33   H13   S    
C16   C21   S    
C27   C29   A    
C17   O11   A    
O12   Zn2   S    
C33   H10   S    
C26   C32   A    
C35   H16   S    
C16   O10   A    
C19   C21   A    
C24   C26   A    
C11   N2    A    
C5    C6    A    
O5    S2    D    
C2    C41   A    
N2    Zn2   S    
C37   H26   S    
N1    Zn1   S    
C17   C20   S    
H14   N4    S    
C35   H17   S    
O4    S2    D    
C13   N1    A    
C22   C25   A    
C8    S2    S    
C41   H4    S    
C9    N2    A    
C36   H21   S    
O10   Zn1   S    
C2    H32   S    
O7    Zn2   S    
C1    O8    A    
C40   C42   A    
C3    C39   A    
H22   N6    S    
C23   H28   S    
C11   H6    S    
C42   H2    S    
C36   H20   S    
C24   H27   S    
C31   N3    S    
C39   C42   A    
C33   H11   S    
C40   H3    S    
C37   N6    S    
C23   C30   A    
C12   O9    A    
C4    C6    A    
C13   H5    S    
H8    O6    S    
C29   C34   A    
O9    Zn1   S    
C9    N6    S    
C32   C34   A    
H9    N3    S    
C22   H23   S    
C10   N1    A    
C2    C38   A    
O3    S1    S    
C37   H24   S    
C18   C29   A    
O6    S2    S    
C19   H12   S    
C4    C38   A    
C16   O12   A    
C13   C15   A    
C6    C40   A    
C17   O13   A    
C36   H19   S    
O13   Zn1   S    
C4    H30   S    
C7    C9    A    
C5    C41   A    
C8    C14   A    
O2    S1    D    
C12   O7    A    
C20   C22   A    
C3    C5    A    
C36   N5    S    
C10   N5    S    
C25   C27   A    
C7    S1    S    
C35   N4    S    
C26   C28   A    
C35   H15   S    
H7    O3    S    
C28   C30   A    
C18   H1    S    
C33   N3    S    
O1    Zn1   S    
C37   H25   S    
C7    C15   A    
C11   C14   A    
C18   C20   A    
O11   Zn2   S    
C12   C38   S    
O14   S1    D    
C3    H31   S    
C1    C39   S    
C32   N4    S    
C8    C10   A    
C21   C24   A    
C27   C28   A    
C14   C15   A    
C19   C30   A    
C1    O1    A    
C34   H29   S    
O8    Zn2   S    
C23   C31   A    
