data_mof_unit_6392.cif
_audit_creation_date              2012-12-10T19:04:44-0500
_audit_creation_method            fapswitch 2.2
_symmetry_space_group_name_H-M    P1
_symmetry_Int_Tables_number       1
_space_group_crystal_system       triclinic
_cell_length_a                    15.865718
_cell_length_b                    10.859994
_cell_length_c                    9.539181
_cell_angle_alpha                 90.075347
_cell_angle_beta                  89.915781
_cell_angle_gamma                 90.150357
_cell_volume                      1643.60732289

loop_
_atom_site_label
_atom_site_type_symbol
_atom_type_description
_atom_site_fract_x
_atom_site_fract_y
_atom_site_fract_z
_atom_type_partial_charge
C1    C     C_R   0.500174 0.262688 0.499788 0.801564
C2    C     C_3   0.082983 0.500061 0.501482 0.078220
C3    C     C_3   0.971976 0.610648 0.459415 -0.184839
C4    C     C_3   0.916789 0.499568 0.500133 0.055201
C5    C     C_3   0.028357 0.523540 0.370597 -0.172631
C6    C     C_3   0.971776 0.411793 0.410718 -0.350455
C7    C     C_1   0.174617 0.500108 0.500957 0.001415
C8    C     C_1   0.825204 0.500563 0.499605 -0.034093
C9    C     C_R   0.499531 0.062200 0.621030 0.132703
C10   C     C_R   0.500980 0.130098 0.498040 -0.104989
C11   C     C_R   0.503342 0.064426 0.370254 -0.221614
C12   C     C_R   0.339829 0.499933 0.500089 0.824023
C13   C     C_R   0.503507 0.935272 0.370356 -0.220175
C14   C     C_R   0.501263 0.869945 0.498251 -0.105732
C15   C     C_R   0.499746 0.938235 0.621169 0.131853
C16   C     C_3   0.496069 0.929717 0.776939 -0.471491
C17   C     C_3   0.495777 0.071530 0.776718 -0.475375
C18   C     C_R   0.541211 0.590507 0.073687 0.255373
C19   C     C_R   0.453002 0.417648 0.074436 -0.075219
C20   C     C_R   0.452978 0.417664 0.925511 -0.072531
C21   C     C_R   0.541206 0.590495 0.926254 0.255889
C22   C     C_3   0.633127 0.619032 0.920284 -0.498669
C23   C     C_R   0.500360 0.737326 0.499896 0.802208
C24   C     C_3   0.633111 0.619271 0.079323 -0.503073
C25   C     C_R   0.660130 0.500302 0.499928 0.825052
C26   C     C_3   0.972171 0.475709 0.628770 0.456664
C27   C     C_3   0.027850 0.389888 0.541538 0.401042
C28   C     C_1   0.250148 0.500025 0.500457 -0.175057
C29   C     C_1   0.749722 0.500629 0.499682 -0.193533
C30   C     C_3   0.027932 0.587051 0.590202 -0.239708
Cu1   Cu    Cu3+1 0.500000 0.499980 0.640670 0.943875
Cu2   Cu    Cu3+1 0.500000 0.500020 0.359330 0.941340
H1    H     H_    0.554352 0.889632 0.822054 0.192531
H2    H     H_    0.435470 0.111898 0.814044 0.192469
H3    H     H_    0.553868 0.113178 0.821625 0.202326
H4    H     H_    0.416263 0.349466 0.130301 0.139127
H5    H     H_    0.416144 0.349616 0.869626 0.138475
H6    H     H_    0.670796 0.542647 0.874911 0.220714
H7    H     H_    0.646017 0.711093 0.874273 0.188690
H8    H     H_    0.671111 0.543179 0.124411 0.223441
H9    H     H_    0.645556 0.711682 0.125196 0.192305
H10   H     H_    0.946909 0.342090 0.336129 0.144869
H11   H     H_    0.053059 0.543934 0.264170 0.159224
H12   H     H_    0.947878 0.701502 0.424836 0.157005
H13   H     H_    0.051619 0.657481 0.664885 0.152642
H14   H     H_    0.504847 0.112046 0.270583 0.166393
H15   H     H_    0.505146 0.887377 0.270721 0.166261
H16   H     H_    0.436013 0.888356 0.814549 0.201086
N1    N     N_R   0.500530 0.500930 0.147930 -0.185037
N2    N     N_R   0.500530 0.500890 0.852020 -0.185027
O1    O     O_R   0.500000 0.319640 0.618810 -0.583368
O2    O     O_R   0.500010 0.319680 0.381230 -0.590882
O3    O     O_R   0.379070 0.499970 0.618770 -0.574239
O4    O     O_R   0.379080 0.500010 0.381190 -0.576341
O5    O     O_R   0.499990 0.680320 0.618770 -0.579924
O6    O     O_R   0.500000 0.680360 0.381190 -0.586789
O7    O     O_R   0.620920 0.499990 0.618810 -0.578185
O8    O     O_R   0.620930 0.500030 0.381230 -0.578451
O9    O     O_3   0.063705 0.280572 0.594800 -0.618918
C31   C     C_3   0.033830 0.177823 0.519416 0.026619
H17   H     H_    0.053660 0.184239 0.407558 0.156049
H18   H     H_    0.963806 0.171716 0.526542 0.126948
C32   C     C_3   0.071608 0.061127 0.582313 -0.303084
H19   H     H_    0.141529 0.066649 0.577100 0.226217
H20   H     H_    0.052616 0.053628 0.694209 0.215298
C33   C     C_3   0.042124 0.946328 0.503911 -0.943392
H21   H     H_    0.972581 0.936464 0.512082 0.253349
H22   H     H_    0.072046 0.863737 0.550473 0.258098
H23   H     H_    0.060444 0.951702 0.391653 0.257833
O10   O     O_3   0.942383 0.458857 0.767038 -0.609818
C34   C     C_3   0.903280 0.342594 0.780966 0.069038
H24   H     H_    0.952258 0.270579 0.794320 0.178795
H25   H     H_    0.863364 0.318839 0.688727 0.125604
C35   C     C_3   0.847256 0.344047 0.911440 -0.318985
H26   H     H_    0.886669 0.361545 0.005745 0.222576
H27   H     H_    0.800568 0.419677 0.902355 0.224469
C36   C     C_3   0.800308 0.222286 0.929575 -0.946264
H28   H     H_    0.758653 0.204769 0.838084 0.257954
H29   H     H_    0.760740 0.226360 0.025639 0.259101
H30   H     H_    0.845766 0.145227 0.940189 0.255961

loop_
_geom_bond_atom_site_label_1
_geom_bond_atom_site_label_2
_ccdc_geom_bond_type
C33   H22   S    
C32   H20   S    
C18   C21   A    
C30   H13   S    
C19   C20   A    
Cu2   O8    S    
C4    C8    S    
C16   H16   S    
C23   O6    A    
C36   H28   S    
C26   C27   S    
C35   H27   S    
C12   C28   S    
C31   C32   S    
C18   C24   S    
C8    C29   T    
C19   H4    S    
C5    C6    S    
C33   H23   S    
C15   C16   S    
C22   H6    S    
C31   H18   S    
Cu2   O2    S    
C20   N2    A    
C2    C7    S    
Cu1   Cu2   S    
C16   C17   S    
C35   C36   S    
O10   C34   S    
C9    C10   A    
C12   O3    A    
C33   H21   S    
C5    H11   S    
C32   C33   S    
O9    C31   S    
C13   C14   A    
C24   H9    S    
C25   O7    A    
Cu2   O4    S    
C21   N2    A    
C36   H29   S    
C25   C29   S    
C3    H12   S    
C35   H26   S    
C4    C6    S    
C34   H25   S    
C7    C28   T    
C31   H17   S    
C14   C23   S    
C3    C30   S    
C16   H1    S    
C19   N1    A    
C6    C27   S    
Cu1   O3    S    
C1    O1    A    
C2    C27   S    
C9    C17   S    
C26   C30   S    
C6    H10   S    
C26   O10   S    
C22   C24   S    
C2    C5    S    
C25   O8    A    
Cu1   N2    S    
C3    C4    S    
C13   H15   S    
C36   H30   S    
C1    C10   S    
Cu1   O1    S    
C3    C5    S    
C34   C35   S    
C4    C26   S    
C23   O5    A    
C2    C30   S    
Cu1   O7    S    
C9    C15   A    
C34   H24   S    
C27   O9    S    
C20   H5    S    
C11   C13   A    
C22   H7    S    
C24   H8    S    
C1    O2    A    
Cu2   N1    S    
C10   C11   A    
C32   H19   S    
C17   H2    S    
C14   C15   A    
C11   H14   S    
C17   H3    S    
Cu1   O5    S    
C21   C22   S    
Cu2   O6    S    
C12   O4    A    
C18   N1    A    
