data_mof_unit_45281.cif
_audit_creation_date              2012-12-10T17:14:40-0500
_audit_creation_method            fapswitch 2.2
_symmetry_space_group_name_H-M    P1
_symmetry_Int_Tables_number       1
_space_group_crystal_system       triclinic
_cell_length_a                    10.692766
_cell_length_b                    13.014301
_cell_length_c                    11.692186
_cell_angle_alpha                 99.49747
_cell_angle_beta                  94.289115
_cell_angle_gamma                 90.657703
_cell_volume                      1599.80525554

loop_
_atom_site_label
_atom_site_type_symbol
_atom_type_description
_atom_site_fract_x
_atom_site_fract_y
_atom_site_fract_z
_atom_type_partial_charge
C1    C     C_R   0.499553 0.299710 0.479259 0.810621
C2    C     C_R   0.500439 0.700267 0.520768 0.817016
C3    C     C_R   0.571039 0.134488 0.539679 0.111548
C4    C     C_R   0.428526 0.865627 0.461275 0.114706
C5    C     C_R   0.550168 0.026790 0.538235 0.067254
C6    C     C_R   0.450033 0.973139 0.462066 0.068009
C7    C     C_R   0.386400 0.398339 0.020380 -0.411200
C8    C     C_R   0.613599 0.601655 0.979619 -0.410550
C9    C     C_R   0.393932 0.408784 0.144313 0.729828
C10   C     C_R   0.606035 0.591247 0.855681 0.730727
C11   C     C_R   0.548304 0.544304 0.157301 -0.047155
C12   C     C_R   0.451691 0.455695 0.842695 -0.059575
C13   C     C_R   0.540872 0.536940 0.034527 0.012204
C14   C     C_R   0.459113 0.463061 0.965466 0.012442
C15   C     C_R   0.259899 0.500529 0.499704 0.848197
C16   C     C_R   0.740108 0.499711 0.500315 0.837583
C17   C     C_3   0.044116 0.413309 0.533053 0.040214
C18   C     C_3   0.955978 0.587092 0.467052 0.080666
C19   C     C_3   0.951246 0.417391 0.427005 0.087804
C20   C     C_3   0.048803 0.583032 0.573098 0.082450
C21   C     C_3   0.875523 0.499685 0.501423 -0.112131
C22   C     C_3   0.124495 0.500776 0.498607 -0.109777
C23   C     C_3   0.969456 0.495555 0.607703 0.129992
C24   C     C_3   0.030500 0.504862 0.392428 0.165861
C25   C     C_R   0.508787 0.812576 0.531033 -0.118565
C26   C     C_R   0.491395 0.187356 0.469121 -0.120954
C27   C     C_R   0.375617 0.028549 0.387983 0.179484
C28   C     C_R   0.625184 0.971161 0.611686 0.179278
C29   C     C_R   0.397305 0.134497 0.392993 -0.301814
C30   C     C_R   0.603636 0.865174 0.606416 -0.302923
Cu1   Cu    Cu3+1 0.509400 0.507730 0.615930 0.982195
Cu2   Cu    Cu3+1 0.490600 0.492270 0.384070 0.990143
H1    H     H_    0.664254 0.822918 0.660026 0.187201
H2    H     H_    0.337229 0.176542 0.338708 0.187464
H3    H     H_    0.387930 0.399232 0.788899 0.158406
H4    H     H_    0.612067 0.600767 0.211093 0.156880
H5    H     H_    0.325621 0.340000 0.966091 0.145752
H6    H     H_    0.674412 0.659937 0.033945 0.145221
N1    N     N_R   0.523540 0.519360 0.790140 -0.224023
N2    N     N_R   0.476460 0.480640 0.209860 -0.222706
O1    O     O_R   0.506670 0.354460 0.582000 -0.610098
O2    O     O_R   0.493330 0.645540 0.418000 -0.612799
O3    O     O_R   0.490800 0.341410 0.386200 -0.533299
O4    O     O_R   0.509200 0.658590 0.613800 -0.534118
O5    O     O_R   0.324790 0.506500 0.597880 -0.586951
O6    O     O_R   0.675210 0.493500 0.402120 -0.571149
O7    O     O_R   0.308910 0.493440 0.402080 -0.548709
O8    O     O_R   0.691090 0.506560 0.597920 -0.548559
N3    N     N_3   0.896696 0.327709 0.347007 -0.565980
H7    H     H_    0.970681 0.282223 0.316043 0.213184
H8    H     H_    0.846495 0.283281 0.395553 0.198840
N4    N     N_3   0.103401 0.673751 0.651378 -0.598546
H9    H     H_    0.029539 0.716009 0.687737 0.215481
H10   H     H_    0.155060 0.646739 0.719374 0.235407
N5    N     N_3   0.093441 0.318999 0.569534 -0.590988
H11   H     H_    0.016708 0.272396 0.581132 0.218604
H12   H     H_    0.138993 0.278726 0.500282 0.213231
N6    N     N_3   0.906755 0.681453 0.430619 -0.590906
H13   H     H_    0.983567 0.728246 0.419654 0.229327
H14   H     H_    0.860705 0.721470 0.499688 0.214871
N7    N     N_3   0.936672 0.490443 0.725293 -0.569222
H15   H     H_    0.020357 0.486152 0.776299 0.219179
H16   H     H_    0.887483 0.420090 0.722374 0.225909
N8    N     N_3   0.063162 0.509906 0.274793 -0.562311
H17   H     H_    0.979385 0.513649 0.223732 0.231774
H18   H     H_    0.111860 0.580454 0.277507 0.218490
N9    N     N_3   0.322814 0.811278 0.393454 -0.551740
H19   H     H_    0.354408 0.758376 0.325127 0.243032
H20   H     H_    0.272262 0.771340 0.446341 0.212194
N10   N     N_3   0.675038 0.189370 0.609658 -0.551203
H21   H     H_    0.726178 0.230498 0.558366 0.191012
H22   H     H_    0.641548 0.241192 0.677914 0.247010
N11   N     N_3   0.277337 0.978798 0.306828 -0.551652
H23   H     H_    0.193221 0.015554 0.326250 0.212395
H24   H     H_    0.296943 0.989894 0.223354 0.216296
N12   N     N_3   0.724373 0.020576 0.692001 -0.550732
H25   H     H_    0.705804 0.009279 0.775664 0.217624
H26   H     H_    0.808172 0.983741 0.671554 0.212966
O9    O     O_3   0.673622 0.655063 0.796407 -0.548771
C31   C     C_3   0.785090 0.698408 0.858637 -0.367242
H27   H     H_    0.840428 0.639360 0.897988 0.179192
H28   H     H_    0.764085 0.765926 0.925216 0.158170
H29   H     H_    0.844124 0.728445 0.796901 0.186810
O10   O     O_3   0.326346 0.344927 0.203531 -0.550940
C32   C     C_3   0.214261 0.302429 0.141590 -0.359940
H30   H     H_    0.234407 0.234674 0.074912 0.157280
H31   H     H_    0.159508 0.361881 0.102343 0.180279
H32   H     H_    0.154970 0.272929 0.203513 0.189528

loop_
_geom_bond_atom_site_label_1
_geom_bond_atom_site_label_2
_ccdc_geom_bond_type
N5    H11   S    
C16   C21   S    
C27   C29   A    
C18   C21   S    
N11   H23   S    
C15   O7    A    
C16   O8    A    
C4    C25   A    
C15   C22   S    
C32   H30   S    
C17   C23   S    
C18   C24   S    
C11   H4    S    
C19   C21   S    
N12   H26   S    
C5    C6    A    
N6    H14   S    
N7    H16   S    
C1    O3    A    
C7    C14   A    
C6    C27   A    
C2    O4    A    
N3    H8    S    
C18   N6    S    
N10   H21   S    
C17   N5    S    
C24   N8    S    
C13   C14   A    
N11   H24   S    
N7    H15   S    
C8    H6    S    
C31   H29   S    
N4    H10   S    
C32   H31   S    
C21   C23   S    
Cu1   O4    S    
N9    H19   S    
C3    N10   S    
N12   H25   S    
C31   H28   S    
C16   O6    A    
N6    H13   S    
C29   H2    S    
C9    N2    A    
C10   N1    A    
N9    H20   S    
N8    H18   S    
C5    C28   A    
C19   N3    S    
Cu1   Cu2   S    
C20   C23   S    
C7    H5    S    
O10   C32   S    
C12   H3    S    
C1    O1    A    
C12   C14   A    
Cu1   O8    S    
N5    H12   S    
C1    C26   S    
Cu2   O7    S    
C22   C24   S    
C4    C6    A    
C15   O5    A    
C28   N12   S    
N4    H9    S    
C32   H32   S    
C25   C30   A    
C7    C9    A    
Cu1   O1    S    
C30   H1    S    
Cu2   O6    S    
C3    C26   A    
C20   C22   S    
C31   H27   S    
C3    C5    A    
C4    N9    S    
C10   O9    S    
C17   C22   S    
N8    H17   S    
C12   N1    A    
C28   C30   A    
C19   C24   S    
C20   N4    S    
C11   C13   A    
C2    O2    A    
C17   C19   S    
Cu2   O3    S    
Cu1   N1    S    
C2    C25   S    
C18   C20   S    
Cu2   N2    S    
C11   N2    A    
C9    O10   S    
O9    C31   S    
C8    C13   A    
C23   N7    S    
C26   C29   A    
C8    C10   A    
N3    H7    S    
Cu1   O5    S    
Cu2   O2    S    
N10   H22   S    
C27   N11   S    
