data_mof_unit_34148.cif
_audit_creation_date              2012-12-10T17:33:41-0500
_audit_creation_method            fapswitch 2.2
_symmetry_space_group_name_H-M    P1
_symmetry_Int_Tables_number       1
_space_group_crystal_system       triclinic
_cell_length_a                    11.692375
_cell_length_b                    12.338045
_cell_length_c                    13.105801
_cell_angle_alpha                 116.506066
_cell_angle_beta                  77.614961
_cell_angle_gamma                 101.196172
_cell_volume                      1642.03463382

loop_
_atom_site_label
_atom_site_type_symbol
_atom_type_description
_atom_site_fract_x
_atom_site_fract_y
_atom_site_fract_z
_atom_type_partial_charge
C1    C     C_R   0.503769 0.855434 0.286426 0.774144
C2    C     C_R   0.459065 0.226953 0.836200 -0.050607
C3    C     C_R   0.534663 0.818957 0.076055 0.001314
C4    C     C_R   0.557597 0.735983 0.961008 -0.191909
C5    C     C_R   0.538781 0.611637 0.929591 -0.205845
C6    C     C_R   0.486361 0.564747 0.011354 0.082790
C7    C     C_R   0.454672 0.647991 0.127180 0.070795
C8    C     C_R   0.457979 0.437611 0.979879 0.078646
C9    C     C_R   0.384364 0.395891 0.059242 0.154886
C10   C     C_R   0.343823 0.479496 0.169264 -0.252373
C11   C     C_R   0.377677 0.603379 0.202572 -0.186069
C12   C     C_R   0.715792 0.999618 0.499691 0.828405
C13   C     C_R   0.498946 0.350524 0.870689 -0.260300
C14   C     C_R   0.385373 0.186797 0.914865 -0.181338
C15   C     C_R   0.494996 0.774398 0.162503 -0.170522
C16   C     C_R   0.691868 0.350916 0.333866 -0.395586
C17   C     C_R   0.342334 0.760169 0.646379 0.076394
C18   C     C_R   0.307382 0.664107 0.678727 -0.261462
C19   C     C_R   0.366391 0.560310 0.623448 -0.197480
C20   C     C_R   0.461943 0.551577 0.534832 0.013098
C21   C     C_R   0.495036 0.652976 0.505151 0.280166
C22   C     C_R   0.526795 0.447327 0.475664 -0.031740
C23   C     C_R   0.483032 0.144930 0.713874 0.790164
C24   C     C_R   0.624309 0.448643 0.390781 0.102648
C25   C     C_R   0.654543 0.547608 0.362713 -0.261799
C26   C     C_R   0.591371 0.647314 0.418486 -0.170603
C27   C     C_R   0.499634 0.341092 0.496359 -0.086450
C28   C     C_R   0.663806 0.250258 0.360695 0.690342
C29   C     C_R   0.284224 0.000209 0.500030 0.800200
C30   C     C_1   0.837484 0.999235 0.499545 -0.207697
C31   C     C_1   0.940093 0.999411 0.499382 -0.013769
C32   C     C_1   0.060037 0.999894 0.499367 -0.008468
C33   C     C_1   0.162593 0.000223 0.499578 -0.191134
C34   C     C_R   0.348777 0.270945 0.026152 -0.208874
Cu1   Cu    Cu3+1 0.526510 0.098270 0.475420 0.968807
Cu2   Cu    Cu3+1 0.473490 0.901730 0.524580 0.922763
H1    H     H_    0.352985 0.091289 0.889356 0.149618
H2    H     H_    0.728683 0.548481 0.297063 0.150865
H3    H     H_    0.765046 0.352159 0.267705 0.150184
H4    H     H_    0.425852 0.331582 0.558144 0.147797
H5    H     H_    0.295996 0.840364 0.689843 0.125877
H6    H     H_    0.336153 0.489026 0.652406 0.138493
H7    H     H_    0.234386 0.670206 0.746998 0.145176
H8    H     H_    0.622407 0.718641 0.391327 0.206348
H9    H     H_    0.284438 0.449150 0.229603 0.143798
H10   H     H_    0.290292 0.238677 0.085508 0.128986
H11   H     H_    0.561651 0.376530 0.809920 0.148300
H12   H     H_    0.556929 0.554860 0.838600 0.138726
H13   H     H_    0.587786 0.767620 0.893704 0.144677
H14   H     H_    0.336200 0.663509 0.285786 0.178122
N1    N     N_R   0.566700 0.246290 0.438210 -0.215205
N2    N     N_R   0.434010 0.754320 0.561170 -0.207876
O1    O     O_R   0.533340 0.972510 0.318140 -0.525023
O2    O     O_R   0.488570 0.806530 0.359650 -0.607649
O3    O     O_R   0.685190 0.083000 0.479260 -0.551177
O4    O     O_R   0.640410 0.917020 0.520770 -0.589961
O5    O     O_R   0.511430 0.193470 0.640350 -0.589839
O6    O     O_R   0.466660 0.027490 0.681860 -0.586977
O7    O     O_R   0.359590 0.082980 0.479230 -0.582971
O8    O     O_R   0.314810 0.917000 0.520740 -0.586642
C35   C     C_R   0.540627 0.949132 0.098807 0.150342
C36   C     C_R   0.639919 0.005822 0.051763 -0.098779
C37   C     C_R   0.640790 0.124637 0.064435 -0.119317
C38   C     C_R   0.543227 0.188253 0.124804 -0.104985
C39   C     C_R   0.444208 0.132986 0.172010 -0.144220
C40   C     C_R   0.441939 0.013327 0.157531 -0.093438
H15   H     H_    0.716294 0.957751 0.004687 0.113432
H16   H     H_    0.717390 0.167696 0.027975 0.120217
H17   H     H_    0.544902 0.280859 0.135908 0.148368
H18   H     H_    0.368842 0.182566 0.219174 0.122064
H19   H     H_    0.363287 0.970569 0.191939 0.108071
O9    O     O_3   0.725225 0.148923 0.301409 -0.552573
C41   C     C_3   0.848290 0.180019 0.303860 0.063732
H20   H     H_    0.877486 0.126135 0.340464 0.177745
H21   H     H_    0.875666 0.277581 0.358772 0.109623
C42   C     C_3   0.913576 0.144889 0.181677 -0.850364
H22   H     H_    0.010093 0.164832 0.183554 0.206202
H23   H     H_    0.892347 0.045976 0.128653 0.253111
H24   H     H_    0.888088 0.197294 0.141510 0.235585

loop_
_geom_bond_atom_site_label_1
_geom_bond_atom_site_label_2
_ccdc_geom_bond_type
C16   C28   A    
C23   O6    A    
C21   C26   A    
C8    C13   A    
Cu1   O1    S    
C41   H20   S    
C19   C20   A    
C42   H24   S    
C26   H8    S    
C7    C11   A    
C36   H15   S    
C42   H23   S    
Cu2   O6    S    
C5    C6    A    
C28   N1    A    
C39   H18   S    
C29   C33   S    
Cu1   O7    S    
C18   C19   A    
C2    C13   A    
C1    O1    A    
C35   C40   A    
C29   O7    A    
C8    C9    A    
C34   H10   S    
C9    C10   A    
Cu2   N2    S    
C19   H6    S    
C7    C15   A    
C16   C24   A    
C41   H21   S    
C28   O9    S    
C17   N2    A    
C27   N1    A    
C3    C35   S    
C5    H12   S    
Cu1   O3    S    
C42   H22   S    
C13   H11   S    
C4    C5    A    
C6    C8    A    
C25   C26   A    
Cu1   Cu2   S    
C1    O2    A    
C36   C37   A    
Cu2   O4    S    
C25   H2    S    
C40   H19   S    
C29   O8    A    
C27   H4    S    
C10   H9    S    
C17   C18   A    
C38   H17   S    
C24   C25   A    
C12   O4    A    
C1    C15   S    
C20   C22   A    
C22   C27   A    
Cu1   N1    S    
C9    C34   A    
C41   C42   S    
C22   C24   A    
C3    C4    A    
C3    C15   A    
C23   O5    A    
C37   H16   S    
C12   C30   S    
C31   C32   S    
O9    C41   S    
Cu2   O8    S    
C14   C34   A    
C6    C7    A    
C4    H13   S    
Cu1   O5    S    
C38   C39   A    
C11   H14   S    
C18   H7    S    
C32   C33   T    
C14   H1    S    
C30   C31   T    
C35   C36   A    
C2    C14   A    
C17   H5    S    
C12   O3    A    
Cu2   O2    S    
C10   C11   A    
C16   H3    S    
C37   C38   A    
C20   C21   A    
C39   C40   A    
C2    C23   S    
C21   N2    A    
