data_mof_unit_12469.cif
_audit_creation_date              2013-03-05T16:32:07-0500
_audit_creation_method            fapswitch 2.2
_symmetry_space_group_name_H-M    P1
_symmetry_Int_Tables_number       1
_space_group_crystal_system       triclinic
_cell_length_a                    10.737768
_cell_length_b                    10.854014
_cell_length_c                    9.559401
_cell_angle_alpha                 90.959326
_cell_angle_beta                  89.506004
_cell_angle_gamma                 90.636184
_cell_volume                      1113.86347609

loop_
_atom_site_label
_atom_site_type_symbol
_atom_site_description
_atom_site_fract_x
_atom_site_fract_y
_atom_site_fract_z
_atom_type_partial_charge
O1    O     O_R   0.500000 0.319640 0.618810 -0.563335
O2    O     O_R   0.500010 0.319680 0.381230 -0.585060
C1    C     C_R   0.496494 0.262548 0.498925 0.792007
O3    O     O_R   0.317690 0.499960 0.618790 -0.595805
O4    O     O_R   0.317700 0.500000 0.381210 -0.594943
C2    C     C_R   0.260011 0.496437 0.500574 0.766899
Cu1   Cu    Cu3+1 0.499990 0.499980 0.640670 0.971190
Cu2   Cu    Cu3+1 0.500010 0.500020 0.359330 0.965511
O5    O     O_R   0.499990 0.680320 0.618770 -0.574052
O6    O     O_R   0.500000 0.680360 0.381190 -0.589928
O7    O     O_R   0.682300 0.500000 0.618790 -0.577271
O8    O     O_R   0.682310 0.500040 0.381210 -0.569789
C3    C     C_R   0.497428 0.737938 0.500729 0.869435
C4    C     C_R   0.740123 0.497388 0.500049 0.807296
C5    C     C_3   0.070228 0.460115 0.648274 -0.351825
H1    H     H_    0.100984 0.529149 0.728616 0.206889
H2    H     H_    0.106562 0.368901 0.679119 0.166761
C6    C     C_3   0.927291 0.454940 0.646550 -0.329195
H3    H     H_    0.895039 0.359050 0.667227 0.162787
H4    H     H_    0.890142 0.513219 0.733574 0.226029
H5    H     H_    0.114580 0.694502 0.541138 0.199136
C7    C     C_3   0.075668 0.625257 0.465782 -0.415007
C8    C     C_3   0.071445 0.400502 0.392298 -0.377431
C9    C     C_3   0.122225 0.495281 0.501831 0.082891
H6    H     H_    0.107261 0.422405 0.285865 0.190416
H7    H     H_    0.103769 0.306411 0.417489 0.174203
C10   C     C_3   0.878355 0.496218 0.501874 -0.000896
C11   C     C_3   0.931549 0.626506 0.466674 0.218333
C12   C     C_3   0.927815 0.402201 0.390965 -0.433826
H8    H     H_    0.890480 0.308326 0.412878 0.182984
H9    H     H_    0.896013 0.426608 0.284645 0.223533
H10   H     H_    0.110769 0.651431 0.360281 0.168477
H11   H     H_    0.902103 0.647497 0.359296 0.188992
C13   C     C_R   0.465632 0.066988 0.621487 0.186420
C14   C     C_R   0.481864 0.129837 0.496771 -0.165856
C15   C     C_R   0.479762 0.062383 0.370186 -0.190486
H12   H     H_    0.484311 0.108201 0.270447 0.172078
C16   C     C_R   0.480641 0.933825 0.371875 -0.158208
H13   H     H_    0.484590 0.884337 0.272894 0.159884
C17   C     C_R   0.484355 0.871429 0.500000 -0.076182
C18   C     C_R   0.466902 0.940040 0.623590 0.050245
C19   C     C_3   0.535834 0.941130 0.758825 -0.506231
C20   C     C_3   0.534037 0.080692 0.755722 0.218355
H14   H     H_    0.477850 0.903214 0.845228 0.212882
H15   H     H_    0.631542 0.903955 0.747287 0.214297
H16   H     H_    0.627126 0.126221 0.745212 0.113715
C21   C     C_R   0.600852 0.544523 0.073433 0.205027
N1    N     N_R   0.500800 0.500930 0.147930 -0.218115
C22   C     C_R   0.406542 0.444853 0.074170 -0.073116
H17   H     H_    0.329892 0.401645 0.129469 0.145023
C23   C     C_R   0.406426 0.445055 0.925471 -0.016121
H18   H     H_    0.329597 0.402215 0.869932 0.153730
N2    N     N_R   0.500800 0.500890 0.852020 -0.190775
C24   C     C_R   0.600786 0.543233 0.925564 0.186224
C25   C     C_3   0.650947 0.669992 0.916537 -0.500428
C26   C     C_3   0.648994 0.674862 0.074722 0.128746
H19   H     H_    0.744903 0.672809 0.867287 0.264646
H20   H     H_    0.581881 0.730485 0.870329 0.183195
H21   H     H_    0.582079 0.742538 0.119332 0.108713
O9    O     O_3   0.457800 0.131812 0.860758 -0.705931
H22   H     H_    0.510410 0.138582 0.945449 0.324221
N3    N     N_R   0.774238 0.688401 0.131375 0.141136
O10   O     O_R   0.806133 0.792485 0.190998 -0.336757
O11   O     O_R   0.860148 0.608878 0.098806 -0.411224
N4    N     N_R   0.883158 0.723327 0.561037 0.113609
O12   O     O_R   0.923157 0.735685 0.688682 -0.381255
O13   O     O_R   0.805576 0.803653 0.513949 -0.356872

loop_
_geom_bond_atom_site_label_1
_geom_bond_atom_site_label_2
_geom_bond_distance
_ccdc_geom_bond_type
O1    C1    1.294310 A    
C5    C6    1.535439 S    
C16   C17   1.410534 A    
C25   C26   1.512164 S    
Cu2   N1    2.020992 S    
C5    H2    1.113403 S    
C12   H8    1.113286 S    
C4    C10   1.484746 S    
C10   C12   1.553563 S    
C18   C19   1.494993 S    
N3    O11   1.302556 A    
C14   C15   1.404012 A    
C26   H21   1.110703 S    
C1    C14   1.447069 S    
C8    C9    1.553476 S    
C2    C9    1.479375 S    
H5    C7    1.112860 S    
C22   C23   1.421529 A    
C15   C16   1.395870 A    
O2    C1    1.293801 A    
C19   H14   1.111782 S    
Cu1   Cu2   2.689446 S    
C12   H9    1.112103 S    
C7    C11   1.547671 S    
N2    C24   1.359925 A    
N4    O12   1.301411 A    
Cu1   O7    1.966950 S    
N3    O10   1.300630 A    
C13   C18   1.378599 A    
C7    H10   1.113807 S    
C20   O9    1.401215 S    
O9    H22   0.992442 S    
C21   C24   1.413378 A    
O4    C2    1.294594 A    
C8    C12   1.542751 S    
C7    C9    1.547200 S    
O3    C2    1.293135 A    
C5    C9    1.554626 S    
C20   H16   1.114625 S    
O8    C4    1.300161 A    
C11   H11   1.104783 S    
C13   C14   1.392159 A    
C6    H4    1.110663 S    
C25   H19   1.109965 S    
C16   H13   1.080933 S    
O7    C4    1.289153 A    
C26   N3    1.459100 S    
C8    H7    1.113104 S    
O4    Cu2   1.966949 S    
C19   C20   1.515933 S    
Cu1   N2    2.020332 S    
C23   N2    1.369501 A    
C5    H1    1.113539 S    
C21   N1    1.368224 A    
Cu1   O5    1.972060 S    
C8    H6    1.113060 S    
C23   H18   1.081405 S    
C15   H12   1.083187 S    
C6    H3    1.113529 S    
C25   H20   1.096537 S    
C10   C11   1.560120 S    
C22   H17   1.081213 S    
O5    C3    1.299882 A    
C24   C25   1.475545 S    
N1    C22   1.369771 A    
C3    C17   1.457390 S    
C17   C18   1.398331 A    
O3    Cu1   1.970427 S    
O1    Cu1   1.965055 S    
C11   N4    1.469826 S    
C13   C20   1.488523 S    
O6    C3    1.293475 A    
Cu2   O6    1.965055 S    
O2    Cu2   1.972057 S    
C6    C10   1.558230 S    
Cu2   O8    1.970426 S    
C21   C26   1.500681 S    
N4    O13   1.300946 A    
C19   H15   1.112162 S    
