data_mof_unit_37730.cif
_audit_creation_date              2012-12-10T20:00:03-0500
_audit_creation_method            fapswitch 2.2
_symmetry_space_group_name_H-M    P1
_symmetry_Int_Tables_number       1
_space_group_crystal_system       triclinic
_cell_length_a                    14.963593
_cell_length_b                    14.198318
_cell_length_c                    8.932049
_cell_angle_alpha                 89.999778
_cell_angle_beta                  90.083988
_cell_angle_gamma                 90.002371
_cell_volume                      1897.68190256

loop_
_atom_site_label
_atom_site_type_symbol
_atom_type_description
_atom_site_fract_x
_atom_site_fract_y
_atom_site_fract_z
_atom_type_partial_charge
C1    C     C_R   0.328207 0.500009 0.500001 0.840389
C2    C     C_R   0.419584 0.894819 0.515663 0.377184
C3    C     C_R   0.499977 0.499997 0.218553 0.910725
C4    C     C_R   0.500025 0.499997 0.781447 0.910713
C5    C     C_R   0.500002 0.053623 0.499999 -0.092190
C6    C     C_R   0.500002 0.946762 0.500000 -0.087549
C7    C     C_1   0.499991 0.499990 0.065321 -0.171720
C8    C     C_1   0.500010 0.499990 0.934679 -0.171698
C9    C     C_R   0.093765 0.538085 0.378010 -0.147857
C10   C     C_R   0.906124 0.462257 0.378241 -0.148598
C11   C     C_R   0.906246 0.538491 0.621722 -0.147908
C12   C     C_R   0.671797 0.500013 0.500017 0.840411
C13   C     C_R   0.093887 0.462663 0.622129 -0.148496
C14   C     C_R   0.186081 0.537442 0.375141 0.409656
C15   C     C_R   0.813803 0.462597 0.375397 0.411990
C16   C     C_R   0.813931 0.537840 0.624601 0.409594
C17   C     C_R   0.186210 0.462963 0.624928 0.411973
C18   C     C_R   0.232653 0.500078 0.499989 -0.268956
C19   C     C_R   0.767356 0.500093 0.500041 -0.269006
C20   C     C_R   0.048148 0.500436 0.500069 -0.048648
C21   C     C_R   0.951863 0.500433 0.499986 -0.048550
C22   C     C_3   0.427639 0.033081 0.176870 0.112853
C23   C     C_R   0.444071 0.204792 0.406659 -0.119901
C24   C     C_3   0.363047 0.977348 0.079929 -0.780571
C25   C     C_3   0.681922 0.957965 0.324326 0.081210
C26   C     C_3   0.775654 0.998697 0.313549 -0.727023
C27   C     C_3   0.572367 0.033084 0.823127 0.112835
C28   C     C_3   0.636969 0.977382 0.920086 -0.780515
C29   C     C_3   0.318083 0.957942 0.675683 0.081216
C30   C     C_3   0.224360 0.998689 0.686460 -0.727144
C31   C     C_R   0.578421 0.795574 0.486944 -0.133600
C32   C     C_R   0.555930 0.204798 0.593340 -0.119805
C33   C     C_R   0.421581 0.795569 0.513058 -0.133667
C34   C     C_R   0.443611 0.105612 0.402206 0.381593
C35   C     C_R   0.580419 0.894825 0.484340 0.377181
C36   C     C_R   0.556392 0.105617 0.597793 0.381574
H1    H     H_    0.399692 0.243990 0.333981 0.173118
H2    H     H_    0.708647 0.443747 0.247703 0.335747
H3    H     H_    0.708943 0.556512 0.752242 0.335406
H4    H     H_    0.291446 0.444113 0.752464 0.335721
H5    H     H_    0.485319 0.986418 0.202097 0.111369
H6    H     H_    0.451014 0.095681 0.112870 0.119060
H7    H     H_    0.307300 0.023303 0.042488 0.251503
H8    H     H_    0.398644 0.949451 0.980653 0.168496
H9    H     H_    0.335534 0.917070 0.144388 0.280879
H10   H     H_    0.634594 0.010813 0.277809 0.123880
H11   H     H_    0.679533 0.892273 0.256024 0.132574
H12   H     H_    0.640453 0.757084 0.477452 0.184120
H13   H     H_    0.825021 0.947610 0.358696 0.255997
H14   H     H_    0.792107 0.013731 0.194768 0.199838
H15   H     H_    0.779812 0.065226 0.378642 0.267409
H16   H     H_    0.514702 0.986397 0.797895 0.111386
H17   H     H_    0.548970 0.095677 0.887113 0.119039
H18   H     H_    0.692698 0.023362 0.957535 0.251499
H19   H     H_    0.601374 0.949472 0.019356 0.168482
H20   H     H_    0.664507 0.917116 0.855640 0.280918
H21   H     H_    0.365422 0.010778 0.722217 0.123852
H22   H     H_    0.320455 0.892243 0.743969 0.132606
H23   H     H_    0.600309 0.244000 0.666018 0.173104
H24   H     H_    0.174984 0.947620 0.641279 0.256020
H25   H     H_    0.220224 0.065231 0.621398 0.267361
H26   H     H_    0.207902 0.013702 0.805245 0.199835
H27   H     H_    0.359548 0.757075 0.522552 0.184054
H28   H     H_    0.057333 0.567511 0.283988 0.178817
H29   H     H_    0.942461 0.432635 0.284450 0.179467
H30   H     H_    0.942680 0.568220 0.715504 0.178786
H31   H     H_    0.057549 0.433352 0.716167 0.179494
H32   H     H_    0.291115 0.555944 0.247518 0.335353
N1    N     N_R   0.500000 0.252470 0.500000 -0.135068
N2    N     N_R   0.500000 0.747530 0.500000 -0.132349
O1    O     O_R   0.369060 0.579480 0.500010 -0.617003
O2    O     O_3   0.772698 0.426808 0.248748 -0.743544
O3    O     O_3   0.772959 0.573601 0.751189 -0.744178
O4    O     O_3   0.227314 0.427499 0.751810 -0.743416
O5    O     O_3   0.383323 0.061189 0.308616 -0.543408
O6    O     O_3   0.662244 0.939554 0.475769 -0.544734
O7    O     O_3   0.616682 0.061201 0.691382 -0.543397
O8    O     O_3   0.337761 0.939543 0.524238 -0.544760
O9    O     O_R   0.630940 0.420520 0.499990 -0.601821
O10   O     O_R   0.630940 0.579480 0.499990 -0.617006
O11   O     O_R   0.369060 0.420520 0.500010 -0.601967
O12   O     O_R   0.500000 0.579460 0.285340 -0.604848
O13   O     O_R   0.500000 0.420540 0.714660 -0.616328
O14   O     O_R   0.500000 0.579460 0.714660 -0.604846
O15   O     O_R   0.500000 0.420540 0.285340 -0.616286
O16   O     O_3   0.227052 0.572835 0.248286 -0.744012
Zn1   Zn    Zn3+2 0.500000 0.606140 0.500000 0.961894
Zn2   Zn    Zn3+2 0.500000 0.393860 0.500000 0.964194

loop_
_geom_bond_atom_site_label_1
_geom_bond_atom_site_label_2
_ccdc_geom_bond_type
C5    C36   A    
C3    O15   A    
C9    H28   S    
H32   O16   S    
C14   C18   A    
O14   Zn1   S    
C4    C8    S    
C28   H20   S    
C7    C8    T    
C15   C19   A    
C15   O2    S    
C1    C18   S    
C1    O1    A    
C24   H9    S    
C32   C36   A    
O10   Zn1   S    
C3    C7    S    
C36   O7    S    
C26   H14   S    
C5    C6    S    
O15   Zn2   S    
C22   H5    S    
C1    O11   A    
O12   Zn1   S    
C12   O9    A    
C6    C35   A    
C23   N1    A    
C31   N2    A    
C29   O8    S    
C30   H24   S    
C25   H11   S    
C11   H30   S    
C34   O5    S    
O13   Zn2   S    
C2    C6    A    
C22   O5    S    
N2    Zn1   S    
O9    Zn2   S    
C28   H19   S    
C10   C21   A    
H2    O2    S    
C35   O6    S    
C16   O3    S    
C14   O16   S    
C26   H13   S    
C28   H18   S    
C25   C26   S    
C23   H1    S    
C11   C21   A    
C9    C14   A    
C29   C30   S    
C2    O8    S    
C11   C16   A    
C9    C20   A    
C4    O14   A    
C33   H27   S    
C23   C34   A    
C5    C34   A    
C3    O12   A    
C17   C18   A    
C29   H22   S    
N1    Zn2   S    
C33   N2    A    
O1    Zn1   S    
C2    C33   A    
C29   H21   S    
C31   H12   S    
C30   H26   S    
C17   O4    S    
C24   H8    S    
C22   C24   S    
C27   H16   S    
C13   H31   S    
C10   H29   S    
C13   C20   A    
C27   O7    S    
C27   H17   S    
C32   N1    A    
C13   C17   A    
C10   C15   A    
C25   O6    S    
C26   H15   S    
C22   H6    S    
C4    O13   A    
C16   C19   A    
C12   O10   A    
C12   C19   S    
H4    O4    S    
C31   C35   A    
H3    O3    S    
O11   Zn2   S    
C20   C21   S    
C30   H25   S    
C27   C28   S    
C24   H7    S    
C32   H23   S    
C25   H10   S    
