data_mof_unit_25415.cif
_audit_creation_date              2012-10-26T19:43:50-0400
_audit_creation_method            fapswitch 2.2
_symmetry_space_group_name_H-M    P1
_symmetry_Int_Tables_number       1
_space_group_crystal_system       triclinic
_cell_length_a                    12.336724
_cell_length_b                    13.197858
_cell_length_c                    13.862534
_cell_angle_alpha                 104.972501
_cell_angle_beta                  73.890963
_cell_angle_gamma                 116.565812
_cell_volume                      1915.68736261

loop_
_atom_site_label
_atom_site_type_symbol
_atom_type_description
_atom_site_fract_x
_atom_site_fract_y
_atom_site_fract_z
_atom_type_partial_charge
C1    C     C_R   0.144387 0.713611 0.510110 0.528937
C2    C     C_R   0.563557 0.022818 0.475012 0.024175
C3    C     C_R   0.608776 0.945363 0.403449 0.043513
C4    C     C_R   0.984630 0.504638 0.686381 0.545843
C5    C     C_R   0.526709 0.839051 0.364083 -0.141613
C6    C     C_R   0.400882 0.806278 0.397606 -0.122092
C7    C     C_R   0.649787 0.131430 0.508057 -0.144711
C8    C     C_R   0.819115 0.086406 0.400687 -0.137472
C9    C     C_R   0.225836 0.836450 0.520715 0.001874
C10   C     C_R   0.646908 0.683044 0.654188 -0.153266
C11   C     C_R   0.250864 0.349917 0.365942 0.052718
C12   C     C_1   0.976437 0.508290 0.791666 -0.026557
C13   C     C_R   0.349285 0.316943 0.337244 -0.158848
C14   C     C_R   0.449043 0.374204 0.387522 -0.131788
C15   C     C_R   0.451613 0.465811 0.467813 -0.009616
C16   C     C_R   0.856236 0.286472 0.486171 0.546779
C17   C     C_R   0.348076 0.495720 0.494865 0.164083
C18   C     C_R   0.552208 0.528272 0.522263 -0.025057
C19   C     C_R   0.549652 0.622605 0.599605 0.025982
C20   C     C_R   0.448456 0.652837 0.622874 -0.052883
C21   C     C_R   0.348244 0.586194 0.574550 -0.097542
C22   C     C_R   0.656380 0.501485 0.503086 0.043701
C23   C     C_R   0.735992 0.976664 0.369084 -0.136293
C24   C     C_R   0.745589 0.651787 0.631793 0.039679
C25   C     C_R   0.015959 0.496190 0.313659 0.545746
C26   C     C_1   0.026238 0.495336 0.208529 -0.022865
C27   C     C_2   0.044356 0.494356 0.014620 -0.126157
C28   C     C_2   0.961916 0.513998 0.985846 -0.125815
C29   C     C_1   0.969416 0.511285 0.880357 -0.060608
C30   C     C_1   0.035222 0.494818 0.119971 -0.054740
C31   C     C_R   0.445212 0.757190 0.694304 0.019404
C32   C     C_R   0.529518 0.866301 0.670918 -0.088183
C33   C     C_R   0.521379 0.964924 0.734362 -0.106294
C34   C     C_R   0.775445 0.165029 0.467735 -0.002657
C35   C     C_R   0.428781 0.955322 0.821126 -0.099515
C36   C     C_R   0.344161 0.847056 0.844597 -0.109050
C37   C     C_R   0.351881 0.748180 0.781285 -0.101725
C38   C     C_R   0.178452 0.913426 0.586714 -0.129341
C39   C     C_R   0.256073 0.026791 0.613071 -0.137659
C40   C     C_R   0.382493 0.064312 0.577287 -0.117326
C41   C     C_R   0.434221 0.989295 0.510138 0.038031
C42   C     C_R   0.353079 0.876224 0.476068 0.027938
Cu1   Cu    Cu3+1 0.899780 0.525060 0.522890 0.929619
Cu2   Cu    Cu3+1 0.100220 0.474940 0.477110 0.915589
H1    H     H_    0.887799 0.531098 0.041176 0.134150
H2    H     H_    0.118355 0.477050 0.959281 0.131096
H3    H     H_    0.916513 0.111418 0.368939 0.122050
H4    H     H_    0.559855 0.781384 0.305886 0.109965
H5    H     H_    0.770843 0.917631 0.314849 0.108338
H6    H     H_    0.622123 0.193488 0.563442 0.116315
H7    H     H_    0.081425 0.885101 0.620908 0.124133
H8    H     H_    0.436220 0.153014 0.602904 0.101830
H9    H     H_    0.218419 0.085378 0.664314 0.117582
H10   H     H_    0.600343 0.874777 0.602950 0.123337
H11   H     H_    0.586267 0.048768 0.715846 0.110599
H12   H     H_    0.341980 0.726232 0.359116 0.150924
H13   H     H_    0.422315 0.031759 0.869959 0.105981
H14   H     H_    0.272108 0.839718 0.911536 0.109896
H15   H     H_    0.284866 0.664739 0.799570 0.108191
H16   H     H_    0.820554 0.698851 0.673380 0.121006
H17   H     H_    0.646917 0.753496 0.715031 0.108650
H18   H     H_    0.666317 0.432295 0.445289 0.121355
H19   H     H_    0.173883 0.305019 0.326477 0.124164
H20   H     H_    0.522805 0.345288 0.361535 0.101525
H21   H     H_    0.348358 0.246857 0.275688 0.101468
H22   H     H_    0.272174 0.609966 0.601136 0.189655
N1    N     N_R   0.748810 0.563010 0.557590 -0.231965
N2    N     N_R   0.250540 0.437620 0.443020 -0.233850
O1    O     O_R   0.025040 0.682470 0.528790 -0.503252
O2    O     O_R   0.194310 0.640150 0.490130 -0.528817
O3    O     O_R   0.903380 0.524130 0.659910 -0.493180
O4    O     O_R   0.072660 0.481800 0.621240 -0.514003
O5    O     O_R   0.805690 0.359850 0.509870 -0.507938
O6    O     O_R   0.974960 0.317530 0.471210 -0.504032
O7    O     O_R   0.927340 0.518200 0.378760 -0.493982
O8    O     O_R   0.096620 0.475870 0.340090 -0.505126

loop_
_geom_bond_atom_site_label_1
_geom_bond_atom_site_label_2
_ccdc_geom_bond_type
C33   H11   S    
C15   C18   A    
Cu1   O5    S    
C21   H22   S    
C41   C42   A    
C3    C23   A    
C19   C20   A    
C13   H21   S    
C9    C42   A    
C16   O6    A    
C5    C6    A    
C36   C37   A    
C36   H14   S    
C38   C39   A    
C12   C29   T    
C23   H5    S    
C2    C41   A    
C8    C23   A    
C18   C19   A    
Cu2   O8    S    
C24   N1    A    
C16   C34   S    
C2    C7    A    
Cu2   O2    S    
C4    C12   S    
Cu1   O1    S    
C13   C14   A    
C27   C30   S    
C32   H10   S    
Cu1   O7    S    
C5    H4    S    
C28   H1    S    
C16   O5    A    
C1    C9    S    
C39   C40   A    
C38   H7    S    
C10   C24   A    
C25   C26   S    
C40   H8    S    
C1    O1    A    
C31   C37   A    
C25   O7    A    
C35   C36   A    
Cu1   Cu2   S    
C22   H18   S    
C31   C32   A    
C10   C19   A    
C24   H16   S    
C14   H20   S    
C8    C34   A    
Cu2   O6    S    
C37   H15   S    
C27   H2    S    
C40   C41   A    
C26   C30   T    
C7    C34   A    
Cu2   N2    S    
C10   H17   S    
C4    O4    A    
C11   N2    A    
C15   C17   A    
C28   C29   S    
C17   N2    A    
Cu1   O3    S    
C18   C22   A    
C7    H6    S    
C6    H12   S    
C3    C5    A    
C11   H19   S    
C1    O2    A    
C35   H13   S    
C25   O8    A    
C32   C33   A    
C2    C3    A    
C8    H3    S    
C11   C13   A    
C39   H9    S    
C9    C38   A    
C33   C35   A    
Cu2   O4    S    
C17   C21   A    
C22   N1    A    
C20   C21   A    
Cu1   N1    S    
C6    C42   A    
C27   C28   D    
C14   C15   A    
C4    O3    A    
C20   C31   S    
