data_mof_unit_55040.cif
_audit_creation_date              2012-12-10T16:53:56-0500
_audit_creation_method            fapswitch 2.2
_symmetry_space_group_name_H-M    P1
_symmetry_Int_Tables_number       1
_space_group_crystal_system       triclinic
_cell_length_a                    7.77201
_cell_length_b                    8.566586
_cell_length_c                    10.61855
_cell_angle_alpha                 91.228856
_cell_angle_beta                  85.138529
_cell_angle_gamma                 93.8351
_cell_volume                      702.769406075

loop_
_atom_site_label
_atom_site_type_symbol
_atom_type_description
_atom_site_fract_x
_atom_site_fract_y
_atom_site_fract_z
_atom_type_partial_charge
C1    C     C_R   0.545914 0.794788 0.496700 0.967177
C2    C     C_3   0.497040 0.497504 0.121778 0.156915
C3    C     C_3   0.309844 0.507217 0.083708 -0.406464
C4    C     C_3   0.569288 0.343256 0.067405 -0.402742
C5    C     C_2   0.570025 0.958376 0.494592 -0.392921
C6    C     C_2   0.429933 0.041611 0.504427 -0.396381
C7    C     C_R   0.500313 0.498910 0.742241 0.842930
C8    C     C_R   0.454062 0.205205 0.502599 0.956505
C9    C     C_R   0.498674 0.499317 0.257902 0.836974
C10   C     C_3   0.614332 0.637099 0.922964 -0.481807
C11   C     C_3   0.611702 0.639394 0.067515 -0.411875
C12   C     C_3   0.311354 0.511082 0.940912 -0.379438
C13   C     C_3   0.572044 0.340853 0.921871 0.038042
C14   C     C_3   0.498860 0.495161 0.878874 0.180472
H1    H     H_    0.566912 0.748359 0.891070 0.171306
H2    H     H_    0.489227 0.241628 0.109484 0.166710
H3    H     H_    0.220207 0.416167 0.908063 0.181001
H4    H     H_    0.702213 0.009756 0.484989 0.180140
H5    H     H_    0.297744 0.990246 0.514094 0.181551
H6    H     H_    0.014070 0.382512 0.404379 0.185473
H7    H     H_    0.985934 0.617497 0.595614 0.186153
H8    H     H_    0.746497 0.635770 0.094961 0.182355
H9    H     H_    0.560465 0.750566 0.106145 0.165706
H10   H     H_    0.262379 0.623968 0.913858 0.173507
H11   H     H_    0.252544 0.614677 0.124887 0.181905
H12   H     H_    0.703454 0.333033 0.094307 0.156950
N1    N     N_2   0.950330 0.457950 0.465890 -0.176700
N2    N     N_2   0.049670 0.542050 0.534110 -0.177054
O1    O     O_R   0.389250 0.738570 0.508370 -0.610791
O2    O     O_R   0.678390 0.711620 0.486510 -0.629150
O3    O     O_R   0.355430 0.513500 0.696140 -0.627911
O4    O     O_R   0.644580 0.486550 0.674270 -0.636918
O5    O     O_R   0.321610 0.288380 0.513490 -0.627182
O6    O     O_R   0.610750 0.261430 0.491630 -0.610117
O7    O     O_R   0.355420 0.513450 0.325730 -0.635071
O8    O     O_R   0.644570 0.486500 0.303860 -0.628864
Zn1   Zn    Zn3+2 0.306940 0.517990 0.514600 0.924927
Zn2   Zn    Zn3+2 0.693060 0.482010 0.485400 0.924327
H13   H     H_    0.226355 0.404277 0.119790 0.170506
H14   H     H_    0.750031 0.630302 0.881184 0.174912
C15   C     C_3   0.477532 0.189807 0.874122 -0.950428
H15   H     H_    0.340557 0.178617 0.913625 0.249002
H16   H     H_    0.481965 0.186844 0.769521 0.245975
H17   H     H_    0.542472 0.086394 0.903430 0.240577
H18   H     H_    0.709500 0.338597 0.882578 0.159815

loop_
_geom_bond_atom_site_label_1
_geom_bond_atom_site_label_2
_ccdc_geom_bond_type
C12   H3    S    
C4    H2    S    
C9    O8    A    
C2    C4    S    
C7    O4    A    
H6    N1    S    
O4    Zn2   S    
C15   H15   S    
C12   H10   S    
C11   H8    S    
C4    H12   S    
C10   H1    S    
C1    O1    A    
C2    C3    S    
C3    C12   S    
C3    H13   S    
C8    O6    A    
C13   C14   S    
C13   H18   S    
C6    H5    S    
C15   H16   S    
N2    Zn1   S    
C1    C5    S    
C2    C11   S    
C13   C15   S    
C1    O2    A    
O7    Zn1   S    
H7    N2    S    
C12   C14   S    
C8    O5    A    
C5    C6    D    
C15   H17   S    
C7    O3    A    
C10   C11   S    
N1    Zn2   S    
O1    Zn1   S    
O8    Zn2   S    
C3    H11   S    
O2    Zn2   S    
C10   H14   S    
C10   C14   S    
C11   H9    S    
C4    C13   S    
C9    O7    A    
C6    C8    S    
C5    H4    S    
O6    Zn2   S    
C2    C9    S    
C7    C14   S    
O5    Zn1   S    
O3    Zn1   S    
N1    N2    D    
