data_mof_unit_7016.cif
_audit_creation_date              2012-12-10T17:58:57-0500
_audit_creation_method            fapswitch 2.2
_symmetry_space_group_name_H-M    P1
_symmetry_Int_Tables_number       1
_space_group_crystal_system       triclinic
_cell_length_a                    9.60438
_cell_length_b                    10.866911
_cell_length_c                    13.865251
_cell_angle_alpha                 92.216372
_cell_angle_beta                  84.831253
_cell_angle_gamma                 91.521975
_cell_volume                      1439.7656324

loop_
_atom_site_label
_atom_site_type_symbol
_atom_type_description
_atom_site_fract_x
_atom_site_fract_y
_atom_site_fract_z
_atom_type_partial_charge
C1    C     C_R   0.502012 0.737667 0.497991 0.924591
C2    C     C_R   0.497222 0.262515 0.503208 0.892322
C3    C     C_R   0.490777 0.128568 0.509494 -0.390343
C4    C     C_R   0.504058 0.872080 0.497037 -0.371565
C5    C     C_R   0.477286 0.500076 0.682835 0.811558
C6    C     C_R   0.522787 0.499160 0.317174 0.829696
C7    C     C_R   0.919204 0.567438 0.568595 -0.160041
C8    C     C_R   0.080406 0.432016 0.431639 -0.162944
C9    C     C_R   0.068032 0.565921 0.569864 0.508113
C10   C     C_R   0.931321 0.430336 0.432475 0.535480
C11   C     C_1   0.537047 0.496249 0.213946 -0.123278
C12   C     C_1   0.463448 0.501078 0.786080 -0.181153
C13   C     C_2   0.559683 0.490319 0.021756 0.407141
C14   C     C_2   0.441557 0.504638 0.978271 0.421139
C15   C     C_1   0.452113 0.502571 0.873063 -0.057851
C16   C     C_1   0.548804 0.493353 0.126969 -0.042470
C17   C     C_R   0.608490 0.942117 0.540626 0.357054
C18   C     C_R   0.381096 0.058098 0.471522 0.378054
C19   C     C_R   0.598271 0.069710 0.550601 0.316931
C20   C     C_R   0.394398 0.930489 0.457551 0.350912
Cu1   Cu    Cu3+1 0.359340 0.499980 0.500000 0.997029
Cu2   Cu    Cu3+1 0.640660 0.500020 0.500000 1.008236
N1    N     N_R   0.147930 0.499970 0.499980 -0.240742
N2    N     N_R   0.852070 0.500030 0.500020 -0.235863
O1    O     O_R   0.381260 0.680340 0.500000 -0.533156
O2    O     O_R   0.618740 0.319660 0.500000 -0.532432
O3    O     O_R   0.618830 0.680370 0.500010 -0.567607
O4    O     O_R   0.381170 0.319630 0.499990 -0.568410
O5    O     O_R   0.364420 0.499960 0.637840 -0.561856
O6    O     O_R   0.635580 0.500040 0.362160 -0.540679
O7    O     O_R   0.601990 0.499990 0.637850 -0.571862
O8    O     O_R   0.398010 0.500010 0.362150 -0.574082
C21   C     C_1   0.839007 0.641032 0.640989 0.410918
N3    N     N_1   0.775825 0.699321 0.700533 -0.238650
C22   C     C_1   0.159973 0.362088 0.356449 0.433503
N4    N     N_1   0.222527 0.305467 0.295538 -0.241826
O9    O     O_3   0.134683 0.639690 0.636215 -0.565591
C23   C     C_3   0.110471 0.592042 0.729979 -0.297796
H1    H     H_    0.199178 0.621675 0.771837 0.184116
H2    H     H_    0.103584 0.489381 0.729666 0.145851
H3    H     H_    0.016012 0.631664 0.769825 0.161078
O10   O     O_3   0.865627 0.367187 0.359892 -0.556782
C24   C     C_3   0.864152 0.239121 0.374385 -0.297703
H4    H     H_    0.770969 0.196902 0.343205 0.187309
H5    H     H_    0.856944 0.215869 0.452100 0.183186
H6    H     H_    0.957261 0.196000 0.335268 0.161327
O11   O     O_3   0.314893 0.517192 0.035974 -0.584001
C25   C     C_3   0.204179 0.551400 0.983126 -0.313783
H7    H     H_    0.178362 0.477236 0.929653 0.153015
H8    H     H_    0.228850 0.640153 0.947272 0.161753
H9    H     H_    0.109988 0.565250 0.034422 0.192227
O12   O     O_3   0.686139 0.475704 0.964121 -0.600924
C26   C     C_3   0.800056 0.455522 0.018602 -0.303329
H10   H     H_    0.782494 0.370827 0.061065 0.179971
H11   H     H_    0.820878 0.537063 0.066615 0.171210
H12   H     H_    0.894687 0.441572 0.967723 0.177380
O13   O     O_3   0.717059 0.886025 0.578980 -0.526555
C27   C     C_3   0.837662 0.896524 0.513522 -0.254900
H13   H     H_    0.868289 0.994050 0.499762 0.161359
H14   H     H_    0.823565 0.845316 0.443885 0.148024
H15   H     H_    0.925444 0.855320 0.546307 0.159160
O14   O     O_3   0.263677 0.113345 0.444079 -0.536651
C28   C     C_3   0.167046 0.126764 0.527089 -0.297128
H16   H     H_    0.130150 0.036518 0.555604 0.132772
H17   H     H_    0.074673 0.175070 0.506921 0.165379
H18   H     H_    0.210900 0.182387 0.586697 0.169825
O15   O     O_3   0.696628 0.136484 0.599348 -0.566080
C29   C     C_3   0.642854 0.155516 0.696637 -0.218785
H19   H     H_    0.623440 0.066468 0.733194 0.175391
H20   H     H_    0.545576 0.209788 0.702318 0.121303
H21   H     H_    0.721484 0.209259 0.735701 0.184814
O16   O     O_3   0.320006 0.866030 0.389689 -0.542026
C30   C     C_3   0.180570 0.843390 0.426531 -0.193884
H22   H     H_    0.168832 0.830716 0.506207 0.154976
H23   H     H_    0.113344 0.917878 0.406237 0.168901
H24   H     H_    0.142700 0.756632 0.391820 0.169723

loop_
_geom_bond_atom_site_label_1
_geom_bond_atom_site_label_2
_ccdc_geom_bond_type
C23   H2    S    
C24   H4    S    
C28   H17   S    
C3    C19   A    
O9    C23   S    
C10   O10   S    
C13   O12   S    
C7    C21   S    
C30   H22   S    
C8    C22   S    
C26   H11   S    
C18   C20   A    
O11   C25   S    
C12   C15   T    
C26   H10   S    
C1    C4    S    
C27   H15   S    
C25   H8    S    
C2    C3    S    
C13   C16   S    
C28   H18   S    
C2    O2    A    
Cu1   Cu2   S    
C1    O1    A    
C24   H5    S    
O13   C27   S    
O14   C28   S    
C23   H3    S    
C29   H21   S    
C4    C17   A    
C9    O9    S    
C25   H7    S    
C30   H24   S    
Cu1   O4    S    
C9    N1    A    
C21   N3    T    
C5    O5    A    
Cu2   O3    S    
Cu1   N1    S    
C19   O15   S    
C23   H1    S    
C29   H19   S    
Cu1   O8    S    
Cu2   N2    S    
C24   H6    S    
C11   C16   T    
Cu2   O7    S    
C30   H23   S    
C28   H16   S    
C27   H14   S    
O15   C29   S    
C4    C20   A    
C17   C19   A    
C7    C9    A    
C8    N1    A    
O12   C26   S    
C3    C18   A    
C8    C10   A    
C6    O8    A    
Cu2   O2    S    
C26   H12   S    
C6    C11   S    
C1    O3    A    
C29   H20   S    
Cu1   O1    S    
C14   C15   S    
C20   O16   S    
C2    O4    A    
Cu2   O6    S    
C10   N2    A    
C27   H13   S    
C13   C14   D    
C14   O11   S    
Cu1   O5    S    
C6    O6    A    
C25   H9    S    
C18   O14   S    
C7    N2    A    
O10   C24   S    
C17   O13   S    
O16   C30   S    
C5    O7    A    
C22   N4    T    
C5    C12   S    
