data_mof_unit_56096.cif
_audit_creation_date              2013-03-05T15:55:01-0500
_audit_creation_method            fapswitch 2.2
_symmetry_space_group_name_H-M    P1
_symmetry_Int_Tables_number       1
_space_group_crystal_system       triclinic
_cell_length_a                    11.67206
_cell_length_b                    12.432806
_cell_length_c                    13.221812
_cell_angle_alpha                 117.03358
_cell_angle_beta                  76.131124
_cell_angle_gamma                 101.077363
_cell_volume                      1651.54617034

loop_
_atom_site_label
_atom_site_type_symbol
_atom_site_description
_atom_site_fract_x
_atom_site_fract_y
_atom_site_fract_z
_atom_type_partial_charge
O1    O     O_R   0.533340 0.972510 0.318140 -0.587668
O2    O     O_R   0.488570 0.806530 0.359650 -0.535536
C1    C     C_R   0.509823 0.855050 0.286674 0.800547
O3    O     O_R   0.685190 0.083000 0.479260 -0.579202
O4    O     O_R   0.640410 0.917020 0.520770 -0.500029
C2    C     C_R   0.715596 0.000054 0.499883 0.855040
Cu1   Cu    Cu3+1 0.526510 0.098270 0.475420 0.961929
Cu2   Cu    Cu3+1 0.473490 0.901730 0.524580 0.986052
O5    O     O_R   0.511430 0.193470 0.640350 -0.586793
O6    O     O_R   0.466660 0.027490 0.681860 -0.589162
O7    O     O_R   0.359590 0.082980 0.479230 -0.567779
O8    O     O_R   0.314810 0.917000 0.520740 -0.584889
C3    C     C_R   0.483214 0.144982 0.713552 0.787724
C4    C     C_R   0.284371 0.000175 0.500433 0.804602
C5    C     C_1   0.837467 0.000110 0.499791 -0.150182
C6    C     C_1   0.940068 0.999981 0.499853 0.031723
C7    C     C_1   0.059922 0.999855 0.500062 0.031315
C8    C     C_1   0.162520 0.999892 0.500271 -0.149209
C9    C     C_R   0.346893 0.279130 0.027554 -0.150689
H1    H     H_    0.349992 0.098355 0.892689 0.168973
H2    H     H_    0.274183 0.461770 0.226668 0.161463
H3    H     H_    0.286146 0.250064 0.088508 0.155018
C10   C     C_R   0.460399 0.228589 0.835954 -0.048065
C11   C     C_R   0.585180 0.812889 0.082287 -0.160461
C12   C     C_R   0.608810 0.733021 0.966639 -0.105048
C13   C     C_R   0.568999 0.610643 0.930506 -0.159125
C14   C     C_R   0.499704 0.565847 0.009668 0.088628
C15   C     C_R   0.464127 0.650369 0.125180 0.086466
C16   C     C_R   0.463156 0.440253 0.977749 0.080607
C17   C     C_R   0.383706 0.402621 0.057970 0.152883
C18   C     C_R   0.339078 0.488753 0.166478 -0.212814
C19   C     C_R   0.376767 0.610784 0.198841 -0.177121
C20   C     C_R   0.503498 0.350498 0.868465 -0.222240
C21   C     C_R   0.384345 0.192452 0.916642 -0.162941
C22   C     C_R   0.515832 0.772546 0.163170 -0.113505
H4    H     H_    0.567537 0.372928 0.805657 0.151670
H5    H     H_    0.623959 0.906000 0.108791 0.173865
H6    H     H_    0.591862 0.554322 0.839562 0.133265
H7    H     H_    0.661692 0.765474 0.904875 0.162312
H8    H     H_    0.333647 0.673483 0.281371 0.173740
C23   C     C_R   0.669014 0.322878 0.303771 0.263859
H9    H     H_    0.692217 0.151918 0.295092 0.160750
H10   H     H_    0.686549 0.503928 0.249462 0.201326
N1    N     N_R   0.566700 0.246290 0.438210 -0.215832
C24   C     C_R   0.347315 0.765717 0.653422 -0.020830
C25   C     C_R   0.313772 0.672725 0.689515 0.279297
C26   C     C_R   0.370811 0.565896 0.628316 -0.249388
C27   C     C_R   0.461228 0.550385 0.531679 -0.106219
C28   C     C_R   0.493112 0.648358 0.498116 0.222501
C29   C     C_R   0.522369 0.441657 0.468703 -0.041323
C30   C     C_R   0.605825 0.426979 0.366886 -0.018891
C31   C     C_R   0.627238 0.516939 0.329861 -0.292591
C32   C     C_R   0.585360 0.629949 0.398834 0.429059
C33   C     C_R   0.504660 0.345407 0.501625 0.029604
C34   C     C_R   0.646370 0.233194 0.342011 0.013989
N2    N     N_R   0.434010 0.754320 0.561170 -0.218823
H11   H     H_    0.442070 0.346152 0.576347 0.136444
H12   H     H_    0.304455 0.848821 0.699474 0.172411
H13   H     H_    0.341978 0.495409 0.657291 0.181540
N3    N     N_R   0.758546 0.308424 0.203820 0.110178
O9    O     O_R   0.850330 0.388246 0.211905 -0.347971
O10   O     O_R   0.761228 0.204692 0.113146 -0.357277
N4    N     N_R   0.222134 0.686936 0.788423 0.132677
O11   O     O_R   0.168412 0.785635 0.844491 -0.358728
O12   O     O_R   0.192149 0.601880 0.824060 -0.339366
O13   O     O_3   0.644907 0.722337 0.372327 -0.684177
H14   H     H_    0.708035 0.694579 0.303196 0.312414

loop_
_geom_bond_atom_site_label_1
_geom_bond_atom_site_label_2
_geom_bond_distance
_ccdc_geom_bond_type
O4    Cu2   1.911512 S    
N4    O12   1.301707 A    
C16   C17   1.420109 A    
N1    C33   1.363284 A    
H9    C34   1.082172 S    
C14   C16   1.424648 A    
C28   N2    1.407687 A    
C4    C8    1.422096 S    
C18   C19   1.386401 A    
C24   N2    1.355762 A    
C1    C22   1.474355 S    
C25   N4    1.441348 S    
Cu2   O8    1.912574 S    
C10   C21   1.398737 A    
H1    C21   1.083304 S    
Cu2   N2    2.044465 S    
C14   C15   1.419157 A    
C27   C29   1.446585 A    
C7    C8    1.198104 T    
C12   C13   1.390369 A    
Cu1   Cu2   2.728775 S    
O1    Cu1   1.946344 S    
C24   C25   1.398476 A    
C12   H7    1.082986 S    
Cu1   O7    1.911512 S    
C32   O13   1.366632 S    
H2    C18   1.084282 S    
N1    C34   1.346085 A    
C13   C14   1.418039 A    
C29   C33   1.414047 A    
Cu1   N1    2.056569 S    
O3    Cu1   1.912574 S    
C28   C32   1.441823 A    
O3    C2    1.306305 A    
C27   C28   1.434281 A    
C23   C34   1.379833 A    
O8    C4    1.306513 A    
O6    C3    1.311744 A    
O13   H14   0.992763 S    
C15   C22   1.422445 A    
O2    C1    1.308919 A    
C19   H8    1.079782 S    
O4    C2    1.306513 A    
C24   H12   1.081320 S    
O7    C4    1.306259 A    
H10   C31   1.081360 S    
C11   C22   1.402506 A    
C6    C7    1.399904 S    
C5    C6    1.198074 T    
C26   H13   1.076136 S    
N4    O11   1.301699 A    
C26   C27   1.411126 A    
C16   C20   1.401726 A    
C15   C19   1.413248 A    
C20   H4    1.076547 S    
C11   C12   1.386726 A    
C3    C10   1.463254 S    
N3    O10   1.301369 A    
C9    H3    1.084055 S    
C11   H5    1.083377 S    
Cu1   O5    1.933142 S    
O5    C3    1.307639 A    
C17   C18   1.391358 A    
C13   H6    1.077033 S    
C9    C21   1.392864 A    
C29   C30   1.418019 A    
C2    C5    1.422067 S    
C25   C26   1.402368 A    
C9    C17   1.404170 A    
C23   C30   1.416135 A    
Cu2   O6    1.946342 S    
O2    Cu2   1.933142 S    
C10   C20   1.397683 A    
C30   C31   1.372836 A    
C23   N3    1.437023 S    
C31   C32   1.389308 A    
N3    O9    1.301510 A    
O1    C1    1.315107 A    
C33   H11   1.076159 S    
