data_mof_unit_52420.cif
_audit_creation_date              2012-12-10T19:45:44-0500
_audit_creation_method            fapswitch 2.2
_symmetry_space_group_name_H-M    P1
_symmetry_Int_Tables_number       1
_space_group_crystal_system       triclinic
_cell_length_a                    11.031193
_cell_length_b                    14.686318
_cell_length_c                    14.835709
_cell_angle_alpha                 65.169805
_cell_angle_beta                  104.331756
_cell_angle_gamma                 102.442299
_cell_volume                      2096.36179602

loop_
_atom_site_label
_atom_site_type_symbol
_atom_type_description
_atom_site_fract_x
_atom_site_fract_y
_atom_site_fract_z
_atom_type_partial_charge
C1    C     C_R   0.477080 0.119743 0.312348 0.802805
C2    C     C_R   0.545880 0.783977 0.969741 -0.161955
C3    C     C_R   0.413136 0.149499 0.128907 -0.147449
C4    C     C_R   0.549451 0.849985 0.870016 -0.161277
C5    C     C_R   0.477813 0.292347 0.178755 -0.246811
C6    C     C_R   0.497925 0.707461 0.819497 -0.240290
C7    C     C_R   0.452684 0.360607 0.077753 0.090064
C8    C     C_R   0.490365 0.639320 0.919181 0.089484
C9    C     C_R   0.411927 0.320520 0.001900 0.147846
C10   C     C_R   0.516724 0.679344 0.994815 0.149673
C11   C     C_R   0.469536 0.467349 0.050021 0.070645
C12   C     C_R   0.520649 0.880216 0.687507 0.802748
C13   C     C_R   0.459779 0.532761 0.946121 0.066197
C14   C     C_R   0.417068 0.489509 0.872893 -0.212950
C15   C     C_R   0.492644 0.510771 0.122520 -0.209275
C16   C     C_R   0.263429 0.997354 0.505353 0.800220
C17   C     C_R   0.737031 0.001967 0.495923 0.799204
C18   C     C_R   0.391731 0.385490 0.900726 -0.206169
C19   C     C_R   0.513875 0.614675 0.094847 -0.208298
C20   C     C_R   0.696193 0.275913 0.682222 -0.148529
C21   C     C_R   0.302914 0.724027 0.318056 -0.149715
C22   C     C_R   0.672508 0.198786 0.645486 0.127157
C23   C     C_R   0.871140 0.003683 0.492854 -0.154713
C24   C     C_R   0.326503 0.800902 0.355131 0.128716
C25   C     C_R   0.523304 0.287545 0.506773 0.011888
C26   C     C_R   0.477028 0.712607 0.492859 0.008168
C27   C     C_R   0.547523 0.370718 0.536912 -0.008451
C28   C     C_R   0.451929 0.629228 0.463003 -0.008112
C29   C     C_R   0.631301 0.361331 0.628996 0.110241
C30   C     C_R   0.367828 0.638599 0.371079 0.111177
C31   C     C_R   0.489108 0.461262 0.480414 0.090648
C32   C     C_R   0.509884 0.538525 0.519647 0.087359
C33   C     C_R   0.586647 0.522114 0.614825 -0.249657
C34   C     C_R   0.130178 0.994374 0.511118 -0.153702
C35   C     C_R   0.411150 0.477251 0.385739 -0.249871
C36   C     C_R   0.647682 0.436806 0.667008 -0.180990
C37   C     C_R   0.350558 0.562789 0.333396 -0.188577
C38   C     C_R   0.340047 0.147180 0.726452 0.026100
C39   C     C_R   0.661604 0.853498 0.276856 0.027573
C40   C     C_R   0.263789 0.087909 0.675280 -0.115162
C41   C     C_R   0.739029 0.911749 0.328477 -0.109389
C42   C     C_R   0.188250 0.133741 0.580740 0.111037
C43   C     C_R   0.814085 0.864829 0.422869 0.109345
C44   C     C_R   0.191981 0.239776 0.538796 -0.190015
C45   C     C_R   0.907518 0.928351 0.472247 -0.039218
C46   C     C_R   0.809511 0.758774 0.463861 -0.194202
C47   C     C_R   0.254715 0.296407 0.596249 0.020869
C48   C     C_R   0.746749 0.703279 0.405366 0.020008
C49   C     C_R   0.332588 0.250857 0.688260 -0.210729
C50   C     C_R   0.669227 0.749951 0.313537 -0.202524
C51   C     C_R   0.965013 0.076685 0.518064 -0.058180
C52   C     C_R   0.036578 0.920464 0.487610 -0.057447
C53   C     C_1   0.255516 0.886160 0.303246 0.339506
C54   C     C_1   0.741836 0.112623 0.698830 0.341585
C55   C     C_1   0.786795 0.266418 0.774448 0.233104
C56   C     C_R   0.094157 0.069309 0.532517 -0.040023
C57   C     C_1   0.212263 0.733699 0.225833 0.231515
C58   C     C_1   0.422884 0.101741 0.820027 0.196471
C59   C     C_1   0.575723 0.899919 0.185554 0.198246
C60   C     C_1   0.229043 0.398245 0.565563 0.259495
C61   C     C_1   0.771255 0.601280 0.435224 0.265073
C62   C     C_1   0.930692 0.162951 0.526093 0.290397
C63   C     C_1   0.071446 0.833198 0.481798 0.289081
C64   C     C_R   0.456750 0.187560 0.204911 -0.065521
C65   C     C_R   0.524614 0.812156 0.794221 -0.063439
C66   C     C_R   0.391693 0.215536 0.028023 -0.160011
Cu1   Cu    Cu3+1 0.466270 0.918260 0.475690 0.966142
Cu2   Cu    Cu3+1 0.533730 0.081740 0.524310 0.966474
H1    H     H_    0.707412 0.430233 0.738816 0.161479
H2    H     H_    0.395711 0.068875 0.147313 0.180848
H3    H     H_    0.386548 0.295783 0.730287 0.131506
H4    H     H_    0.615545 0.705856 0.270873 0.127478
H5    H     H_    0.359247 0.184523 0.970283 0.155379
H6    H     H_    0.566199 0.814679 0.027473 0.162129
H7    H     H_    0.397967 0.534024 0.793041 0.151342
H8    H     H_    0.491051 0.466548 0.201393 0.139950
H9    H     H_    0.263025 0.006486 0.708660 0.120117
H10   H     H_    0.739982 0.993183 0.296106 0.119845
H11   H     H_    0.136650 0.276943 0.465247 0.140413
H12   H     H_    0.290115 0.569078 0.261910 0.162081
H13   H     H_    0.863841 0.720660 0.537579 0.140833
H14   H     H_    0.357029 0.355709 0.842376 0.143296
H15   H     H_    0.529254 0.644523 0.152520 0.139299
H16   H     H_    0.548455 0.715416 0.556154 0.129676
H17   H     H_    0.452751 0.284907 0.442996 0.129188
H18   H     H_    0.601653 0.574022 0.651738 0.135025
H19   H     H_    0.394099 0.424541 0.349612 0.129915
H20   H     H_    0.485648 0.680682 0.760139 0.149903
H21   H     H_    0.516755 0.319045 0.238602 0.154859
H22   H     H_    0.571585 0.930388 0.852179 0.180415
N1    N     N_R   0.584450 0.204570 0.560790 -0.207444
N2    N     N_1   0.792586 0.519854 0.458519 -0.254827
N3    N     N_1   0.904386 0.232519 0.531427 -0.269913
N4    N     N_1   0.098511 0.763044 0.478109 -0.269156
N5    N     N_R   0.415550 0.795430 0.439210 -0.207410
N6    N     N_1   0.197304 0.953650 0.261164 -0.292415
N7    N     N_1   0.798556 0.044323 0.742221 -0.289696
N8    N     N_1   0.858944 0.258756 0.847886 -0.254701
N9    N     N_1   0.140108 0.741504 0.152371 -0.253452
N10   N     N_1   0.490258 0.066099 0.895177 -0.268383
N11   N     N_1   0.505716 0.936744 0.112508 -0.275577
N12   N     N_1   0.206785 0.479531 0.541648 -0.256622
O1    O     O_R   0.455540 0.022090 0.338120 -0.592591
O2    O     O_R   0.544460 0.977910 0.661880 -0.593261
O3    O     O_R   0.512510 0.160150 0.379180 -0.592405
O4    O     O_R   0.487490 0.839850 0.620820 -0.593429
O5    O     O_R   0.291160 0.930970 0.479480 -0.571307
O6    O     O_R   0.708840 0.069030 0.520520 -0.570844
O7    O     O_R   0.348130 0.069020 0.520540 -0.582844
O8    O     O_R   0.651870 0.930980 0.479460 -0.582308

loop_
_geom_bond_atom_site_label_1
_geom_bond_atom_site_label_2
_ccdc_geom_bond_type
C38   C40   A    
C15   C19   A    
C34   C56   A    
C8    C13   A    
C23   C45   A    
C27   C29   A    
C14   C18   A    
C17   O8    A    
C33   C36   A    
Cu1   O1    S    
C39   C41   A    
C38   C49   A    
C3    C64   A    
C7    C11   A    
C29   C36   A    
C17   C23   S    
C35   C37   A    
C12   O2    A    
C4    C65   A    
C60   N12   T    
C35   H19   S    
C57   N9    T    
Cu2   N1    S    
C6    H20   S    
C51   C56   A    
C50   H4    S    
C9    C66   A    
C16   O5    A    
C16   C34   S    
C47   C60   S    
C38   C58   S    
C11   C15   A    
C6    C65   A    
C22   N1    A    
C54   N7    T    
C1    O1    A    
C2    H6    S    
C44   C47   A    
C42   C56   S    
C40   C42   A    
C15   H8    S    
C13   C14   A    
C53   N6    T    
Cu1   N5    S    
C41   C43   A    
C51   C62   S    
C42   C44   A    
C20   C55   S    
C19   H15   S    
C16   O7    A    
C4    H22   S    
C20   C29   A    
C37   H12   S    
C46   C48   A    
C25   N1    A    
C27   C31   A    
Cu1   Cu2   S    
C59   N11   T    
C28   C32   A    
C3    H2    S    
C58   N10   T    
C22   C54   S    
C17   O6    A    
C41   H10   S    
C5    C7    A    
C6    C8    A    
C45   C52   A    
C24   C53   S    
C66   H5    S    
C30   C37   A    
C2    C4    A    
C33   H18   S    
C21   C57   S    
C46   H13   S    
Cu1   O8    S    
C23   C51   A    
C31   C32   A    
C63   N4    T    
C10   C19   A    
C39   C59   S    
C25   H17   S    
C43   C45   S    
C20   C22   A    
C31   C35   A    
C24   N5    A    
C3    C66   A    
C25   C27   A    
Cu2   O3    S    
C2    C10   A    
C1    C64   S    
C36   H1    S    
C12   C65   S    
C26   N5    A    
C7    C9    A    
C26   H16   S    
C26   C28   A    
C44   H11   S    
Cu2   O2    S    
C52   C63   S    
C61   N2    T    
Cu1   O4    S    
C47   C49   A    
C21   C30   A    
C62   N3    T    
C34   C52   A    
C32   C33   A    
C28   C30   A    
C14   H7    S    
C12   O4    A    
C11   C13   A    
Cu1   O5    S    
C48   C61   S    
C55   N8    T    
C48   C50   A    
C18   H14   S    
Cu2   O7    S    
C43   C46   A    
C9    C18   A    
C39   C50   A    
C5    C64   A    
C8    C10   A    
C49   H3    S    
C21   C24   A    
C40   H9    S    
Cu2   O6    S    
C5    H21   S    
C1    O3    A    
