data_mof_unit_10275.cif
_audit_creation_date              2012-12-10T20:21:43-0500
_audit_creation_method            fapswitch 2.2
_symmetry_space_group_name_H-M    P1
_symmetry_Int_Tables_number       1
_space_group_crystal_system       triclinic
_cell_length_a                    19.12497
_cell_length_b                    18.628556
_cell_length_c                    8.941997
_cell_angle_alpha                 89.302712
_cell_angle_beta                  94.024644
_cell_angle_gamma                 90.630259
_cell_volume                      3177.51443289

loop_
_atom_site_label
_atom_site_type_symbol
_atom_type_description
_atom_site_fract_x
_atom_site_fract_y
_atom_site_fract_z
_atom_type_partial_charge
C1    C     C_R   0.365600 0.499870 0.509742 0.924215
C2    C     C_R   0.634253 0.500561 0.489057 0.934269
C3    C     C_R   0.560911 0.726854 0.535557 0.398551
C4    C     C_R   0.507100 0.272319 0.371133 0.444145
C5    C     C_R   0.438856 0.726605 0.472007 0.469737
C6    C     C_R   0.494954 0.272734 0.631856 0.458297
C7    C     C_R   0.563572 0.802467 0.519554 0.133751
C8    C     C_R   0.518205 0.196794 0.378777 0.076273
C9    C     C_R   0.437461 0.801637 0.493800 0.006942
C10   C     C_R   0.483269 0.197428 0.631093 0.099279
C11   C     C_R   0.500604 0.841444 0.502676 -0.002220
C12   C     C_R   0.499850 0.157427 0.506007 -0.071708
C13   C     C_R   0.466299 0.961444 0.382143 0.378412
C14   C     C_R   0.535078 0.036398 0.621978 0.362405
C15   C     C_R   0.531165 0.960664 0.626171 0.319572
C16   C     C_R   0.460224 0.037271 0.390142 0.370493
C17   C     C_R   0.497456 0.076027 0.507242 -0.112523
C18   C     C_R   0.499817 0.922414 0.503135 -0.092150
C19   C     C_R   0.499946 0.500388 0.218611 0.891475
C20   C     C_R   0.500889 0.499860 0.781472 0.888452
C21   C     C_1   0.500784 0.501035 0.065416 -0.209126
C22   C     C_1   0.501117 0.500305 0.934818 -0.220560
C23   C     C_R   0.748629 0.439355 0.456295 0.288357
C24   C     C_R   0.263057 0.565750 0.596422 0.310060
C25   C     C_R   0.247464 0.439753 0.530461 0.335751
C26   C     C_R   0.742094 0.569607 0.428922 0.307818
C27   C     C_R   0.820828 0.444455 0.437554 0.302125
C28   C     C_R   0.190486 0.573301 0.598601 0.314685
C29   C     C_R   0.176731 0.444408 0.560524 0.336002
C30   C     C_R   0.815180 0.574483 0.435455 0.300754
C31   C     C_R   0.854179 0.511537 0.446835 -0.242778
C32   C     C_R   0.147787 0.512205 0.580630 -0.240261
C33   C     C_R   0.709248 0.502962 0.460193 -0.394626
C34   C     C_R   0.290948 0.501538 0.542366 -0.425566
C35   C     C_R   0.956081 0.491071 0.624408 -0.230154
C36   C     C_R   0.045420 0.546013 0.416312 -0.263598
C37   C     C_R   0.027796 0.493545 0.661327 -0.116288
C38   C     C_R   0.973765 0.543913 0.379761 -0.120123
C39   C     C_R   0.072434 0.520276 0.556433 0.252290
C40   C     C_R   0.929311 0.515352 0.482968 0.268646
H1    H     H_    0.921409 0.469455 0.704918 0.129645
H2    H     H_    0.080126 0.564588 0.333028 0.123428
H3    H     H_    0.048661 0.472547 0.768622 0.152799
H4    H     H_    0.953135 0.562658 0.270454 0.150133
N1    N     N_R   0.500000 0.689440 0.500000 -0.213596
N2    N     N_R   0.500000 0.310560 0.500000 -0.182894
O1    O     O_R   0.398180 0.560840 0.499960 -0.515410
O2    O     O_R   0.601820 0.439160 0.500040 -0.575498
O3    O     O_R   0.601820 0.560840 0.500040 -0.524782
O4    O     O_R   0.398180 0.439160 0.499960 -0.586221
O5    O     O_R   0.500000 0.560800 0.285330 -0.636341
O6    O     O_R   0.500000 0.439200 0.714670 -0.556544
O7    O     O_R   0.500000 0.560800 0.714670 -0.635508
O8    O     O_R   0.500000 0.439200 0.285330 -0.553538
Zn1   Zn    Zn3+2 0.500000 0.581210 0.500000 0.998053
Zn2   Zn    Zn3+2 0.500000 0.418790 0.500000 1.030537
O9    O     O_3   0.715592 0.372915 0.450987 -0.564637
C41   C     C_3   0.733734 0.333715 0.583955 0.157853
H5    H     H_    0.701221 0.351833 0.674056 0.126007
H6    H     H_    0.789900 0.339558 0.624594 0.152658
C42   C     C_3   0.719614 0.254530 0.554697 -0.815143
H7    H     H_    0.752985 0.235634 0.466628 0.270130
H8    H     H_    0.732167 0.223160 0.659084 0.192053
H9    H     H_    0.663694 0.245711 0.516615 0.255033
O10   O     O_3   0.305987 0.622110 0.645462 -0.519552
C43   C     C_3   0.328808 0.609336 0.796810 0.197567
H10   H     H_    0.357826 0.557904 0.810428 0.106894
H11   H     H_    0.283406 0.607456 0.868185 0.125703
C44   C     C_3   0.377982 0.669929 0.850604 -0.771945
H12   H     H_    0.400350 0.657835 0.965853 0.187872
H13   H     H_    0.421767 0.675728 0.776175 0.269504
H14   H     H_    0.349036 0.721292 0.850561 0.259730
O11   O     O_3   0.273986 0.373715 0.498222 -0.542377
C45   C     C_3   0.269809 0.365953 0.340944 0.138078
H15   H     H_    0.310770 0.399178 0.291055 0.134949
H16   H     H_    0.218164 0.382280 0.286249 0.081522
C46   C     C_3   0.281333 0.287771 0.306308 -0.831087
H17   H     H_    0.238688 0.254055 0.348806 0.246633
H18   H     H_    0.282006 0.280562 0.183430 0.210829
H19   H     H_    0.331803 0.270422 0.363084 0.253801
O12   O     O_3   0.703482 0.630646 0.395661 -0.513480
C47   C     C_3   0.689370 0.635266 0.238745 0.176824
H20   H     H_    0.664531 0.584902 0.193039 0.100466
H21   H     H_    0.738675 0.646421 0.183020 0.141578
C48   C     C_3   0.638880 0.696560 0.201539 -0.747598
H22   H     H_    0.660759 0.747418 0.249317 0.285508
H23   H     H_    0.630009 0.703449 0.078461 0.169053
H24   H     H_    0.587635 0.684630 0.247622 0.255911
O13   O     O_3   0.859462 0.384046 0.411581 -0.598660
C49   C     C_3   0.847597 0.366477 0.258346 0.155027
H25   H     H_    0.853912 0.414264 0.183701 0.110754
H26   H     H_    0.794056 0.343348 0.235892 0.184491
C50   C     C_3   0.900246 0.310814 0.217595 -0.868197
H27   H     H_    0.898022 0.263424 0.293757 0.266336
H28   H     H_    0.887951 0.293201 0.100397 0.209271
H29   H     H_    0.953801 0.334662 0.226311 0.250318
O14   O     O_3   0.161648 0.637429 0.640089 -0.583177
C51   C     C_3   0.167643 0.689419 0.525080 0.144308
H30   H     H_    0.140012 0.671290 0.418360 0.109751
H31   H     H_    0.223243 0.701671 0.505329 0.222423
C52   C     C_3   0.134502 0.758828 0.571068 -0.769309
H32   H     H_    0.162634 0.779452 0.674950 0.269438
H33   H     H_    0.137723 0.799780 0.480451 0.212554
H34   H     H_    0.078633 0.749265 0.591878 0.244138
O15   O     O_3   0.139473 0.383066 0.596348 -0.571888
C53   C     C_3   0.103128 0.353912 0.468035 0.119196
H35   H     H_    0.138311 0.318364 0.410457 0.165201
H36   H     H_    0.081513 0.395500 0.387431 0.119156
C54   C     C_3   0.042913 0.307437 0.517877 -0.786313
H37   H     H_    0.001237 0.341633 0.558711 0.276669
H38   H     H_    0.020707 0.274867 0.422744 0.206284
H39   H     H_    0.062027 0.270172 0.609315 0.261294
O16   O     O_3   0.848747 0.640023 0.419216 -0.593949
C55   C     C_3   0.848472 0.678175 0.554593 0.157022
H40   H     H_    0.862021 0.643256 0.654596 0.108615
H41   H     H_    0.796311 0.702676 0.564821 0.211472
C56   C     C_3   0.902859 0.738205 0.553135 -0.797467
H42   H     H_    0.890020 0.775511 0.457550 0.267005
H43   H     H_    0.903680 0.768567 0.659357 0.211440
H44   H     H_    0.955479 0.715163 0.541717 0.253568
O17   O     O_3   0.620812 0.690241 0.581701 -0.498208
C57   C     C_3   0.629367 0.690658 0.739915 0.183455
H45   H     H_    0.579045 0.680998 0.793491 0.107009
H46   H     H_    0.652074 0.743075 0.777951 0.161097
C58   C     C_3   0.679934 0.631575 0.793486 -0.820523
H47   H     H_    0.728134 0.634552 0.731756 0.244698
H48   H     H_    0.695110 0.637475 0.914418 0.179477
H49   H     H_    0.654842 0.578067 0.776235 0.236496
O18   O     O_3   0.504813 0.307808 0.234140 -0.571860
C59   C     C_3   0.450075 0.279010 0.136152 0.169088
H50   H     H_    0.410716 0.246378 0.193489 0.116750
H51   H     H_    0.472855 0.243851 0.054355 0.240445
C60   C     C_3   0.411214 0.338689 0.049151 -0.787531
H52   H     H_    0.446274 0.366278 0.973696 0.297658
H53   H     H_    0.366090 0.315818 0.979906 0.230791
H54   H     H_    0.391822 0.378393 0.126813 0.229073
O19   O     O_3   0.377330 0.689572 0.436213 -0.501195
C61   C     C_3   0.352510 0.705551 0.287007 0.163114
H55   H     H_    0.317600 0.752717 0.285851 0.158270
H56   H     H_    0.395530 0.716430 0.211292 0.096840
C62   C     C_3   0.309199 0.642426 0.224104 -0.863748
H57   H     H_    0.267673 0.627617 0.299712 0.241743
H58   H     H_    0.283676 0.657520 0.113193 0.205163
H59   H     H_    0.343339 0.595405 0.210937 0.244140
O20   O     O_3   0.507183 0.307138 0.766994 -0.572759
C63   C     C_3   0.573528 0.285724 0.833283 0.131087
H60   H     H_    0.611482 0.271914 0.749524 0.105468
H61   H     H_    0.567074 0.237740 0.905853 0.214425
C64   C     C_3   0.606864 0.345715 0.928856 -0.800184
H62   H     H_    0.571914 0.361604 0.015933 0.303635
H63   H     H_    0.657136 0.327027 0.985054 0.206150
H64   H     H_    0.617819 0.393124 0.857579 0.228054
Br1   Br    Br    0.653745 0.849470 0.518194 -0.489363
Br2   Br    Br    0.563956 0.150527 0.220768 -0.470051
Br3   Br    Br    0.350717 0.845018 0.540866 -0.634078
Br4   Br    Br    0.441320 0.152809 0.798922 -0.497848
O21   O     O_3   0.451322 0.926965 0.246604 -0.591762
C65   C     C_3   0.378337 0.920650 0.210526 0.175833
H65   H     H_    0.345359 0.953322 0.280668 0.158505
H66   H     H_    0.362712 0.863849 0.225385 0.148986
C66   C     C_3   0.361702 0.939888 0.046175 -0.808723
H67   H     H_    0.384302 0.993302 0.019574 0.309717
H68   H     H_    0.304030 0.941045 0.021201 0.209948
H69   H     H_    0.383409 0.898726 0.974466 0.232027
O22   O     O_3   0.573259 0.071565 0.736417 -0.541920
C67   C     C_3   0.644234 0.074627 0.703049 0.146223
H70   H     H_    0.650878 0.111896 0.606781 0.139796
H71   H     H_    0.664408 0.020742 0.675849 0.194153
C68   C     C_3   0.688033 0.102123 0.839378 -0.773019
H72   H     H_    0.682278 0.065289 0.936463 0.289271
H73   H     H_    0.744127 0.104890 0.814924 0.195670
H74   H     H_    0.670640 0.156494 0.868705 0.243093
O23   O     O_3   0.565206 0.924168 0.745155 -0.562766
C69   C     C_3   0.516555 0.908000 0.852207 0.149245
H75   H     H_    0.470088 0.878451 0.800973 0.143673
H76   H     H_    0.499355 0.958182 0.904494 0.214531
C70   C     C_3   0.551228 0.860097 0.974199 -0.752935
H77   H     H_    0.570287 0.810458 0.923984 0.213842
H78   H     H_    0.512833 0.844691 0.056629 0.238517
H79   H     H_    0.596119 0.888814 0.033032 0.281484
O24   O     O_3   0.421885 0.072940 0.275437 -0.542158
C71   C     C_3   0.359267 0.098984 0.329757 0.096044
H80   H     H_    0.369559 0.150368 0.388804 0.152243
H81   H     H_    0.335253 0.060537 0.408509 0.135216
C72   C     C_3   0.305929 0.112643 0.198355 -0.815727
H82   H     H_    0.291365 0.061703 0.141101 0.254718
H83   H     H_    0.257678 0.135665 0.239404 0.210787
H84   H     H_    0.327855 0.150523 0.116598 0.276259

loop_
_geom_bond_atom_site_label_1
_geom_bond_atom_site_label_2
_ccdc_geom_bond_type
C28   O14   S    
C15   C18   A    
C67   H71   S    
C11   C18   S    
C50   H27   S    
C44   H14   S    
C56   H42   S    
C68   H72   S    
C36   H2    S    
C4    C8    A    
C62   H58   S    
O20   C63   S    
O9    C41   S    
C4    N2    A    
O24   C71   S    
C7    C11   A    
O22   C67   S    
C58   H47   S    
C45   H16   S    
C13   C18   A    
C47   C48   S    
C35   C37   A    
O18   C59   S    
C29   C32   A    
C3    C7    A    
C56   H43   S    
C48   H22   S    
C30   C31   A    
C72   H83   S    
C43   C44   S    
C53   H35   S    
C38   H4    S    
C41   H6    S    
C31   C40   S    
C42   H8    S    
O11   C45   S    
C32   C39   S    
C44   H13   S    
C69   H75   S    
C65   C66   S    
C71   H80   S    
O21   C65   S    
C16   C17   A    
C23   C33   A    
C45   C46   S    
C24   C34   A    
C12   C17   S    
C58   H49   S    
C27   O13   S    
C23   C27   A    
C8    Br2   S    
C1    O4    A    
C25   O11   S    
C46   H17   S    
C25   C34   A    
C41   C42   S    
O7    Zn1   S    
C43   H10   S    
C50   H28   S    
C21   C22   T    
C65   H66   S    
C68   H73   S    
C14   C17   A    
C29   O15   S    
C42   H7    S    
C13   O21   S    
C66   H68   S    
C1    C34   S    
O14   C51   S    
C63   H61   S    
C46   H18   S    
C25   C29   A    
O8    Zn2   S    
C45   H15   S    
C15   O23   S    
C48   H23   S    
C27   C31   A    
C52   H32   S    
C28   C32   A    
C54   H37   S    
C56   H44   S    
C10   Br4   S    
C6    O20   S    
C16   O24   S    
C1    O1    A    
C72   H84   S    
C2    O2    A    
C41   H5    S    
O23   C69   S    
C5    N1    A    
C3    N1    A    
O12   C47   S    
C54   H39   S    
C71   C72   S    
C65   H65   S    
C37   H3    S    
C42   H9    S    
C59   H51   S    
C5    C9    A    
C2    O3    A    
C60   H54   S    
C63   C64   S    
C26   C33   A    
C49   H26   S    
C7    Br1   S    
C8    C12   A    
C70   H79   S    
O3    Zn1   S    
C14   O22   S    
C5    O19   S    
C9    C11   A    
C69   C70   S    
N1    Zn1   S    
O17   C57   S    
C63   H60   S    
C10   C12   A    
C24   O10   S    
C70   H77   S    
C23   O9    S    
C19   O8    A    
C20   C22   S    
C26   C30   A    
C50   H29   S    
C47   H21   S    
C67   H70   S    
C68   H74   S    
C26   O12   S    
C64   H64   S    
C59   C60   S    
C49   H25   S    
C61   H56   S    
C66   H69   S    
C2    C33   S    
C49   C50   S    
O1    Zn1   S    
O16   C55   S    
O15   C53   S    
C48   H24   S    
O2    Zn2   S    
C6    N2    A    
C71   H81   S    
C19   C21   S    
C36   C39   A    
C24   C28   A    
C20   O7    A    
C61   C62   S    
C6    C10   A    
C55   H41   S    
C55   H40   S    
C4    O18   S    
C62   H59   S    
C43   H11   S    
C52   H34   S    
C51   C52   S    
O19   C61   S    
C51   H31   S    
C52   H33   S    
C57   C58   S    
C64   H63   S    
C35   C40   A    
O13   C49   S    
C20   O6    A    
C66   H67   S    
C64   H62   S    
C38   C40   A    
C46   H19   S    
C72   H82   S    
C60   H52   S    
C53   H36   S    
C54   H38   S    
C36   C38   A    
C69   H76   S    
C70   H78   S    
C59   H50   S    
O5    Zn1   S    
O10   C43   S    
C44   H12   S    
C35   H1    S    
O4    Zn2   S    
C55   C56   S    
C61   H55   S    
C3    O17   S    
C19   O5    A    
C9    Br3   S    
C67   C68   S    
C37   C39   A    
C51   H30   S    
C13   C16   A    
N2    Zn2   S    
C58   H48   S    
C60   H53   S    
C14   C15   A    
C47   H20   S    
C57   H45   S    
C62   H57   S    
C57   H46   S    
C30   O16   S    
O6    Zn2   S    
C53   C54   S    
