data_mof_unit_46961.cif
_audit_creation_date              2012-12-10T17:40:58-0500
_audit_creation_method            fapswitch 2.2
_symmetry_space_group_name_H-M    P1
_symmetry_Int_Tables_number       1
_space_group_crystal_system       triclinic
_cell_length_a                    14.965927
_cell_length_b                    13.820159
_cell_length_c                    11.694787
_cell_angle_alpha                 90.770095
_cell_angle_beta                  89.13057
_cell_angle_gamma                 90.68069
_cell_volume                      2418.18837066

loop_
_atom_site_label
_atom_site_type_symbol
_atom_type_description
_atom_site_fract_x
_atom_site_fract_y
_atom_site_fract_z
_atom_type_partial_charge
C1    C     C_R   0.329076 0.499559 0.499573 0.789752
C2    C     C_R   0.670952 0.500414 0.500262 0.792587
C3    C     C_R   0.907639 0.512123 0.395731 0.025079
C4    C     C_R   0.092449 0.485190 0.603393 0.030645
C5    C     C_R   0.950376 0.472889 0.705213 -0.314470
C6    C     C_R   0.049729 0.525007 0.293819 -0.308181
C7    C     C_R   0.043924 0.471372 0.706118 0.429722
C8    C     C_R   0.956209 0.524051 0.292668 0.422880
C9    C     C_R   0.447325 0.793835 0.577566 0.531661
C10   C     C_R   0.546254 0.205445 0.416073 0.533870
C11   C     C_R   0.556116 0.793363 0.426389 0.534509
C12   C     C_R   0.450809 0.206540 0.581337 0.534147
C13   C     C_R   0.553576 0.896238 0.421290 -0.096297
C14   C     C_R   0.454488 0.103516 0.587137 -0.095764
C15   C     C_R   0.453043 0.896837 0.585788 -0.097397
C16   C     C_R   0.551248 0.102589 0.419036 -0.093492
C17   C     C_R   0.503054 0.948120 0.503312 0.018881
C18   C     C_R   0.502824 0.051537 0.503098 0.016699
C19   C     C_R   0.601987 0.948451 0.338063 -0.175480
C20   C     C_R   0.412533 0.051229 0.676023 -0.174527
C21   C     C_R   0.411188 0.949742 0.674865 -0.174410
C22   C     C_R   0.603481 0.049585 0.339595 -0.173725
C23   C     C_R   0.500076 0.499535 0.284064 0.820274
C24   C     C_R   0.499783 0.500495 0.715943 0.818113
C25   C     C_1   0.499954 0.498914 0.162373 -0.185755
C26   C     C_1   0.499742 0.501221 0.837643 -0.153805
C27   C     C_1   0.499868 0.499474 0.059890 -0.008423
C28   C     C_1   0.499778 0.500634 0.940132 0.006841
C29   C     C_R   0.814248 0.512911 0.397462 -0.230855
C30   C     C_R   0.185824 0.485794 0.601959 -0.248123
C31   C     C_R   0.767280 0.500982 0.500296 -0.064175
C32   C     C_R   0.232799 0.498746 0.499340 -0.076736
C33   C     C_R   0.811836 0.487043 0.602547 -0.214508
C34   C     C_R   0.188301 0.512282 0.396947 -0.223768
C35   C     C_R   0.904968 0.485899 0.602922 0.082174
C36   C     C_R   0.095158 0.511770 0.396148 0.078002
C37   C     C_R   0.953205 0.498518 0.499340 -0.008335
C38   C     C_R   0.046898 0.498172 0.499594 -0.008316
Cu1   Cu    Cu3+1 0.500000 0.597420 0.500000 1.013269
Cu2   Cu    Cu3+1 0.500000 0.402580 0.500000 1.007265
H1    H     H_    0.777472 0.522094 0.319236 0.173675
H2    H     H_    0.222569 0.476726 0.680217 0.174684
H3    H     H_    0.773826 0.477317 0.681397 0.123530
H4    H     H_    0.226370 0.522766 0.318294 0.125543
H5    H     H_    0.913320 0.464502 0.784683 0.152291
H6    H     H_    0.086647 0.536434 0.214579 0.162340
H7    H     H_    0.639028 0.911640 0.270660 0.170939
H8    H     H_    0.380736 0.088349 0.747501 0.167266
H9    H     H_    0.378051 0.913048 0.745118 0.169896
H10   H     H_    0.646168 0.085730 0.277698 0.168592
N1    N     N_R   0.500000 0.743810 0.500000 -0.261809
N2    N     N_R   0.500000 0.256190 0.500000 -0.262570
O1    O     O_R   0.370260 0.582280 0.500020 -0.561670
O2    O     O_R   0.629740 0.417720 0.499980 -0.546604
O3    O     O_R   0.629740 0.582280 0.499980 -0.568542
O4    O     O_R   0.370260 0.417720 0.500020 -0.573211
O5    O     O_R   0.500010 0.582270 0.337200 -0.532582
O6    O     O_R   0.499990 0.417730 0.662800 -0.533934
O7    O     O_R   0.499990 0.582270 0.662800 -0.536963
O8    O     O_R   0.500010 0.417730 0.337200 -0.555096
O9    O     O_3   0.088298 0.463425 0.808466 -0.575763
C39   C     C_3   0.081832 0.366798 0.845701 0.051141
H11   H     H_    0.099608 0.314395 0.775777 0.128384
H12   H     H_    0.013026 0.350582 0.878043 0.143714
C40   C     C_3   0.146770 0.352845 0.942743 -0.795512
H13   H     H_    0.131492 0.403977 0.014265 0.243869
H14   H     H_    0.141093 0.277618 0.974509 0.196748
H15   H     H_    0.216343 0.366127 0.911812 0.252307
O10   O     O_3   0.912296 0.541327 0.191951 -0.577029
C41   C     C_3   0.908549 0.454543 0.127144 0.063039
H16   H     H_    0.882325 0.392982 0.179090 0.138584
H17   H     H_    0.975984 0.436430 0.092334 0.153146
C42   C     C_3   0.845910 0.467782 0.027553 -0.774169
H18   H     H_    0.869458 0.529261 0.974324 0.258097
H19   H     H_    0.844131 0.400843 0.973979 0.184858
H20   H     H_    0.777284 0.482921 0.060165 0.247887
O11   O     O_3   0.391766 0.742476 0.651031 -0.548412
C43   C     C_3   0.302056 0.752751 0.616983 -0.266343
H21   H     H_    0.261373 0.693977 0.656224 0.195242
H22   H     H_    0.294001 0.746705 0.522520 0.158755
H23   H     H_    0.273863 0.822268 0.648082 0.136944
O12   O     O_3   0.588528 0.255235 0.328358 -0.549147
C44   C     C_3   0.537946 0.243883 0.227268 -0.283683
H24   H     H_    0.562554 0.297438 0.164066 0.188503
H25   H     H_    0.465345 0.256908 0.242482 0.156263
H26   H     H_    0.546107 0.171627 0.186719 0.137345
O13   O     O_3   0.613881 0.741868 0.355663 -0.549214
C45   C     C_3   0.702183 0.753074 0.396264 -0.262398
H27   H     H_    0.706354 0.744461 0.490632 0.160947
H28   H     H_    0.732268 0.823768 0.372693 0.137808
H29   H     H_    0.744301 0.696874 0.355009 0.195046
O14   O     O_3   0.398124 0.257992 0.658378 -0.548142
C46   C     C_3   0.307397 0.247904 0.627405 -0.296529
H30   H     H_    0.268811 0.305628 0.671596 0.183290
H31   H     H_    0.278432 0.177936 0.655881 0.136288
H32   H     H_    0.297159 0.255115 0.533730 0.162536

loop_
_geom_bond_atom_site_label_1
_geom_bond_atom_site_label_2
_ccdc_geom_bond_type
Cu1   N1    S    
O13   C45   S    
C46   H30   S    
Cu2   O8    S    
C42   H18   S    
C14   C18   A    
C9    N1    A    
C10   N2    A    
C21   H9    S    
O11   C43   S    
C8    O10   S    
C37   C38   A    
C35   C37   A    
C1    O4    A    
C24   C26   S    
C2    O3    A    
C43   H22   S    
Cu1   O5    S    
C15   C17   A    
C3    C29   A    
C1    O1    A    
C7    O9    S    
C39   H12   S    
Cu1   O3    S    
C11   O13   S    
Cu2   O4    S    
C31   C33   A    
C41   H16   S    
C22   H10   S    
C46   H31   S    
C42   H19   S    
O9    C39   S    
C4    C7    A    
C12   N2    A    
C23   O8    A    
Cu2   O6    S    
C13   C19   A    
C33   H3    S    
C14   C20   A    
C19   C22   A    
C34   H4    S    
C3    C8    A    
C2    O2    A    
Cu1   Cu2   S    
C5    C7    A    
C43   H21   S    
C6    C8    A    
C40   H14   S    
Cu2   N2    S    
C5    H5    S    
C10   O12   S    
C1    C32   S    
C2    C31   S    
C32   C34   A    
C39   H11   S    
C44   H24   S    
C45   H29   S    
C40   H15   S    
Cu1   O7    S    
C41   C42   S    
C17   C18   A    
C9    O11   S    
C45   H27   S    
C20   H8    S    
C24   O6    A    
C44   H25   S    
C12   C14   A    
C40   H13   S    
C46   H32   S    
Cu2   O2    S    
C42   H20   S    
C23   O5    A    
C16   C22   A    
C6    H6    S    
C39   C40   S    
C29   H1    S    
C12   O14   S    
C45   H28   S    
C25   C27   T    
C26   C28   T    
C13   C17   A    
C36   C38   A    
C9    C15   A    
C29   C31   A    
C10   C16   A    
C30   C32   A    
C11   C13   A    
C43   H23   S    
Cu1   O1    S    
C24   O7    A    
C5    C35   A    
O14   C46   S    
C33   C35   A    
C6    C36   A    
C34   C36   A    
C23   C25   S    
O10   C41   S    
C11   N1    A    
C15   C21   A    
C44   H26   S    
C20   C21   A    
C3    C37   A    
C16   C18   A    
O12   C44   S    
C19   H7    S    
C27   C28   S    
C30   H2    S    
C41   H17   S    
C4    C38   A    
C4    C30   A    
