data_mof_unit_61869.cif
_audit_creation_date              2012-12-10T19:01:47-0500
_audit_creation_method            fapswitch 2.2
_symmetry_space_group_name_H-M    P1
_symmetry_Int_Tables_number       1
_space_group_crystal_system       triclinic
_cell_length_a                    43.884499
_cell_length_b                    30.271386
_cell_length_c                    31.808055
_cell_angle_alpha                 90.050007
_cell_angle_beta                  136.383025
_cell_angle_gamma                 89.96664
_cell_volume                      29149.0921718

loop_
_atom_site_label
_atom_site_type_symbol
_atom_type_description
_atom_site_fract_x
_atom_site_fract_y
_atom_site_fract_z
_atom_type_partial_charge
Br1   Br    Br    0.429042 0.927217 0.213460 -0.520495
Br2   Br    Br    0.585107 0.944320 0.800539 -0.517337
Br3   Br    Br    0.924740 0.431689 0.209164 -0.514458
Br4   Br    Br    0.079442 0.436510 0.794864 -0.513675
C1    C     C_R   0.586248 0.999983 0.086258 0.862576
C2    C     C_3   0.537545 0.018874 0.801545 -0.188037
C3    C     C_R   0.038068 0.296800 0.525936 -0.169530
C4    C     C_R   0.538058 0.842613 0.550208 -0.179291
C5    C     C_R   0.461902 0.842590 0.449853 -0.177543
C6    C     C_R   0.961848 0.342604 0.473850 -0.178887
C7    C     C_R   0.038167 0.342587 0.526255 -0.178558
C8    C     C_R   0.499989 0.865645 0.500019 -0.033617
C9    C     C_R   0.000002 0.365641 0.500029 -0.027684
C10   C     C_R   0.499955 0.773929 0.500057 0.105274
C11   C     C_R   0.000022 0.273924 0.500108 0.108374
C12   C     C_R   0.012400 0.203120 0.476115 -0.171023
C13   C     C_3   0.959955 0.512846 0.195994 -0.187963
C14   C     C_R   0.987646 0.203158 0.524073 -0.170993
C15   C     C_R   0.487814 0.703124 0.451501 -0.171158
C16   C     C_R   0.512103 0.703160 0.548582 -0.172193
C17   C     C_R   0.012134 0.157334 0.475732 -0.190765
C18   C     C_R   0.987906 0.157369 0.524417 -0.187947
C19   C     C_R   0.488090 0.657338 0.451656 -0.189714
C20   C     C_R   0.511854 0.657372 0.548410 -0.189766
C21   C     C_R   0.000016 0.134313 0.500061 -0.034339
C22   C     C_R   0.499981 0.634315 0.500030 -0.034209
C23   C     C_3   0.529185 0.030014 0.265138 -0.147255
C24   C     C_3   0.039150 0.515235 0.803144 -0.188182
C25   C     C_3   0.465004 0.022827 0.729116 -0.147755
C26   C     C_3   0.030965 0.528188 0.266914 -0.147032
C27   C     C_3   0.967320 0.526033 0.731432 -0.147024
C28   C     C_R   0.000024 0.226024 0.500102 0.108979
C29   C     C_R   0.499952 0.726028 0.500045 0.108018
C30   C     C_R   0.462040 0.202978 0.449677 -0.176187
C31   C     C_R   0.538022 0.203003 0.550207 -0.176045
C32   C     C_R   0.962031 0.702980 0.449707 -0.176227
C33   C     C_R   0.038034 0.703003 0.550200 -0.176054
C34   C     C_R   0.461915 0.157180 0.449839 -0.189340
C35   C     C_3   0.488583 0.040362 0.252568 -0.207017
C36   C     C_R   0.538121 0.157206 0.550086 -0.188597
C37   C     C_R   0.961906 0.657183 0.449865 -0.189111
C38   C     C_R   0.038131 0.657205 0.550076 -0.189017
C39   C     C_R   0.500010 0.134135 0.499976 -0.029224
C40   C     C_R   0.000011 0.634136 0.499981 -0.029097
C41   C     C_R   0.500036 0.225891 0.499935 0.108659
C42   C     C_R   0.000039 0.725892 0.499947 0.108848
C43   C     C_R   0.012372 0.796740 0.548634 -0.174848
C44   C     C_R   0.987705 0.796699 0.451292 -0.174447
C45   C     C_R   0.512316 0.296735 0.548587 -0.174737
C46   C     C_3   0.502384 0.041782 0.738504 -0.207470
C47   C     C_R   0.487749 0.296699 0.451314 -0.174687
C48   C     C_R   0.012097 0.842536 0.548479 -0.191875
C49   C     C_R   0.987962 0.842498 0.451466 -0.188789
C50   C     C_R   0.512040 0.342532 0.548434 -0.190227
C51   C     C_R   0.488007 0.342498 0.451492 -0.190231
C52   C     C_R   0.000022 0.865568 0.499976 -0.033709
C53   C     C_R   0.500017 0.365567 0.499968 -0.034485
C54   C     C_R   0.000042 0.773819 0.499958 0.109860
C55   C     C_R   0.500037 0.273817 0.499945 0.109626
C56   C     C_1   0.499919 0.000018 0.125736 -0.182170
C57   C     C_3   0.991069 0.540993 0.255050 -0.207214
C58   C     C_1   0.500086 0.999917 0.874270 -0.182187
C59   C     C_1   0.999923 0.500022 0.125739 -0.182181
C60   C     C_1   0.000078 0.499914 0.874262 -0.182203
C61   C     C_1   0.500049 0.000020 0.374240 -0.161650
C62   C     C_1   0.499949 0.999989 0.625759 -0.161650
C63   C     C_1   0.000052 0.500023 0.374243 -0.161687
C64   C     C_1   0.999948 0.499991 0.625758 -0.161687
C65   C     C_3   0.511335 0.959592 0.247232 -0.189538
C66   C     C_3   0.497739 0.957972 0.761738 -0.188377
C67   C     C_3   0.008856 0.458985 0.244757 -0.189608
C68   C     C_3   0.006320 0.541362 0.742432 -0.207360
C69   C     C_3   0.993767 0.458379 0.757776 -0.189427
C70   C     C_3   0.499886 0.999983 0.208740 0.149090
C71   C     C_3   0.500133 0.999870 0.791279 0.149319
C72   C     C_3   0.999891 0.499998 0.208744 0.149431
C73   C     C_3   0.000114 0.499859 0.791261 0.149420
C74   C     C_3   0.471026 0.970324 0.234817 0.322273
C75   C     C_3   0.534750 0.977239 0.770895 0.322078
C76   C     C_3   0.969276 0.472155 0.233070 0.322579
C77   C     C_3   0.032430 0.474053 0.768575 0.322550
C78   C     C_1   0.499900 0.000016 0.163272 -0.043895
C79   C     C_1   0.500111 0.999892 0.836739 -0.043899
C80   C     C_1   0.999905 0.500025 0.163277 -0.044005
C81   C     C_R   0.413750 0.999978 0.913746 0.862317
C82   C     C_1   0.000097 0.499886 0.836725 -0.044027
C83   C     C_1   0.500070 0.000059 0.336707 -0.011674
C84   C     C_1   0.499929 0.999998 0.663292 -0.011938
C85   C     C_1   0.000075 0.500064 0.336713 -0.012197
C86   C     C_1   0.999925 0.500000 0.663288 -0.012254
C87   C     C_R   0.703050 0.038081 0.190918 -0.174513
C88   C     C_R   0.296920 0.961931 0.808898 -0.174103
C89   C     C_R   0.203050 0.538092 0.190936 -0.174674
C90   C     C_R   0.796953 0.538092 0.809092 -0.174761
C91   C     C_R   0.657258 0.038153 0.145322 -0.187133
C92   C     C_R   0.086249 0.499983 0.086257 0.862397
C93   C     C_R   0.342708 0.961826 0.854488 -0.185270
C94   C     C_R   0.157257 0.538164 0.145342 -0.187531
C95   C     C_R   0.842745 0.538167 0.854685 -0.187696
C96   C     C_R   0.634204 0.000025 0.134268 -0.029349
C97   C     C_R   0.365793 0.999996 0.865756 -0.030082
C98   C     C_R   0.134205 0.500026 0.134263 -0.029269
C99   C     C_R   0.865795 0.500017 0.865738 -0.029302
C100  C     C_R   0.657254 0.961941 0.169389 -0.187169
C101  C     C_R   0.342768 0.038162 0.830862 -0.189695
C102  C     C_R   0.157257 0.461932 0.169355 -0.187197
C103  C     C_R   0.913751 0.499980 0.913743 0.862312
C104  C     C_R   0.842741 0.461907 0.830622 -0.187193
C105  C     C_R   0.703044 0.962091 0.215487 -0.173596
C106  C     C_R   0.296976 0.038050 0.784774 -0.174792
C107  C     C_R   0.203047 0.462082 0.215449 -0.173834
C108  C     C_R   0.796950 0.462054 0.784527 -0.173864
C109  C     C_R   0.499948 0.999984 0.081234 0.910318
C110  C     C_R   0.500052 0.999950 0.918766 0.910660
C111  C     C_R   0.999949 0.499984 0.081235 0.910430
C112  C     C_R   0.000051 0.499950 0.918765 0.910487
C113  C     C_R   0.725940 0.000103 0.226117 0.109021
C114  C     C_3   0.500020 0.000044 0.291162 0.137732
C115  C     C_R   0.274052 0.999990 0.773922 0.108827
C116  C     C_R   0.225942 0.500104 0.226107 0.109200
C117  C     C_R   0.774058 0.500088 0.773896 0.109141
C118  C     C_R   0.796725 0.987837 0.333232 -0.175574
C119  C     C_R   0.203261 0.012566 0.666895 -0.174966
C120  C     C_R   0.296725 0.487793 0.333210 -0.175390
C121  C     C_R   0.703273 0.487753 0.666778 -0.175277
C122  C     C_R   0.842518 0.988054 0.379082 -0.190388
C123  C     C_R   0.157467 0.012278 0.621026 -0.190444
C124  C     C_R   0.342518 0.488010 0.379063 -0.189062
C125  C     C_3   0.499987 0.999959 0.708846 0.137536
C126  C     C_R   0.657480 0.487977 0.620923 -0.188932
C127  C     C_R   0.865585 0.000012 0.365656 -0.034745
C128  C     C_R   0.134407 0.999958 0.634347 -0.032973
C129  C     C_R   0.365586 0.500017 0.365655 -0.033919
C130  C     C_R   0.634414 0.500010 0.634346 -0.033856
C131  C     C_R   0.842560 0.012032 0.306188 -0.188902
C132  C     C_R   0.157429 0.987660 0.693724 -0.189346
C133  C     C_R   0.342565 0.512088 0.306204 -0.190579
C134  C     C_R   0.657438 0.512101 0.693813 -0.190686
C135  C     C_R   0.796770 0.012347 0.260543 -0.171297
C136  C     C_3   0.000027 0.500053 0.291168 0.137638
C137  C     C_R   0.203218 0.987416 0.739383 -0.172183
C138  C     C_R   0.296775 0.512402 0.260556 -0.171599
C139  C     C_R   0.703227 0.512409 0.739462 -0.171741
C140  C     C_R   0.773855 0.000112 0.274014 0.108962
C141  C     C_R   0.226135 0.999996 0.726021 0.109517
C142  C     C_R   0.273856 0.500116 0.274007 0.109324
C143  C     C_R   0.726144 0.500098 0.725996 0.109381
C144  C     C_R   0.499998 0.913585 0.500000 0.869318
C145  C     C_R   0.999999 0.413583 0.500002 0.869080
C146  C     C_R   0.499987 0.999953 0.418705 0.908148
C147  C     C_3   0.999977 0.499956 0.708835 0.137628
C148  C     C_R   0.500012 0.999953 0.581295 0.907068
C149  C     C_R   0.999988 0.499953 0.418705 0.907833
C150  C     C_R   0.000012 0.499953 0.581295 0.907507
C151  C     C_R   0.500002 0.086169 0.499997 0.857383
C152  C     C_R   0.000002 0.586169 0.499998 0.857235
C153  C     C_3   0.540590 0.989664 0.304434 -0.208144
C154  C     C_3   0.462644 0.980981 0.698762 -0.207699
C155  C     C_3   0.039889 0.487219 0.303732 -0.208988
C156  C     C_3   0.961012 0.484599 0.697137 -0.208860
C157  C     C_R   0.000003 0.086381 0.500019 0.874328
C158  C     C_3   0.459242 0.010372 0.195281 -0.187262
C159  C     C_R   0.499998 0.586382 0.500014 0.874266
C160  C     C_R   0.913530 0.999960 0.413546 0.873663
C161  C     C_R   0.086467 0.999951 0.586452 0.873541
C162  C     C_R   0.413531 0.499961 0.413546 0.873650
C163  C     C_R   0.586469 0.499960 0.586454 0.873662
C164  C     C_R   0.000004 0.913524 0.499988 0.873110
C165  C     C_R   0.500002 0.413524 0.499986 0.873273
C166  C     C_R   0.537929 0.796826 0.550367 -0.170398
C167  C     C_R   0.461995 0.796803 0.449733 -0.170098
C168  C     C_R   0.961968 0.296816 0.474249 -0.169726
H1    H     H_    0.553144 0.054603 0.276821 0.142761
H2    H     H_    0.220872 0.022114 0.656264 0.133969
H3    H     H_    0.279109 0.478474 0.343902 0.134398
H4    H     H_    0.720888 0.478414 0.656075 0.134448
H5    H     H_    0.859824 0.978538 0.424758 0.154971
H6    H     H_    0.140153 0.022028 0.575417 0.153765
H7    H     H_    0.359823 0.478454 0.424726 0.155015
H8    H     H_    0.640173 0.478405 0.575248 0.155072
H9    H     H_    0.859897 0.021511 0.295120 0.156828
H10   H     H_    0.140089 0.977900 0.704701 0.155106
H11   H     H_    0.359905 0.521607 0.295153 0.155371
H12   H     H_    0.436271 0.041603 0.712711 0.141577
H13   H     H_    0.640099 0.521640 0.704874 0.155193
H14   H     H_    0.779192 0.021647 0.214671 0.138113
H15   H     H_    0.220793 0.977881 0.785183 0.137461
H16   H     H_    0.279200 0.521741 0.214696 0.137344
H17   H     H_    0.720805 0.521765 0.785334 0.137114
H18   H     H_    0.567479 0.779233 0.589305 0.138044
H19   H     H_    0.432437 0.779194 0.410803 0.138074
H20   H     H_    0.932353 0.279222 0.453909 0.135970
H21   H     H_    0.067688 0.279194 0.546296 0.135837
H22   H     H_    0.567696 0.859942 0.589424 0.161678
H23   H     H_    0.056377 0.551270 0.280046 0.142574
H24   H     H_    0.432275 0.859900 0.410621 0.161672
H25   H     H_    0.932146 0.359927 0.453615 0.157025
H26   H     H_    0.067863 0.359895 0.546461 0.157082
H27   H     H_    0.021785 0.220704 0.457209 0.137687
H28   H     H_    0.978260 0.220773 0.542989 0.137866
H29   H     H_    0.478610 0.720710 0.413974 0.139898
H30   H     H_    0.521304 0.720776 0.586118 0.138630
H31   H     H_    0.021728 0.139997 0.456944 0.154849
H32   H     H_    0.978309 0.140057 0.543188 0.156114
H33   H     H_    0.478684 0.640000 0.413831 0.155766
H34   H     H_    0.940495 0.547447 0.716940 0.142404
H35   H     H_    0.521272 0.640059 0.586227 0.155372
H36   H     H_    0.432466 0.220565 0.410775 0.135954
H37   H     H_    0.567603 0.220609 0.589100 0.136204
H38   H     H_    0.932450 0.720568 0.410820 0.135947
H39   H     H_    0.067623 0.720606 0.589080 0.135768
H40   H     H_    0.573917 0.981264 0.349880 0.152229
H41   H     H_    0.431943 0.965540 0.655908 0.152225
H42   H     H_    0.072641 0.476804 0.348603 0.151541
H43   H     H_    0.928987 0.472128 0.652965 0.151523
H44   H     H_    0.432254 0.139854 0.410662 0.157179
H45   H     H_    0.720638 0.932524 0.242423 0.135685
H46   H     H_    0.567773 0.139901 0.589279 0.157758
H47   H     H_    0.932237 0.639858 0.410700 0.157317
H48   H     H_    0.067791 0.639900 0.589254 0.157392
H49   H     H_    0.021725 0.779162 0.586268 0.134658
H50   H     H_    0.978354 0.779087 0.413649 0.135219
H51   H     H_    0.521631 0.279155 0.586193 0.135219
H52   H     H_    0.478437 0.279089 0.413697 0.135145
H53   H     H_    0.021653 0.859874 0.586407 0.154196
H54   H     H_    0.978399 0.859807 0.413547 0.155731
H55   H     H_    0.521555 0.359866 0.586335 0.155596
H56   H     H_    0.279402 0.067682 0.758011 0.135211
H57   H     H_    0.478484 0.359808 0.413601 0.155600
H58   H     H_    0.479348 0.073456 0.255568 0.151134
H59   H     H_    0.504202 0.076105 0.728177 0.150685
H60   H     H_    0.983868 0.574589 0.260079 0.150902
H61   H     H_    0.011380 0.575354 0.735333 0.150688
H62   H     H_    0.425850 0.018617 0.149833 0.158951
H63   H     H_    0.568344 0.034178 0.844433 0.158600
H64   H     H_    0.927129 0.523111 0.151111 0.158462
H65   H     H_    0.071259 0.527560 0.847336 0.158400
H66   H     H_    0.520419 0.926428 0.244147 0.159236
H67   H     H_    0.220642 0.432507 0.242363 0.135574
H68   H     H_    0.496085 0.923616 0.772163 0.159999
H69   H     H_    0.015902 0.425328 0.239638 0.159239
H70   H     H_    0.988867 0.424338 0.764969 0.159421
H71   H     H_    0.720649 0.067670 0.199198 0.135983
H72   H     H_    0.279303 0.932299 0.800449 0.136290
H73   H     H_    0.220647 0.567690 0.199236 0.135627
H74   H     H_    0.779357 0.567698 0.800812 0.135646
H75   H     H_    0.639946 0.067796 0.118448 0.156435
H76   H     H_    0.359993 0.932114 0.881184 0.158114
H77   H     H_    0.139944 0.567814 0.118491 0.156299
H78   H     H_    0.779353 0.432467 0.757592 0.135653
H79   H     H_    0.860060 0.567830 0.881556 0.156310
H80   H     H_    0.639938 0.932268 0.161592 0.156610
H81   H     H_    0.360106 0.067872 0.838822 0.155838
H82   H     H_    0.139943 0.432250 0.161539 0.156590
H83   H     H_    0.860053 0.432217 0.838418 0.156616
H84   H     H_    0.779111 0.978556 0.343939 0.134442
O1    O     O_R   0.565460 0.963010 0.065460 -0.624184
O2    O     O_R   0.065510 0.999950 0.600300 -0.624547
O3    O     O_R   0.434490 0.499950 0.399700 -0.626527
O4    O     O_R   0.565510 0.499950 0.600300 -0.626622
O5    O     O_R   0.000010 0.934490 0.534800 -0.627086
O6    O     O_R   0.999990 0.934490 0.465200 -0.623095
O7    O     O_R   0.500010 0.434490 0.534800 -0.625165
O8    O     O_R   0.499990 0.434490 0.465200 -0.625089
O9    O     O_R   0.565400 0.036920 0.065400 -0.625951
O10   O     O_R   0.434600 0.036920 0.934600 -0.625472
O11   O     O_R   0.065400 0.536920 0.065400 -0.625978
O12   O     O_R   0.434540 0.963010 0.934540 -0.624900
O13   O     O_R   0.934600 0.536920 0.934600 -0.625966
O14   O     O_R   0.499990 0.963010 0.061610 -0.615258
O15   O     O_R   0.500010 0.963010 0.938390 -0.610949
O16   O     O_R   0.999990 0.463010 0.061610 -0.612932
O17   O     O_R   0.000010 0.463010 0.938390 -0.613101
O18   O     O_R   0.499940 0.036920 0.061550 -0.614104
O19   O     O_R   0.500060 0.036920 0.938450 -0.618617
O20   O     O_R   0.999940 0.536920 0.061550 -0.616479
O21   O     O_R   0.000060 0.536920 0.938450 -0.616408
O22   O     O_R   0.536910 0.934410 0.536900 -0.622929
O23   O     O_R   0.065460 0.463010 0.065460 -0.624202
O24   O     O_R   0.463090 0.934410 0.463100 -0.623460
O25   O     O_R   0.036910 0.434410 0.536900 -0.622742
O26   O     O_R   0.963090 0.434410 0.463100 -0.622764
O27   O     O_R   0.536920 0.999880 0.475310 -0.618117
O28   O     O_R   0.463080 0.999880 0.524690 -0.619094
O29   O     O_R   0.036920 0.499880 0.475310 -0.620951
O30   O     O_R   0.963080 0.499880 0.524690 -0.621217
O31   O     O_R   0.463000 0.999950 0.401380 -0.607153
O32   O     O_R   0.537000 0.999950 0.598620 -0.604877
O33   O     O_R   0.963000 0.499950 0.401380 -0.603994
O34   O     O_R   0.934540 0.463010 0.934540 -0.624179
O35   O     O_R   0.037000 0.499950 0.598620 -0.603336
O36   O     O_R   0.536940 0.065340 0.536940 -0.625885
O37   O     O_R   0.463060 0.065340 0.463060 -0.626318
O38   O     O_R   0.036940 0.565340 0.536940 -0.626123
O39   O     O_R   0.963060 0.565340 0.463060 -0.626257
O40   O     O_R   0.999920 0.065420 0.534690 -0.622867
O41   O     O_R   0.000080 0.065420 0.465310 -0.626684
O42   O     O_R   0.499920 0.565420 0.534690 -0.624927
O43   O     O_R   0.500080 0.565420 0.465310 -0.624754
O44   O     O_R   0.934500 0.999950 0.469270 -0.625424
O45   O     O_R   0.065500 0.999950 0.530730 -0.625212
O46   O     O_R   0.434500 0.499950 0.469270 -0.623427
O47   O     O_R   0.565500 0.499950 0.530730 -0.623321
O48   O     O_R   0.934490 0.999950 0.399700 -0.624608
Zn1   Zn    Zn3+2 0.500000 0.950610 0.000000 0.966236
Zn2   Zn    Zn3+2 0.000030 0.999950 0.453590 0.951664
Zn3   Zn    Zn3+2 0.499970 0.499950 0.546410 0.950951
Zn4   Zn    Zn3+2 0.500030 0.499950 0.453590 0.951481
Zn5   Zn    Zn3+2 0.000000 0.450610 0.000000 0.966740
Zn6   Zn    Zn3+2 0.500000 0.049320 0.000000 0.958570
Zn7   Zn    Zn3+2 1.000000 0.549320 0.000000 0.958220
Zn8   Zn    Zn3+2 0.549320 0.999860 0.549320 0.974488
Zn9   Zn    Zn3+2 0.450680 0.999860 0.450680 0.971315
Zn10  Zn    Zn3+2 0.049320 0.499860 0.549320 0.973508
Zn11  Zn    Zn3+2 0.950680 0.499860 0.450680 0.972687
Zn12  Zn    Zn3+2 0.999970 0.999950 0.546410 0.951198

loop_
_geom_bond_atom_site_label_1
_geom_bond_atom_site_label_2
_ccdc_geom_bond_type
C95   C99   A    
C101  C106  A    
C129  C133  A    
C92   C98   S    
C138  C142  A    
C101  H81   S    
C10   C166  A    
C110  O15   A    
C10   C29   S    
C56   C109  S    
C2    C71   S    
C120  H3    S    
C154  H41   S    
C116  C142  S    
C69   C156  S    
C60   C112  S    
C88   C115  A    
C58   C110  S    
C38   H48   S    
C134  C139  A    
C136  C155  S    
O2    Zn12  S    
O14   Zn1   S    
C22   C159  S    
C96   C100  A    
C33   C38   A    
C33   H39   S    
C13   C57   S    
C36   C39   A    
C119  C141  A    
C13   C72   S    
C64   C86   T    
C117  C143  S    
C137  H15   S    
C89   C116  A    
C137  C141  A    
C59   C111  S    
C3    C11   A    
C155  H42   S    
C126  C130  A    
C38   C40   A    
O20   Zn7   S    
C69   C77   S    
C110  O19   A    
C27   C73   S    
C11   C28   S    
C134  H13   S    
C83   C114  S    
C95   H79   S    
O27   Zn8   S    
C94   C98   A    
C156  H43   S    
C15   C19   A    
C132  C137  A    
O36   Zn8   S    
C24   H65   S    
C26   C72   S    
C26   H23   S    
C1    C96   S    
C68   C147  S    
C65   C70   S    
C44   C54   A    
C25   C154  S    
C89   H73   S    
C16   C29   A    
C51   C53   A    
C104  H83   S    
C149  O29   A    
C5    C167  A    
C31   C41   A    
O17   Zn5   S    
C119  H2    S    
O11   Zn7   S    
O21   Zn7   S    
C41   C55   S    
C66   C75   S    
C123  H6    S    
C94   H77   S    
C148  O32   A    
C43   C48   A    
C35   C114  S    
C20   H35   S    
C59   C80   T    
C31   C36   A    
C34   C39   A    
C106  H56   S    
C129  C162  S    
C7    C9    A    
C44   H50   S    
C127  C160  S    
O44   Zn12  S    
C11   C168  A    
C47   C51   A    
C146  O27   A    
C15   H29   S    
C50   H55   S    
O34   Zn5   S    
C163  O47   A    
C26   C57   S    
C69   C73   S    
C99   C103  S    
C164  O6    A    
C133  C138  A    
C12   C17   A    
C100  H80   S    
C17   H31   S    
O12   Zn1   S    
O28   Zn9   S    
C168  H20   S    
C74   C114  S    
C20   C22   A    
C160  O48   A    
C62   C84   T    
C162  O46   A    
C150  O35   A    
C165  O7    A    
C57   H60   S    
O16   Zn5   S    
C91   H75   S    
C69   H70   S    
C21   C157  S    
C18   C21   A    
C65   C153  S    
C32   C42   A    
C4    C8    A    
O42   Zn3   S    
O48   Zn2   S    
C43   H49   S    
C42   C54   S    
C66   H68   S    
C84   C125  S    
C125  C154  S    
C88   C93   A    
C102  C107  A    
C26   C155  S    
C40   C152  S    
C113  C140  S    
C128  C161  S    
C15   C29   A    
C70   C158  S    
O22   Zn8   S    
C77   C147  S    
C120  C142  A    
C13   C76   S    
C58   C79   T    
C62   C148  S    
C46   C125  S    
C119  C123  A    
C128  C132  A    
C85   C136  S    
C1    O1    A    
C139  H17   S    
C2    C46   S    
C35   C158  S    
C4    H22   S    
C24   C73   S    
C126  H8    S    
C14   H28   S    
C157  O40   A    
O25   Zn10  S    
C131  H9    S    
C6    H25   S    
C65   H66   S    
C49   C52   A    
C17   C21   A    
C145  O25   A    
C152  O39   A    
C14   C18   A    
C81   O10   A    
C10   C167  A    
C106  C115  A    
C57   C136  S    
O47   Zn4   S    
C133  H11   S    
C44   C49   A    
C23   C153  S    
C45   C55   A    
C18   H32   S    
O31   Zn9   S    
C7    H26   S    
C16   H30   S    
C108  C117  A    
C144  O22   A    
C150  O30   A    
O15   Zn1   S    
C112  O17   A    
O10   Zn6   S    
C5    C8    A    
C105  H45   S    
O18   Zn6   S    
C87   C91   A    
O29   Zn10  S    
C132  H10   S    
C66   C71   S    
C121  H4    S    
O1    Zn1   S    
O37   Zn9   S    
C148  O28   A    
C50   C53   A    
O40   Zn12  S    
C25   H12   S    
C151  O36   A    
C102  H82   S    
C72   C80   S    
C105  C113  A    
C118  H84   S    
C67   C72   S    
C13   H64   S    
C6    C168  A    
C75   C125  S    
C68   H61   S    
C19   C22   A    
Br2   C75   S    
C111  O20   A    
Br4   C77   S    
C149  O33   A    
C87   C113  A    
C61   C83   T    
C135  H14   S    
O26   Zn11  S    
C27   C156  S    
C103  O34   A    
C120  C124  A    
O33   Zn11  S    
C45   H51   S    
Br1   C74   S    
C81   O12   A    
C32   C37   A    
C24   C68   S    
C70   C78   S    
C39   C151  S    
Br3   C76   S    
C60   C82   T    
C37   H47   S    
C4    C166  A    
O23   Zn5   S    
O4    Zn3   S    
C35   H58   S    
C121  C143  A    
C91   C96   A    
C30   H36   S    
C76   C136  S    
O46   Zn3   S    
C144  O24   A    
C66   C154  S    
C139  C143  A    
C49   H54   S    
C47   H52   S    
O30   Zn11  S    
C167  H19   S    
C124  H7    S    
O6    Zn2   S    
C90   H74   S    
C37   C40   A    
C12   C28   A    
C163  O4    A    
O5    Zn12  S    
C92   O23   A    
C86   C147  S    
O3    Zn4   S    
C108  H78   S    
C115  C141  S    
C138  H16   S    
C131  C135  A    
C64   C150  S    
C152  O38   A    
C63   C149  S    
C147  C156  S    
C71   C79   S    
C2    C75   S    
O45   Zn2   S    
C9    C145  S    
C158  H62   S    
C90   C117  A    
C104  C108  A    
C114  C153  S    
O9    Zn6   S    
C33   C42   A    
C2    H63   S    
C103  O13   A    
C51   H57   S    
C118  C140  A    
C157  O41   A    
C23   H1    S    
C93   H76   S    
C5    H24   S    
C3    C7    A    
C151  O37   A    
O35   Zn10  S    
C122  C127  A    
C112  O21   A    
C127  C131  A    
C100  C105  A    
O43   Zn4   S    
C45   C50   A    
C63   C85   T    
C159  O43   A    
C161  O2    A    
C122  H5    S    
C61   C146  S    
C123  C128  A    
O38   Zn10  S    
C56   C78   T    
C121  C126  A    
C16   C20   A    
C23   C35   S    
O24   Zn9   S    
C145  O26   A    
C99   C104  A    
C3    H21   S    
C23   C70   S    
C164  O5    A    
O8    Zn4   S    
C92   O11   A    
C65   C74   S    
C67   C76   S    
C53   C165  S    
C25   C46   S    
C97   C101  A    
C109  O14   A    
C67   H69   S    
C27   H34   S    
C159  O42   A    
C111  O16   A    
C165  O8    A    
C107  H67   S    
C107  C116  A    
C118  C122  A    
C135  C140  A    
C1    O9    A    
O39   Zn11  S    
C52   C164  S    
C46   H59   S    
C30   C41   A    
C12   H27   S    
O19   Zn6   S    
C27   C68   S    
C87   H71   S    
C73   C82   S    
C74   C158  S    
C47   C55   A    
C146  O31   A    
O41   Zn2   S    
C81   C97   S    
C36   H46   S    
C24   C77   S    
C30   C34   A    
C34   H44   S    
C6    C9    A    
C109  O18   A    
C130  C134  A    
C25   C71   S    
C67   C155  S    
C166  H18   S    
C162  O3    A    
C8    C144  S    
C31   H37   S    
O7    Zn3   S    
C124  C129  A    
C43   C54   A    
C88   H72   S    
C90   C95   A    
C98   C102  A    
C93   C97   A    
C160  O44   A    
C161  O45   A    
C48   H53   S    
C14   C28   A    
C153  H40   S    
C130  C163  S    
C89   C94   A    
O32   Zn8   S    
C19   H33   S    
C48   C52   A    
C32   H38   S    
O13   Zn7   S    
