data_mof_unit_34821.cif
_audit_creation_date              2012-12-10T19:10:02-0500
_audit_creation_method            fapswitch 2.2
_symmetry_space_group_name_H-M    P1
_symmetry_Int_Tables_number       1
_space_group_crystal_system       triclinic
_cell_length_a                    10.919312
_cell_length_b                    10.878293
_cell_length_c                    9.602377
_cell_angle_alpha                 89.252579
_cell_angle_beta                  91.368466
_cell_angle_gamma                 91.016208
_cell_volume                      1140.00816145

loop_
_atom_site_label
_atom_site_type_symbol
_atom_type_description
_atom_site_fract_x
_atom_site_fract_y
_atom_site_fract_z
_atom_type_partial_charge
C1    C     C_R   0.502462 0.262480 0.500929 0.803654
C2    C     C_R   0.207480 0.675197 0.000920 0.303154
C3    C     C_R   0.932906 0.531628 0.386145 -0.222371
C4    C     C_R   0.872244 0.488908 0.503681 -0.144532
C5    C     C_R   0.940892 0.438925 0.616797 -0.082025
C6    C     C_R   0.068846 0.428341 0.606877 0.373260
C7    C     C_R   0.128710 0.483572 0.493681 -0.133586
C8    C     C_R   0.059664 0.530301 0.379697 -0.067123
C9    C     C_R   0.918107 0.532934 0.843302 -0.213407
C10   C     C_R   0.883398 0.530779 0.982240 0.405781
C11   C     C_R   0.822035 0.426622 0.035202 -0.101687
C12   C     C_R   0.262600 0.494517 0.498136 0.856232
C13   C     C_R   0.795229 0.326316 0.949189 -0.159413
C14   C     C_R   0.829601 0.329296 0.809740 -0.112684
C15   C     C_R   0.891294 0.433294 0.757275 0.078627
C16   C     C_R   0.514869 0.060566 0.626615 0.107487
C17   C     C_R   0.511948 0.129208 0.501799 -0.149667
C18   C     C_R   0.516630 0.066558 0.374656 -0.148405
C19   C     C_R   0.510936 0.938554 0.372622 -0.158006
C20   C     C_R   0.500905 0.871004 0.497220 -0.107648
C21   C     C_R   0.502696 0.933765 0.622280 0.067741
C22   C     C_3   0.407401 0.930717 0.730707 -0.425026
C23   C     C_R   0.497621 0.737453 0.498928 0.809044
C24   C     C_3   0.432453 0.066562 0.748692 0.085702
C25   C     C_R   0.515758 0.607172 0.072096 0.236135
C26   C     C_R   0.464746 0.398634 0.074469 -0.045811
C27   C     C_R   0.462669 0.399654 0.925975 -0.025671
C28   C     C_R   0.517187 0.606802 0.925364 0.315194
C29   C     C_3   0.624718 0.692340 0.921459 -0.471629
C30   C     C_3   0.622185 0.694020 0.079732 -0.456981
C31   C     C_R   0.737857 0.496961 0.501836 0.809439
C32   C     C_R   0.186804 0.753234 0.114200 0.199020
C33   C     C_R   0.140928 0.703663 0.237791 -0.223996
C34   C     C_R   0.116413 0.577170 0.250918 0.047161
C35   C     C_R   0.145283 0.497668 0.140707 0.413287
C36   C     C_R   0.191110 0.548377 0.017784 -0.177632
Cu1   Cu    Cu3+1 0.499990 0.499980 0.640670 0.999203
Cu2   Cu    Cu3+1 0.500010 0.500020 0.359330 0.955841
H1    H     H_    0.793771 0.423495 0.142307 0.155955
H2    H     H_    0.748589 0.246114 0.991181 0.195489
H3    H     H_    0.810221 0.250873 0.743967 0.148744
H4    H     H_    0.518878 0.115965 0.276079 0.200838
H5    H     H_    0.508386 0.893542 0.273479 0.185938
H6    H     H_    0.314832 0.911273 0.684445 0.181263
H7    H     H_    0.430967 0.873443 0.823145 0.250505
H8    H     H_    0.350767 0.124924 0.731371 0.157028
H9    H     H_    0.436880 0.315744 0.129082 0.192422
H10   H     H_    0.429567 0.319981 0.870628 0.197772
H11   H     H_    0.704988 0.649247 0.876668 0.216934
H12   H     H_    0.603991 0.782686 0.873321 0.216576
H13   H     H_    0.700749 0.652285 0.135649 0.251717
H14   H     H_    0.597465 0.785207 0.118404 0.208720
H15   H     H_    0.122524 0.764070 0.323369 0.182657
H16   H     H_    0.209888 0.488657 0.932020 0.223298
H17   H     H_    0.880817 0.572256 0.301491 0.223604
H18   H     H_    0.966820 0.612524 0.801761 0.145560
N1    N     N_R   0.500790 0.500930 0.147930 -0.213554
N2    N     N_R   0.500790 0.500890 0.852020 -0.201934
O1    O     O_R   0.500000 0.319640 0.618810 -0.580987
O2    O     O_R   0.500010 0.319680 0.381230 -0.593382
O3    O     O_R   0.319640 0.499990 0.618790 -0.509159
O4    O     O_R   0.319650 0.500030 0.381210 -0.594068
O5    O     O_R   0.499990 0.680320 0.618770 -0.572703
O6    O     O_R   0.500000 0.680360 0.381190 -0.589336
O7    O     O_R   0.680350 0.499970 0.618790 -0.574297
O8    O     O_R   0.680360 0.500010 0.381210 -0.598042
O9    O     O_3   0.240867 0.718629 0.871858 -0.733823
H19   H     H_    0.216763 0.805604 0.863621 0.348859
Br1   Br    Br    0.526921 0.093097 0.920474 -0.609218
Br2   Br    Br    0.221110 0.926816 0.106233 -0.520005
O10   O     O_3   0.127429 0.371623 0.146261 -0.713439
H20   H     H_    0.095166 0.346524 0.237845 0.336798
O11   O     O_3   0.138181 0.368767 0.708941 -0.736335
H21   H     H_    0.084635 0.314628 0.765685 0.339445
O12   O     O_3   0.904911 0.631127 0.065673 -0.793045
H22   H     H_    0.938502 0.700054 0.008909 0.334543

loop_
_geom_bond_atom_site_label_1
_geom_bond_atom_site_label_2
_ccdc_geom_bond_type
C27   H10   S    
C31   O8    A    
C30   H13   S    
C16   C21   A    
O11   H21   S    
C35   C36   A    
C7    C8    A    
C29   H11   S    
C25   C28   A    
C26   C27   A    
Cu1   Cu2   S    
C28   C29   S    
C18   C19   A    
C1    O1    A    
C5    C6    A    
C2    C32   A    
C34   C35   A    
C13   H2    S    
C3    H17   S    
C22   H6    S    
Cu2   O8    S    
C16   C17   A    
Cu1   O7    S    
C9    C10   A    
Cu1   N2    S    
C23   O5    A    
C35   O10   S    
C16   C24   S    
C21   C22   S    
C25   N1    A    
Cu1   O5    S    
C19   H5    S    
C24   Br1   S    
C33   C34   A    
Cu2   O6    S    
C29   H12   S    
C33   H15   S    
C7    C12   S    
O9    H19   S    
C3    C8    A    
C1    O2    A    
C32   Br2   S    
O12   H22   S    
C29   C30   S    
Cu2   N1    S    
C12   O4    A    
C10   O12   S    
C20   C23   S    
C17   C18   A    
C9    H18   S    
C8    C34   S    
C11   H1    S    
Cu1   O1    S    
C26   H9    S    
C14   H3    S    
Cu2   O2    S    
C23   O6    A    
C2    O9    S    
C22   C24   S    
C3    C4    A    
C6    O11   S    
C2    C36   A    
C25   C30   S    
C31   O7    A    
C30   H14   S    
C4    C5    A    
C27   N2    A    
Cu1   O3    S    
C6    C7    A    
C28   N2    A    
C1    C17   S    
C24   H8    S    
C32   C33   A    
C19   C20   A    
C18   H4    S    
C9    C15   A    
O10   H20   S    
C12   O3    A    
C11   C13   A    
C26   N1    A    
C5    C15   S    
C4    C31   S    
C36   H16   S    
C10   C11   A    
C22   H7    S    
C20   C21   A    
C14   C15   A    
C13   C14   A    
Cu2   O4    S    
