data_mof_unit_36692.cif
_audit_creation_date              2012-10-26T19:27:19-0400
_audit_creation_method            fapswitch 2.2
_symmetry_space_group_name_H-M    P1
_symmetry_Int_Tables_number       1
_space_group_crystal_system       triclinic
_cell_length_a                    13.686315
_cell_length_b                    15.090478
_cell_length_c                    17.209634
_cell_angle_alpha                 89.847373
_cell_angle_beta                  86.395347
_cell_angle_gamma                 90.080107
_cell_volume                      3547.30914784

loop_
_atom_site_label
_atom_site_type_symbol
_atom_type_description
_atom_site_fract_x
_atom_site_fract_y
_atom_site_fract_z
_atom_type_partial_charge
C1    C     C_R   0.500040 0.671515 0.499837 0.551079
C2    C     C_R   0.587725 0.906905 0.506702 -0.024608
C3    C     C_R   0.500546 0.046476 0.500463 0.010939
C4    C     C_R   0.499356 0.953514 0.500034 0.009678
C5    C     C_R   0.589822 0.092897 0.507631 0.015606
C6    C     C_R   0.410089 0.907091 0.492850 0.009078
C7    C     C_R   0.324319 0.047368 0.486511 -0.097530
C8    C     C_R   0.675595 0.952615 0.513879 -0.116440
C9    C     C_R   0.321895 0.954853 0.485878 0.267160
C10   C     C_R   0.677993 0.045131 0.514727 0.237286
C11   C     C_R   0.210097 0.562755 0.458034 0.053517
C12   C     C_R   0.499958 0.328482 0.500175 0.551266
C13   C     C_R   0.789903 0.437268 0.541990 0.053275
C14   C     C_R   0.203271 0.437428 0.542076 0.038349
C15   C     C_R   0.796727 0.562588 0.457940 0.036826
C16   C     C_R   0.487710 0.502436 0.650312 0.549235
C17   C     C_R   0.512290 0.497568 0.349687 0.549708
C18   C     C_R   0.100130 0.435787 0.542940 -0.015833
C19   C     C_R   0.899867 0.564253 0.457099 -0.015433
C20   C     C_R   0.051820 0.500049 0.500038 0.054788
C21   C     C_R   0.948177 0.499993 0.500002 0.054740
C22   C     C_R   0.107099 0.564365 0.457174 -0.008579
C23   C     C_R   0.587894 0.185705 0.507314 -0.093234
C24   C     C_R   0.892899 0.435680 0.542871 -0.009917
C25   C     C_R   0.044402 0.371717 0.585505 -0.127980
C26   C     C_R   0.955594 0.628349 0.414562 -0.135140
C27   C     C_R   0.941709 0.371656 0.585462 -0.107248
C28   C     C_R   0.058287 0.628417 0.414613 -0.113959
C29   C     C_R   0.482633 0.512478 0.735024 0.000171
C30   C     C_R   0.517369 0.487547 0.264973 0.000340
C31   C     C_R   0.566111 0.540313 0.771604 -0.109819
C32   C     C_R   0.433891 0.459725 0.228386 -0.109213
C33   C     C_R   0.563491 0.552509 0.852182 0.039580
C34   C     C_R   0.412068 0.814286 0.492899 -0.092598
C35   C     C_R   0.436513 0.447554 0.147805 0.039377
C36   C     C_R   0.476017 0.531707 0.896775 0.047075
C37   C     C_R   0.523989 0.468368 0.103217 0.047269
C38   C     C_R   0.391777 0.507213 0.859874 -0.122792
C39   C     C_R   0.608228 0.492849 0.140125 -0.122400
C40   C     C_R   0.394816 0.497978 0.779380 -0.129429
C41   C     C_R   0.605186 0.502060 0.220622 -0.128918
C42   C     C_2   0.471385 0.528194 0.981771 -0.155455
C43   C     C_2   0.528627 0.471892 0.018222 -0.155474
C44   C     C_3   0.345844 0.411251 0.112459 -0.286199
C45   C     C_R   0.500043 0.231679 0.500489 -0.024662
C46   C     C_3   0.324677 0.316095 0.139082 -0.425867
C47   C     C_3   0.654161 0.588824 0.887518 -0.284876
C48   C     C_3   0.675332 0.683971 0.860871 -0.429026
C49   C     C_R   0.499933 0.768315 0.499646 -0.025249
C50   C     C_R   0.412554 0.185277 0.493916 -0.129600
C51   C     C_R   0.587401 0.814715 0.506311 -0.130309
C52   C     C_R   0.412196 0.093086 0.493678 -0.035458
Cu1   Cu    Cu3+1 0.402580 0.500010 0.500000 0.953612
Cu2   Cu    Cu3+1 0.597420 0.499990 0.500000 0.952322
H1    H     H_    0.633569 0.553909 0.737233 0.131485
H2    H     H_    0.099495 0.678526 0.381346 0.157888
H3    H     H_    0.670746 0.522478 0.247897 0.131274
H4    H     H_    0.329256 0.477551 0.752110 0.130783
H5    H     H_    0.585049 0.434244 0.985632 0.132815
H6    H     H_    0.414962 0.565840 0.014360 0.133074
H7    H     H_    0.324349 0.492245 0.893817 0.108931
H8    H     H_    0.675656 0.507824 0.106187 0.109052
H9    H     H_    0.654317 0.223297 0.512417 0.202268
H10   H     H_    0.345689 0.776697 0.487557 0.203645
H11   H     H_    0.344517 0.220899 0.488560 0.132743
H12   H     H_    0.366433 0.446121 0.262753 0.132577
H13   H     H_    0.655450 0.779092 0.511603 0.128902
H14   H     H_    0.257284 0.084369 0.481257 0.177329
H15   H     H_    0.742643 0.915583 0.518904 0.144372
H16   H     H_    0.388591 0.273077 0.123115 0.167823
H17   H     H_    0.308157 0.312954 0.203020 0.156749
H18   H     H_    0.260220 0.290387 0.110086 0.148297
H19   H     H_    0.282062 0.453879 0.129852 0.139661
H20   H     H_    0.352979 0.410577 0.048024 0.156784
H21   H     H_    0.691854 0.687089 0.796932 0.152992
H22   H     H_    0.611419 0.726995 0.876825 0.167261
H23   H     H_    0.253651 0.611474 0.425057 0.139967
H24   H     H_    0.739788 0.709687 0.889861 0.146378
H25   H     H_    0.647024 0.589519 0.951954 0.156909
H26   H     H_    0.717941 0.546188 0.870138 0.138826
H27   H     H_    0.058295 0.942188 0.460358 0.396317
H28   H     H_    0.874036 0.001691 0.588023 0.349016
H29   H     H_    0.746351 0.388550 0.574969 0.140069
H30   H     H_    0.241487 0.388750 0.575071 0.121867
H31   H     H_    0.758511 0.611264 0.424943 0.121530
H32   H     H_    0.080210 0.321660 0.618822 0.122426
H33   H     H_    0.919784 0.678419 0.381260 0.118012
H34   H     H_    0.900501 0.321573 0.618757 0.161520
N1    N     N_R   0.256180 0.500070 0.500030 -0.243346
N2    N     N_R   0.743820 0.499930 0.499970 -0.243365
O1    O     O_R   0.417720 0.629750 0.499980 -0.504147
O2    O     O_2   0.183188 0.844543 0.545913 -0.289059
O3    O     O_3   0.117935 0.977435 0.468332 -0.487683
O4    O     O_2   0.817493 0.154337 0.454304 -0.243395
O5    O     O_2   0.786178 0.156211 0.595726 -0.328742
O6    O     O_3   0.882302 0.023142 0.533549 -0.492175
O7    O     O_R   0.582280 0.370250 0.500020 -0.503985
O8    O     O_R   0.582260 0.629730 0.499990 -0.513126
O9    O     O_R   0.417740 0.370270 0.500010 -0.512225
O10   O     O_R   0.408190 0.500030 0.613590 -0.499361
O11   O     O_R   0.591810 0.499970 0.386410 -0.498838
O12   O     O_R   0.572730 0.500000 0.613600 -0.511064
O13   O     O_R   0.427270 0.500000 0.386400 -0.510369
O14   O     O_2   0.213707 0.845508 0.403993 -0.321202
S1    S     S_3+6 0.207359 0.902106 0.475886 -0.013104
S2    S     S_3+6 0.792521 0.097906 0.524876 -0.003384

loop_
_geom_bond_atom_site_label_1
_geom_bond_atom_site_label_2
_ccdc_geom_bond_type
C38   C40   A    
C23   C45   A    
C13   N2    A    
C14   C18   A    
Cu2   O11   S    
C36   C42   S    
C24   C27   A    
C14   H30   S    
C6    C9    A    
C28   H2    S    
C39   C41   A    
Cu1   Cu2   S    
Cu1   O9    S    
C15   C19   A    
C8    H15   S    
C35   C37   A    
C7    C52   A    
Cu2   N2    S    
C9    S1    S    
C33   C36   A    
C48   H24   S    
C19   C26   A    
C17   O11   A    
C12   O9    A    
C11   H23   S    
O3    S1    S    
C7    H14   S    
C26   H33   S    
C49   C51   A    
Cu1   O1    S    
C50   C52   A    
C31   C33   A    
C30   C41   A    
C47   H25   S    
C46   H18   S    
C43   H5    S    
C15   H31   S    
C38   H7    S    
C23   H9    S    
C1    O1    A    
C22   C28   A    
C17   C30   S    
C48   H21   S    
C27   H34   S    
C18   C25   A    
C47   H26   S    
O14   S1    D    
C44   C46   S    
Cu1   O10   S    
H28   O6    S    
C32   C35   A    
C40   H4    S    
C4    C6    A    
C42   H6    S    
C16   O10   A    
C16   C29   S    
C6    C34   A    
C13   C24   A    
C37   C43   S    
C2    C4    A    
C14   N1    A    
O5    S2    D    
H27   O3    S    
C11   N1    A    
C47   C48   S    
C5    C23   A    
C34   H10   S    
C46   H17   S    
Cu2   O7    S    
C51   H13   S    
C44   H20   S    
C35   C44   S    
C12   O7    A    
C16   O12   A    
C20   C22   A    
Cu1   N1    S    
C33   C47   S    
C10   S2    S    
C42   C43   D    
C3    C4    A    
C32   H12   S    
C7    C9    A    
C39   H8    S    
O6    S2    S    
O4    S2    D    
C34   C49   A    
C19   C21   A    
Cu2   O12   S    
C8    C10   A    
C2    C8    A    
C12   C45   S    
C3    C5    A    
C1    O8    A    
C3    C52   A    
C25   C27   A    
C13   H29   S    
C11   C22   A    
C26   C28   A    
C36   C38   A    
C17   O13   A    
C41   H3    S    
C5    C10   A    
C29   C31   A    
C15   N2    A    
C30   C32   A    
C45   C50   A    
Cu1   O13   S    
C29   C40   A    
C25   H32   S    
C18   C20   A    
C44   H19   S    
C50   H11   S    
C46   H16   S    
C2    C51   A    
C48   H22   S    
O2    S1    D    
C20   C21   A    
C37   C39   A    
C21   C24   A    
Cu2   O8    S    
C31   H1    S    
C1    C49   S    
