data_mof_unit_12744.cif
_audit_creation_date              2012-12-11T17:37:55-0500
_audit_creation_method            fapswitch 2.2
_symmetry_space_group_name_H-M    P1
_symmetry_Int_Tables_number       1
_space_group_crystal_system       triclinic
_cell_length_a                    13.054476
_cell_length_b                    13.077966
_cell_length_c                    15.466725
_cell_angle_alpha                 117.734976
_cell_angle_beta                  63.435302
_cell_angle_gamma                 97.950841
_cell_volume                      2082.31705587

loop_
_atom_site_label
_atom_site_type_symbol
_atom_type_description
_atom_site_fract_x
_atom_site_fract_y
_atom_site_fract_z
_atom_type_partial_charge
C1    C     C_R   0.994434 0.831334 0.063602 -0.045868
C2    C     C_R   0.672611 0.555259 0.320928 0.025399
C3    C     C_R   0.662757 0.458370 0.925843 0.161552
C4    C     C_R   0.095027 0.786212 0.292781 -0.072500
C5    C     C_R   0.338305 0.516311 0.950817 -0.117344
C6    C     C_R   0.967182 0.178227 0.780283 -0.124091
C7    C     C_R   0.206472 0.493991 0.690711 -0.128394
C8    C     C_R   0.048236 0.256532 0.089667 -0.180077
C9    C     C_R   0.945167 0.173837 0.998044 -0.120150
C10   C     C_R   0.301045 0.590903 0.790249 -0.130146
C11   C     C_R   0.258897 0.417349 0.047612 -0.091578
C12   C     C_R   0.679198 0.476570 0.219678 -0.138526
C13   C     C_R   0.049102 0.275892 0.683537 -0.130206
C14   C     C_R   0.361651 0.435731 0.975354 0.120415
C15   C     C_R   0.036752 0.164319 0.675100 0.066515
C16   C     C_R   0.301295 0.554499 0.690959 0.065106
C17   C     C_R   0.999397 0.154375 0.049227 0.202428
C18   C     C_R   0.439110 0.889891 0.098571 -0.230139
C19   C     C_R   0.360469 0.883105 0.193184 -0.126716
C20   C     C_R   0.271726 0.972015 0.274069 0.052300
C21   C     C_R   0.263533 0.067762 0.258454 -0.370054
C22   C     C_R   0.342426 0.074234 0.163717 0.817342
C23   C     C_R   0.756032 0.518101 0.893034 -0.179169
C24   C     C_R   0.430181 0.985384 0.083883 -0.258186
C25   C     C_R   0.161959 0.061547 0.475778 -0.254881
C26   C     C_R   0.088330 0.055085 0.572860 0.067208
C27   C     C_R   0.065341 0.943562 0.566814 0.044888
C28   C     C_R   0.098573 0.847551 0.466672 -0.232519
C29   C     C_R   0.139518 0.860994 0.372856 0.066975
C30   C     C_R   0.188968 0.964557 0.374641 0.087422
C31   C     C_R   0.045948 0.918520 0.722403 -0.340654
C32   C     C_R   0.978579 0.900982 0.813251 0.771003
C33   C     C_R   0.861506 0.885696 0.841558 -0.311809
C34   C     C_R   0.030465 0.692924 0.294171 0.660869
C35   C     C_R   0.812882 0.883566 0.776761 -0.213587
C36   C     C_R   0.880251 0.900436 0.685427 -0.154952
C37   C     C_R   0.996204 0.921034 0.659935 0.043528
C38   C     C_R   0.854640 0.358237 0.361432 -0.166969
C39   C     C_R   0.740758 0.396499 0.401476 -0.106168
C40   C     C_R   0.700204 0.511857 0.480002 0.121025
C41   C     C_R   0.769828 0.584808 0.526249 -0.252468
C42   C     C_R   0.884384 0.547245 0.483443 0.002153
C43   C     C_R   0.927626 0.435101 0.398888 -0.024805
C44   C     C_R   0.499098 0.571074 0.594469 -0.250321
C45   C     C_R   0.676493 0.421344 0.990156 -0.124682
C46   C     C_R   0.388872 0.576738 0.604316 0.075945
C47   C     C_R   0.370105 0.586478 0.524729 0.023189
C48   C     C_R   0.464758 0.590022 0.436186 -0.242627
C49   C     C_R   0.575448 0.574762 0.423093 0.072990
C50   C     C_R   0.591682 0.560409 0.501437 0.026377
C51   C     C_R   0.241579 0.464130 0.447219 -0.117194
C52   C     C_R   0.131992 0.425096 0.469600 -0.126487
C53   C     C_R   0.037385 0.494686 0.564453 -0.176808
C54   C     C_R   0.050777 0.606909 0.632688 -0.104790
C55   C     C_R   0.160714 0.645671 0.611763 -0.119757
C56   C     C_R   0.103567 0.796405 0.204754 -0.278312
C57   C     C_R   0.257162 0.571253 0.522593 0.080806
C58   C     C_2   0.474578 0.395075 0.948223 -0.175591
C59   C     C_2   0.567663 0.438639 0.897599 -0.213510
C60   C     C_2   0.814926 0.951671 0.120376 -0.188087
C61   C     C_2   0.818574 0.043161 0.207134 -0.185748
C62   C     C_R   0.783204 0.574555 0.310278 -0.091640
C63   C     C_R   0.891278 0.746197 0.970343 -0.090492
C64   C     C_R   0.900347 0.849626 0.051462 0.208403
H1    H     H_    0.022440 0.891749 0.123716 0.085979
H2    H     H_    0.932272 0.115056 0.808527 0.124117
H3    H     H_    0.179546 0.453458 0.627804 0.130597
H4    H     H_    0.085765 0.276891 0.144873 0.123753
H5    H     H_    0.885012 0.119295 0.970979 0.105219
H6    H     H_    0.355557 0.651277 0.822258 0.098165
H7    H     H_    0.247991 0.363411 0.086286 0.133575
H8    H     H_    0.091217 0.299053 0.618306 0.094515
H9    H     H_    0.491270 0.990392 0.010569 0.142282
H10   H     H_    0.507112 0.821150 0.036683 0.142114
H11   H     H_    0.368841 0.808692 0.203476 0.134189
H12   H     H_    0.608928 0.440285 0.199132 0.112406
H13   H     H_    0.195160 0.136396 0.318798 0.139618
H14   H     H_    0.196476 0.142151 0.477645 0.130331
H15   H     H_    0.076407 0.764968 0.466121 0.209932
H16   H     H_    0.135798 0.932750 0.702079 0.159744
H17   H     H_    0.807520 0.876349 0.913698 0.132415
H18   H     H_    0.722798 0.870298 0.798090 0.144213
H19   H     H_    0.841869 0.900148 0.636046 0.128721
H20   H     H_    0.017961 0.408147 0.360450 0.131451
H21   H     H_    0.778684 0.546216 0.831525 0.096945
H22   H     H_    0.887725 0.271107 0.297795 0.119679
H23   H     H_    0.686601 0.339229 0.366395 0.120336
H24   H     H_    0.738976 0.673818 0.587036 0.125120
H25   H     H_    0.940679 0.607743 0.512112 0.161549
H26   H     H_    0.514185 0.557212 0.651983 0.127394
H27   H     H_    0.452511 0.594819 0.373226 0.137997
H28   H     H_    0.315061 0.405133 0.378577 0.138496
H29   H     H_    0.121308 0.338484 0.416604 0.118323
H30   H     H_    0.953499 0.461781 0.585004 0.122938
H31   H     H_    0.976976 0.660062 0.705536 0.125610
H32   H     H_    0.172222 0.726721 0.671526 0.151633
H33   H     H_    0.477122 0.349003 0.990186 0.147910
H34   H     H_    0.566183 0.481349 0.852564 0.127274
H35   H     H_    0.743699 0.951485 0.102212 0.132508
H36   H     H_    0.885736 0.049567 0.232026 0.127353
H37   H     H_    0.629066 0.359352 0.017541 0.098712
H38   H     H_    0.157202 0.850975 0.170673 0.162149
H39   H     H_    0.809303 0.635085 0.371740 0.127303
H40   H     H_    0.822469 0.728141 0.946272 0.079210
H41   H     H_    0.397429 0.554168 0.900503 0.091096
N1    N     N_R   0.037320 0.720000 0.995830 -0.047938
N2    N     N_R   0.946240 0.290870 0.848020 -0.045284
N3    N     N_R   0.146160 0.501170 0.788610 -0.040318
N4    N     N_R   0.025750 0.332680 0.063570 -0.039416
N5    N     N_R   0.962680 0.280000 0.004170 -0.055581
N6    N     N_R   0.209230 0.553860 0.848010 -0.040081
N7    N     N_R   0.175100 0.482030 0.063570 -0.038062
N8    N     N_R   0.996810 0.351820 0.788610 -0.039071
N9    N     N_R   0.790770 0.446140 0.151990 -0.047228
N10   N     N_R   0.824900 0.517970 0.936430 -0.045153
N11   N     N_R   0.003190 0.648180 0.211390 -0.098292
N12   N     N_R   0.774330 0.457010 0.995830 -0.046736
N13   N     N_R   0.053760 0.709130 0.151980 -0.078886
N14   N     N_R   0.853840 0.498830 0.211390 -0.034738
N15   N     N_R   0.974250 0.667320 0.936430 -0.043907
N16   N     N_R   0.225670 0.542990 0.004170 -0.048253
Ni1   Ni    Ni4+2 0.130310 0.630310 0.000000 0.215978
Ni2   Ni    Ni4+2 0.869690 0.369690 0.000000 0.208168
Ni3   Ni    Ni4+2 0.985660 0.509480 0.863750 0.217435
Ni4   Ni    Ni4+2 0.014340 0.490520 0.136250 0.271038
F1    F     F_    0.333549 0.166654 0.149201 -0.740286
F2    F     F_    0.027179 0.901316 0.874403 -0.737033
F3    F     F_    0.036356 0.626023 0.337031 -0.765065

loop_
_geom_bond_atom_site_label_1
_geom_bond_atom_site_label_2
_ccdc_geom_bond_type
C41   C42   A    
C3    C23   A    
C19   C20   A    
N2    Ni2   S    
C60   H35   S    
C2    C12   A    
C31   H16   S    
C20   C30   S    
C53   C54   A    
C26   C27   A    
C38   H22   S    
C18   C24   A    
C32   F2    S    
C28   C29   A    
C9    H5    S    
C38   C39   A    
N5    Ni2   S    
C11   C14   A    
C11   H7    S    
C24   H9    S    
C22   F1    S    
C36   H19   S    
C34   N11   A    
C5    N16   A    
C9    N5    A    
C18   C19   A    
N13   Ni1   S    
C28   H15   S    
N2    N8    A    
C44   C50   A    
C6    C15   A    
C54   C55   A    
C35   C36   A    
N10   N12   A    
C48   H27   S    
C54   H31   S    
C1    H1    S    
C6    N2    A    
C51   C57   A    
C39   H23   S    
C4    C29   S    
C1    N1    A    
C11   N7    A    
C18   H10   S    
C21   C22   A    
C4    C56   A    
N6    Ni1   S    
C43   H20   S    
C58   H33   S    
N3    Ni3   S    
C35   H18   S    
C44   C46   A    
C12   N9    A    
C14   C58   S    
C4    C34   A    
N16   Ni1   S    
C51   C52   A    
C10   N6    A    
C16   C46   S    
C39   C40   A    
C63   H40   S    
C15   C26   S    
C5    H41   S    
C25   C26   A    
C23   N10   A    
C25   H14   S    
C3    C45   A    
C31   C37   A    
C60   C61   D    
C29   C30   A    
C2    C49   S    
C51   H28   S    
C47   C57   S    
C47   C48   A    
N1    Ni1   S    
C62   N14   A    
C52   H29   S    
C40   C50   S    
C9    C17   A    
C5    C14   A    
C45   H37   S    
N9    Ni2   S    
C10   H6    S    
N4    Ni4   S    
C40   C41   A    
C8    H4    S    
N11   Ni4   S    
C55   C57   A    
C12   H12   S    
C22   C24   A    
C61   H36   S    
C42   C43   A    
C1    C64   A    
N14   Ni4   S    
C44   H26   S    
C52   C53   A    
C62   H39   S    
C45   N12   A    
C25   C30   A    
C41   H24   S    
C46   C47   A    
C36   C37   A    
N10   Ni3   S    
N7    N16   A    
N1    N15   A    
C53   H30   S    
C56   N13   A    
C31   C32   A    
C7    C16   A    
N9    N14   A    
C55   H32   S    
C13   H8    S    
C8    C17   A    
N3    N6    A    
C60   C64   S    
C42   H25   S    
C32   C33   A    
C13   C15   A    
C58   C59   D    
C56   H38   S    
C38   C43   A    
C10   C16   A    
N4    N5    A    
C63   N15   A    
N8    Ni3   S    
C27   C37   S    
C48   C49   A    
C19   H11   S    
C33   C35   A    
N11   N13   A    
N12   Ni2   S    
C7    H3    S    
C63   C64   A    
N15   Ni3   S    
C6    H2    S    
C20   C21   A    
C34   F3    S    
C49   C50   A    
C23   H21   S    
C21   H13   S    
C27   C28   A    
C59   H34   S    
C7    N3    A    
N7    Ni4   S    
C8    N4    A    
C33   H17   S    
C13   N8    A    
C2    C62   A    
C3    C59   S    
