data_mof_unit_37402.cif
_audit_creation_date              2012-12-10T17:03:57-0500
_audit_creation_method            fapswitch 2.2
_symmetry_space_group_name_H-M    P1
_symmetry_Int_Tables_number       1
_space_group_crystal_system       triclinic
_cell_length_a                    9.899825
_cell_length_b                    11.065754
_cell_length_c                    15.894903
_cell_angle_alpha                 94.533278
_cell_angle_beta                  80.081685
_cell_angle_gamma                 111.825462
_cell_volume                      1592.08474076

loop_
_atom_site_label
_atom_site_type_symbol
_atom_type_description
_atom_site_fract_x
_atom_site_fract_y
_atom_site_fract_z
_atom_type_partial_charge
C1    C     C_R   0.556514 0.745526 0.506174 0.861303
C2    C     C_R   0.443537 0.254479 0.493725 0.857431
C3    C     C_R   0.324930 0.485416 0.075681 -0.221252
C4    C     C_R   0.672380 0.530931 0.924833 -0.219824
C5    C     C_R   0.227634 0.476327 0.020073 -0.233331
C6    C     C_R   0.772894 0.550988 0.980235 -0.231383
C7    C     C_2   0.588333 0.885228 0.509385 -0.360160
C8    C     C_2   0.411812 0.114791 0.490264 -0.363317
C9    C     C_2   0.484872 0.930407 0.498312 -0.149871
C10   C     C_2   0.515398 0.069606 0.501072 -0.144506
C11   C     C_2   0.928967 0.505181 0.484978 -0.064856
C12   C     C_2   0.088137 0.524861 0.495857 -0.064980
C13   C     C_R   0.411758 0.485040 0.662343 0.792179
C14   C     C_R   0.587297 0.512434 0.337589 0.791163
C15   C     C_R   0.359311 0.476816 0.754856 -0.050357
C16   C     C_R   0.637568 0.520501 0.244953 -0.051153
C17   C     C_R   0.173332 0.470336 0.876954 -0.199112
C18   C     C_R   0.830255 0.560799 0.122727 -0.200043
C19   C     C_R   0.217734 0.473606 0.788796 -0.190886
C20   C     C_R   0.786246 0.551530 0.210783 -0.193136
C21   C     C_R   0.454298 0.475034 0.810001 -0.254680
C22   C     C_R   0.533734 0.498566 0.190219 -0.251171
C23   C     C_R   0.417538 0.484789 0.898945 0.092375
C24   C     C_R   0.575822 0.512259 0.101416 0.089919
C25   C     C_R   0.272342 0.476880 0.932196 0.168536
C26   C     C_R   0.726558 0.541032 0.067946 0.168638
C27   C     C_R   0.520962 0.502461 0.955362 0.066224
C28   C     C_R   0.472843 0.498388 0.045192 0.067958
Cu1   Cu    Cu3+1 0.362980 0.479380 0.485080 0.932070
Cu2   Cu    Cu3+1 0.637020 0.520620 0.514920 0.932271
H1    H     H_    0.116373 0.469072 0.046207 0.137005
H2    H     H_    0.888168 0.575031 0.954078 0.136071
H3    H     H_    0.419841 0.468715 0.218539 0.151901
H4    H     H_    0.555032 0.462295 0.782265 0.140070
H5    H     H_    0.868316 0.568601 0.251936 0.150130
H6    H     H_    0.141319 0.473138 0.747405 0.152287
H7    H     H_    0.062464 0.465148 0.902025 0.128427
H8    H     H_    0.945780 0.584628 0.097402 0.127457
H9    H     H_    0.281360 0.487218 0.142460 0.139882
H10   H     H_    0.718451 0.543950 0.858248 0.142990
H11   H     H_    0.624089 0.135626 0.512207 0.178925
H12   H     H_    0.376229 0.864385 0.487095 0.175261
H13   H     H_    0.303352 0.048556 0.479010 0.141908
H14   H     H_    0.696752 0.951484 0.520690 0.148114
H15   H     H_    0.147927 0.604133 0.535273 0.140718
H16   H     H_    0.880764 0.445952 0.432558 0.141409
N1    N     N_2   0.842890 0.551600 0.537350 -0.153756
N2    N     N_2   0.157110 0.448400 0.462650 -0.152247
O1    O     O_R   0.426810 0.668300 0.492040 -0.582686
O2    O     O_R   0.573190 0.331700 0.507960 -0.575029
O3    O     O_R   0.658240 0.703130 0.517240 -0.587476
O4    O     O_R   0.341760 0.296870 0.482760 -0.596835
O5    O     O_R   0.319390 0.472820 0.610170 -0.578720
O6    O     O_R   0.680610 0.527180 0.389830 -0.586998
O7    O     O_R   0.550820 0.507640 0.635370 -0.596408
O8    O     O_R   0.449180 0.492360 0.364630 -0.591693
C29   C     C_3   0.084567 0.352413 0.398872 -0.160428
C30   C     C_3   0.149483 0.247997 0.367305 -0.300847
C31   C     C_3   0.073142 0.165945 0.295101 -0.947984
H17   H     H_    0.953045 0.117852 0.317143 0.263802
H18   H     H_    0.090693 0.227841 0.239473 0.261154
H19   H     H_    0.119826 0.089429 0.274286 0.259225
H20   H     H_    0.267706 0.290947 0.341736 0.253779
H21   H     H_    0.129881 0.180713 0.420153 0.226930
H22   H     H_    0.969232 0.294920 0.427193 0.141198
H23   H     H_    0.083783 0.405702 0.342461 0.149364
C32   C     C_3   0.916497 0.651735 0.598738 -0.158587
C33   C     C_3   0.816749 0.691684 0.670924 -0.296932
C34   C     C_3   0.907699 0.798907 0.727272 -0.948686
H24   H     H_    0.982442 0.765382 0.755687 0.258878
H25   H     H_    0.973994 0.887511 0.689331 0.263909
H26   H     H_    0.832891 0.824336 0.779994 0.262501
H27   H     H_    0.742180 0.729220 0.647033 0.257656
H28   H     H_    0.753644 0.606960 0.711929 0.215927
H29   H     H_    0.979895 0.613684 0.633838 0.139335
H30   H     H_    0.992699 0.740262 0.563128 0.153049

loop_
_geom_bond_atom_site_label_1
_geom_bond_atom_site_label_2
_ccdc_geom_bond_type
C14   O8    A    
Cu2   O3    S    
C11   N1    D    
C18   C26   A    
C8    H13   S    
C29   H23   S    
C12   N2    D    
N2    C29   S    
Cu1   O1    S    
C15   C19   A    
Cu2   O6    S    
C9    H12   S    
C3    C28   A    
C24   C26   A    
C19   H6    S    
C33   H28   S    
C34   H25   S    
C2    O2    A    
C20   H5    S    
C4    H10   S    
C33   C34   S    
C23   C27   A    
C9    C10   S    
C18   C20   A    
C33   H27   S    
Cu2   O2    S    
C3    H9    S    
C31   H17   S    
C10   H11   S    
N1    C32   S    
C13   O5    A    
C30   H21   S    
C31   H18   S    
Cu1   N2    S    
C32   C33   S    
Cu2   N1    S    
C4    C6    A    
C21   H4    S    
C30   C31   S    
C34   H26   S    
Cu1   Cu2   S    
C16   C20   A    
C17   H7    S    
C7    H14   S    
C1    O3    A    
C2    O4    A    
C5    C25   A    
C14   O6    A    
C21   C23   A    
C14   C16   S    
C32   H29   S    
C4    C27   A    
C30   H20   S    
C7    C9    D    
C22   H3    S    
C31   H19   S    
C16   C22   A    
C1    C7    S    
C2    C8    S    
C24   C28   A    
C29   H22   S    
C12   H15   S    
C3    C5    A    
C11   C12   S    
Cu1   O8    S    
Cu2   O7    S    
C17   C25   A    
C13   C15   S    
C18   H8    S    
C29   C30   S    
C6    C26   A    
Cu1   O5    S    
C17   C19   A    
C22   C24   A    
C23   C25   A    
C34   H24   S    
C15   C21   A    
C8    C10   D    
C6    H2    S    
C27   C28   A    
C11   H16   S    
C32   H30   S    
C13   O7    A    
C1    O1    A    
C5    H1    S    
Cu1   O4    S    
