data_mof_unit_35110.cif
_audit_creation_date              2012-12-10T16:52:41-0500
_audit_creation_method            fapswitch 2.2
_symmetry_space_group_name_H-M    P1
_symmetry_Int_Tables_number       1
_space_group_crystal_system       triclinic
_cell_length_a                    7.842605
_cell_length_b                    8.618187
_cell_length_c                    13.860463
_cell_angle_alpha                 92.874484
_cell_angle_beta                  94.246418
_cell_angle_gamma                 94.294676
_cell_volume                      930.158218824

loop_
_atom_site_label
_atom_site_type_symbol
_atom_type_description
_atom_site_fract_x
_atom_site_fract_y
_atom_site_fract_z
_atom_type_partial_charge
C1    C     C_R   0.047112 0.794408 0.504022 0.896070
C2    C     C_R   0.934277 0.482868 0.318164 0.856304
C3    C     C_R   0.097502 0.515029 0.786581 -0.077958
C4    C     C_R   0.894276 0.437817 0.215707 -0.092224
C5    C     C_R   0.034236 0.601015 0.947655 -0.177595
C6    C     C_R   0.907957 0.253084 0.078955 -0.174764
C7    C     C_R   0.989757 0.586918 0.848307 -0.207134
C8    C     C_R   0.972367 0.315279 0.170482 -0.187722
C9    C     C_R   0.242622 0.448819 0.824604 -0.229819
C10   C     C_R   0.751968 0.495342 0.169383 -0.236300
C11   C     C_R   0.283995 0.453309 0.924211 0.100404
C12   C     C_R   0.957552 0.206653 0.509058 0.890275
C13   C     C_R   0.667781 0.414129 0.087653 0.106603
C14   C     C_R   0.184002 0.539571 0.985601 0.140259
C15   C     C_R   0.753222 0.300513 0.037597 0.133896
C16   C     C_R   0.432450 0.387677 0.963154 -0.031060
C17   C     C_R   0.498078 0.440932 0.057037 -0.025413
C18   C     C_3   0.417910 0.324891 0.250323 -0.753629
C19   C     C_3   0.279992 0.071096 0.864797 -0.798627
C20   C     C_3   0.332231 0.071035 0.610792 -0.738156
C21   C     C_3   0.784204 0.974622 0.665623 -0.789661
C22   C     C_R   0.385454 0.504354 0.121293 0.183723
C23   C     C_R   0.514652 0.267090 0.914764 0.211326
C24   C     C_R   0.233477 0.560621 0.084205 -0.289427
C25   C     C_R   0.675633 0.227190 0.951921 -0.296928
C26   C     C_2   0.077576 0.958491 0.517622 -0.035617
C27   C     C_2   0.941635 0.046294 0.529345 -0.029631
C28   C     C_R   0.065002 0.511461 0.681847 0.850729
H1    H     H_    0.151854 0.616608 0.132788 0.147224
H2    H     H_    0.513831 0.634043 0.564544 0.194619
H3    H     H_    0.344424 0.555341 0.266875 0.249643
H4    H     H_    0.547754 0.308664 0.283568 0.247512
H5    H     H_    0.390558 0.239120 0.187349 0.226996
H6    H     H_    0.322743 0.296754 0.303240 0.232892
H7    H     H_    0.505061 0.110675 0.794913 0.223233
H8    H     H_    0.168036 0.085031 0.813067 0.240870
H9    H     H_    0.244156 0.101975 0.939116 0.245226
H10   H     H_    0.308803 0.946707 0.861347 0.235693
H11   H     H_    0.328335 0.962785 0.473333 0.227575
H12   H     H_    0.736484 0.133721 0.916052 0.143032
H13   H     H_    0.454877 0.140476 0.603454 0.235103
H14   H     H_    0.356675 0.966510 0.651897 0.220833
H15   H     H_    0.250015 0.146156 0.651504 0.261037
H16   H     H_    0.675347 0.031082 0.531518 0.231412
H17   H     H_    0.662773 0.912622 0.684026 0.224831
H18   H     H_    0.796852 0.093427 0.701830 0.224777
H19   H     H_    0.892138 0.908165 0.693061 0.244366
H20   H     H_    0.698575 0.595175 0.202823 0.166973
H21   H     H_    0.327973 0.401127 0.775224 0.184391
H22   H     H_    0.077488 0.263062 0.207100 0.158828
H23   H     H_    0.875870 0.637842 0.819483 0.154650
H24   H     H_    0.953697 0.662227 0.994480 0.137709
H25   H     H_    0.971734 0.160677 0.044128 0.129699
H26   H     H_    0.487025 0.360637 0.441964 0.193753
N1    N     N_2   0.440860 0.456490 0.474790 -0.172885
N2    N     N_2   0.559140 0.543510 0.525210 -0.168773
N3    N     N_2   0.409884 0.485108 0.222727 -0.299731
N4    N     N_2   0.426737 0.168532 0.838572 -0.321815
N5    N     N_2   0.250786 0.023681 0.515936 -0.293148
N6    N     N_2   0.782703 0.984451 0.561654 -0.278329
O1    O     O_R   0.891570 0.738930 0.506190 -0.578980
O2    O     O_R   0.108430 0.261070 0.493810 -0.585326
O3    O     O_R   0.174650 0.711050 0.490030 -0.634819
O4    O     O_R   0.825350 0.288950 0.509970 -0.637481
O5    O     O_R   0.909850 0.521900 0.644940 -0.611395
O6    O     O_R   0.090150 0.478100 0.355060 -0.628910
O7    O     O_R   0.192930 0.494020 0.628780 -0.624701
O8    O     O_R   0.807070 0.505980 0.371220 -0.602980
Zn1   Zn    Zn3+2 0.810990 0.518620 0.510790 0.939263
Zn2   Zn    Zn3+2 0.189010 0.481380 0.489210 0.919213

loop_
_geom_bond_atom_site_label_1
_geom_bond_atom_site_label_2
_ccdc_geom_bond_type
C23   N4    S    
C2    C4    S    
N1    N2    D    
C5    H24   S    
C2    O6    A    
C3    C9    A    
C19   H10   S    
C9    C11   A    
C11   C16   A    
C18   N3    S    
C20   H14   S    
C17   C22   A    
O3    Zn2   S    
C13   C17   A    
C4    C8    A    
O7    Zn2   S    
H11   N5    S    
H3    N3    S    
C22   N3    S    
C23   C25   A    
C28   O5    A    
C5    C14   A    
C7    H23   S    
C19   N4    S    
O1    Zn1   S    
O4    Zn1   S    
C20   N5    S    
C6    C15   A    
C18   H6    S    
C26   C27   D    
O6    Zn2   S    
H16   N6    S    
H7    N4    S    
O5    Zn1   S    
C1    O3    A    
C3    C28   S    
C18   H5    S    
C20   H13   S    
C16   C23   A    
C3    C7    A    
C27   N6    S    
C13   C15   A    
C25   H12   S    
C10   H20   S    
C1    C26   S    
C12   O4    A    
C11   C14   A    
C22   C24   A    
C20   H15   S    
C15   C25   A    
N1    Zn2   S    
C18   H4    S    
C12   O2    A    
C6    H25   S    
C4    C10   A    
C8    H22   S    
C28   O7    A    
C9    H21   S    
O2    Zn2   S    
C21   N6    S    
C5    C7    A    
C21   H18   S    
C26   N5    S    
C14   C24   A    
N2    Zn1   S    
C21   H19   S    
H26   N1    S    
C16   C17   A    
C6    C8    A    
C19   H9    S    
C12   C27   S    
C19   H8    S    
C24   H1    S    
C2    O8    A    
H2    N2    S    
O8    Zn1   S    
C21   H17   S    
C10   C13   A    
C1    O1    A    
