data_mof_unit_53172.cif
_audit_creation_date              2013-03-05T16:25:54-0500
_audit_creation_method            fapswitch 2.2
_symmetry_space_group_name_H-M    P1
_symmetry_Int_Tables_number       1
_space_group_crystal_system       triclinic
_cell_length_a                    8.787872
_cell_length_b                    19.422549
_cell_length_c                    18.153344
_cell_angle_alpha                 89.811951
_cell_angle_beta                  97.770352
_cell_angle_gamma                 90.22464
_cell_volume                      3069.97919056

loop_
_atom_site_label
_atom_site_type_symbol
_atom_site_description
_atom_site_fract_x
_atom_site_fract_y
_atom_site_fract_z
_atom_type_partial_charge
O1    O     O_R   0.499930 0.400180 0.561970 -0.606166
O2    O     O_R   0.500070 0.599820 0.438030 -0.606166
O3    O     O_R   0.500010 0.400190 0.438070 -0.575581
O4    O     O_R   0.499990 0.599810 0.561930 -0.575581
C1    C     C_R   0.499475 0.367466 0.500113 0.809866
C2    C     C_R   0.500524 0.632534 0.499887 0.809865
O5    O     O_R   0.274810 0.500000 0.547650 -0.560935
O6    O     O_R   0.725190 0.500000 0.452350 -0.560935
O7    O     O_R   0.274880 0.500000 0.423750 -0.561870
O8    O     O_R   0.725120 0.500000 0.576250 -0.561870
C3    C     C_R   0.204004 0.499862 0.481252 0.846001
C4    C     C_R   0.795996 0.500138 0.518748 0.846001
Cu1   Cu    Cu3+1 0.499960 0.500000 0.573360 1.008836
Cu2   Cu    Cu3+1 0.500040 0.500000 0.426640 1.008836
C5    C     C_2   0.039981 0.491132 0.471977 0.025737
C6    C     C_2   0.960019 0.508868 0.528023 0.025736
C7    C     C_R   0.498905 0.744454 0.432282 -0.177884
C8    C     C_R   0.501095 0.255546 0.567718 -0.177884
H1    H     H_    0.493590 0.717532 0.379839 0.157011
H2    H     H_    0.506410 0.282468 0.620161 0.157011
C9    C     C_R   0.501858 0.816140 0.431975 -0.125086
C10   C     C_R   0.498142 0.183860 0.568025 -0.125085
H3    H     H_    0.498888 0.843401 0.379640 0.148905
H4    H     H_    0.501111 0.156600 0.620360 0.148905
C11   C     C_R   0.509796 0.852425 0.498920 0.166794
C12   C     C_R   0.490201 0.147575 0.501081 0.166796
C13   C     C_R   0.512562 0.816522 0.566161 -0.064547
C14   C     C_R   0.487436 0.183477 0.433839 -0.064547
C15   C     C_R   0.509280 0.744813 0.566559 -0.140727
C16   C     C_R   0.490719 0.255187 0.433441 -0.140727
H5    H     H_    0.511978 0.718159 0.619214 0.163993
H6    H     H_    0.488020 0.281841 0.380786 0.163993
C17   C     C_R   0.502674 0.708174 0.499598 -0.033078
C18   C     C_R   0.497325 0.291826 0.500402 -0.033078
C19   C     C_R   0.628627 0.966535 0.539847 0.360167
C20   C     C_R   0.371369 0.033464 0.460154 0.360165
C21   C     C_R   0.615810 0.038247 0.541510 -0.258383
C22   C     C_R   0.384187 0.961752 0.458491 -0.258384
H7    H     H_    0.707530 0.068387 0.571908 0.200359
H8    H     H_    0.292467 0.931613 0.428093 0.200360
C23   C     C_R   0.489783 0.071978 0.501681 -0.099636
C24   C     C_R   0.510213 0.928022 0.498319 -0.099636
C25   C     C_R   0.397385 0.459981 0.714376 0.146320
C26   C     C_R   0.602615 0.540019 0.285624 0.146320
H9    H     H_    0.317052 0.428133 0.678990 0.132291
H10   H     H_    0.682948 0.571866 0.321010 0.132291
C27   C     C_R   0.395218 0.459321 0.791568 -0.250819
C28   C     C_R   0.604782 0.540678 0.208432 -0.250819
H11   H     H_    0.313726 0.426246 0.814358 0.138331
H12   H     H_    0.686274 0.573754 0.185642 0.138331
C29   C     C_R   0.499795 0.500115 0.838421 0.094379
C30   C     C_R   0.500205 0.499885 0.161579 0.094379
C31   C     C_R   0.604346 0.540920 0.804968 -0.263141
C32   C     C_R   0.395654 0.459080 0.195032 -0.263141
H13   H     H_    0.685734 0.574045 0.838191 0.143774
H14   H     H_    0.314265 0.425955 0.161809 0.143774
C33   C     C_R   0.602361 0.540170 0.727506 0.120782
C34   C     C_R   0.397639 0.459830 0.272494 0.120782
H15   H     H_    0.682635 0.572042 0.702402 0.152808
H16   H     H_    0.317365 0.427958 0.297598 0.152808
N1    N     N_R   0.499980 0.500020 0.683620 -0.186922
N2    N     N_R   0.500020 0.499980 0.316380 -0.186923
C35   C     C_R   0.638156 0.505168 0.970293 -0.168867
C36   C     C_R   0.361843 0.494832 0.029707 -0.168868
C37   C     C_R   0.638265 0.505097 0.047690 -0.159299
C38   C     C_R   0.361735 0.494903 0.952310 -0.159299
H17   H     H_    0.747352 0.507900 0.083284 0.141112
H18   H     H_    0.252647 0.492099 0.916716 0.141112
C39   C     C_R   0.500111 0.499927 0.078727 0.118998
C40   C     C_R   0.499889 0.500073 0.921273 0.118998
N3    N     N_R   0.971097 0.453821 0.407329 0.122556
O9    O     O_R   0.991506 0.474608 0.341152 -0.360855
O10   O     O_R   0.907394 0.394090 0.415114 -0.348111
N4    N     N_R   0.028903 0.546179 0.592671 0.122556
O11   O     O_R   0.008494 0.525392 0.658848 -0.360855
O12   O     O_R   0.092606 0.605910 0.584885 -0.348111
H19   H     H_    0.747170 0.508019 0.948894 0.134696
H20   H     H_    0.252830 0.491980 0.051106 0.134696
H21   H     H_    0.516655 0.844111 0.618165 0.149663
H22   H     H_    0.483343 0.155889 0.381835 0.149662
N5    N     N_R   0.764005 0.934239 0.578277 0.125858
O13   O     O_R   0.839178 0.963113 0.636889 -0.338353
O14   O     O_R   0.823243 0.880670 0.550160 -0.328977
N6    N     N_R   0.235990 0.065761 0.421725 0.125860
O15   O     O_R   0.176756 0.119332 0.449841 -0.328978
O16   O     O_R   0.160811 0.036885 0.363116 -0.338352

loop_
_geom_bond_atom_site_label_1
_geom_bond_atom_site_label_2
_geom_bond_distance
_ccdc_geom_bond_type
C34   N2    1.362730 A    
C38   H18   1.082494 S    
C35   C37   1.404885 A    
C13   C15   1.392982 A    
N5    O13   1.301522 A    
C19   N5    1.440157 S    
C27   H11   1.082346 S    
O5    C3    1.279554 A    
N4    O12   1.301732 A    
C6    N4    1.441835 S    
C19   C21   1.398570 A    
N6    O16   1.301522 A    
C22   C24   1.401632 A    
C13   H21   1.083349 S    
C35   H19   1.082492 S    
C33   H15   1.081756 S    
C34   H16   1.081757 S    
C5    C6    1.358361 D    
Cu2   N2    2.001567 S    
C15   C17   1.404856 A    
O4    Cu1   1.948961 S    
C19   C24   1.412865 A    
C30   C39   1.503929 S    
C3    C5    1.437852 S    
C4    C6    1.437852 S    
C26   H10   1.081750 S    
C37   H17   1.082494 S    
C29   C40   1.503928 S    
C16   H6    1.083041 S    
C8    H2    1.083032 S    
C28   H12   1.082346 S    
Cu1   Cu2   2.663554 S    
C20   C23   1.412867 A    
O2    C2    1.291557 A    
C7    C17   1.405173 A    
O2    Cu2   1.950423 S    
N5    O14   1.301410 A    
C30   C32   1.408221 A    
C31   H13   1.082362 S    
C9    H3    1.083389 S    
C32   H14   1.082361 S    
N4    O11   1.301113 A    
C16   C18   1.404856 A    
N6    O15   1.301409 A    
O4    C2    1.291984 A    
N3    O10   1.301732 A    
C31   C33   1.404058 A    
C27   C29   1.408228 A    
C26   N2    1.362756 A    
C7    C9    1.392481 A    
C29   C31   1.408222 A    
C36   C38   1.404885 A    
O7    Cu2   1.972270 S    
C8    C18   1.405174 A    
C35   C40   1.409017 A    
O5    Cu1   1.970518 S    
O6    C4    1.279553 A    
C1    C18   1.469176 S    
C36   C39   1.409016 A    
C25   H9    1.081750 S    
O3    Cu2   1.948963 S    
O8    C4    1.285822 A    
O7    C3    1.285823 A    
O1    C1    1.291556 A    
O1    Cu1   1.950425 S    
C25   N1    1.362756 A    
C32   C34   1.404059 A    
C9    C11   1.400252 A    
O6    Cu2   1.970517 S    
C8    C10   1.392484 A    
C36   H20   1.082492 S    
O3    C1    1.291983 A    
O8    Cu1   1.972269 S    
C11   C24   1.468289 S    
C33   N1    1.362732 A    
C11   C13   1.401199 A    
C5    N3    1.441835 S    
C12   C14   1.401197 A    
C2    C17   1.469176 S    
C20   C22   1.398571 A    
N3    O9    1.301114 A    
C21   H7    1.083975 S    
C22   H8    1.083974 S    
C38   C40   1.408960 A    
C20   N6    1.440160 S    
C37   C39   1.408959 A    
C14   C16   1.392984 A    
C7    H1    1.083030 S    
C10   H4    1.083389 S    
C21   C23   1.401632 A    
C14   H22   1.083347 S    
C28   C30   1.408228 A    
Cu1   N1    2.001564 S    
C15   H5    1.083041 S    
C10   C12   1.400251 A    
C25   C27   1.404010 A    
C26   C28   1.404010 A    
C12   C23   1.468289 S    
