data_mof_unit_32692.cif
_audit_creation_date              2012-12-10T19:57:42-0500
_audit_creation_method            fapswitch 2.2
_symmetry_space_group_name_H-M    P1
_symmetry_Int_Tables_number       1
_space_group_crystal_system       triclinic
_cell_length_a                    26.403437
_cell_length_b                    26.083122
_cell_length_c                    18.456289
_cell_angle_alpha                 89.292091
_cell_angle_beta                  135.310405
_cell_angle_gamma                 90.572831
_cell_volume                      8938.19863748

loop_
_atom_site_label
_atom_site_type_symbol
_atom_type_description
_atom_site_fract_x
_atom_site_fract_y
_atom_site_fract_z
_atom_type_partial_charge
C1    C     C_R   0.889892 0.750397 0.499749 0.873519
C2    C     C_R   0.891993 0.251624 0.503393 0.918157
C3    C     C_R   0.389894 0.250399 0.499750 0.874879
C4    C     C_R   0.391913 0.751471 0.503207 0.916066
C5    C     C_R   0.492899 0.796635 0.944733 0.289126
C6    C     C_R   0.424223 0.235970 0.945241 0.247541
C7    C     C_R   0.992574 0.296740 0.944659 0.288449
C8    C     C_R   0.924093 0.736536 0.945121 0.322084
C9    C     C_R   0.449826 0.751921 0.891418 -0.190449
C10   C     C_R   0.438689 0.255117 0.889515 -0.213391
C11   C     C_R   0.949814 0.251920 0.891396 -0.191376
C12   C     C_R   0.938840 0.755131 0.889499 -0.199907
C13   C     C_R   0.470951 0.706884 0.948858 -0.054132
C14   C     C_R   0.504262 0.279049 0.944234 -0.103959
C15   C     C_R   0.971134 0.206839 0.948799 -0.054289
C16   C     C_R   0.004619 0.778726 0.944302 -0.114268
C17   C     C_3   0.432987 0.661491 0.943389 0.539283
C18   C     C_3   0.556368 0.281163 0.935691 0.561374
C19   C     C_3   0.933077 0.161480 0.943216 0.539373
C20   C     C_3   0.056720 0.780843 0.935785 0.558370
C21   C     C_3   0.487911 0.664562 0.062409 0.516627
C22   C     C_3   0.613131 0.292499 0.052193 0.543884
C23   C     C_3   0.987822 0.164614 0.062181 0.516227
C24   C     C_3   0.113447 0.792232 0.052306 0.545166
C25   C     C_R   0.505516 0.784902 0.453122 -0.081809
C26   C     C_R   0.492484 0.222694 0.432370 -0.107305
C27   C     C_R   0.005207 0.284855 0.452428 -0.092924
C28   C     C_R   0.992398 0.722778 0.432211 -0.107461
C29   C     C_R   0.556845 0.746032 0.504060 -0.214041
C30   C     C_R   0.558209 0.247917 0.507158 -0.199199
C31   C     C_R   0.057207 0.246412 0.504940 -0.203398
C32   C     C_R   0.058197 0.747889 0.507142 -0.199370
C33   C     C_R   0.556631 0.708676 0.562108 0.295171
C34   C     C_R   0.570212 0.272484 0.587185 0.239787
C35   C     C_R   0.058184 0.210131 0.565560 0.320753
C36   C     C_R   0.070278 0.772306 0.587331 0.239451
C37   C     C_R   0.508604 0.715867 0.572297 0.326043
C38   C     C_R   0.511685 0.279656 0.575862 0.333686
C39   C     C_R   0.010249 0.217814 0.575749 0.318887
C40   C     C_R   0.011783 0.779505 0.576061 0.333644
C41   C     C_R   0.451476 0.752123 0.509630 -0.190330
C42   C     C_R   0.447259 0.250305 0.502718 -0.163885
C43   C     C_R   0.951876 0.252823 0.510477 -0.193028
C44   C     C_R   0.947258 0.750283 0.502726 -0.163182
C45   C     C_R   0.610263 0.748553 0.500115 0.979270
C46   C     C_R   0.611326 0.249041 0.502207 0.886569
C47   C     C_R   0.110367 0.248663 0.500381 0.991078
C48   C     C_R   0.111316 0.749042 0.502190 0.886485
C49   C     C_R   0.451931 0.786156 0.450621 -0.082926
C50   C     C_R   0.442110 0.220796 0.434839 -0.125683
C51   C     C_R   0.951561 0.286193 0.449922 -0.081301
C52   C     C_R   0.942011 0.720878 0.434657 -0.125661
C53   C     C_3   0.446568 0.843558 0.439175 0.449220
C54   C     C_3   0.395727 0.182791 0.348848 0.452442
C55   C     C_3   0.946212 0.343584 0.438078 0.449908
C56   C     C_3   0.895447 0.683089 0.348277 0.452704
C57   C     C_3   0.513321 0.842488 0.454238 0.470073
C58   C     C_3   0.450248 0.189778 0.338505 0.481969
C59   C     C_3   0.012756 0.342432 0.452716 0.471314
C60   C     C_3   0.949983 0.690131 0.337983 0.481164
C61   C     C_R   0.726054 0.526722 0.414625 -0.113652
C62   C     C_R   0.713441 0.474685 0.402318 -0.082363
C63   C     C_R   0.225057 0.026779 0.413829 -0.112863
C64   C     C_R   0.212827 0.974660 0.402061 -0.083699
C65   C     C_R   0.732339 0.554650 0.483867 -0.194158
C66   C     C_R   0.730631 0.446254 0.482818 -0.209352
C67   C     C_R   0.232268 0.054684 0.483938 -0.194551
C68   C     C_R   0.231190 0.946293 0.483506 -0.210950
C69   C     C_R   0.708846 0.528169 0.522565 0.331166
C70   C     C_R   0.726047 0.475213 0.544435 0.319545
C71   C     C_R   0.210454 0.028125 0.524859 0.335132
C72   C     C_R   0.227805 0.975220 0.546426 0.319062
C73   C     C_3   0.724251 0.474494 0.332804 0.577098
C74   C     C_3   0.754682 0.528633 0.369517 0.609230
C75   C     C_3   0.223658 0.974428 0.332535 0.576307
C76   C     C_3   0.253887 0.028606 0.368983 0.608534
C77   C     C_R   0.811887 0.973757 0.566768 -0.009408
C78   C     C_R   0.812093 0.026405 0.566088 -0.029469
C79   C     C_R   0.311883 0.473765 0.566826 -0.007072
C80   C     C_R   0.312081 0.526412 0.566149 -0.028750
C81   C     C_R   0.749768 0.945923 0.488052 -0.257654
C82   C     C_R   0.750241 0.054450 0.487050 -0.247093
C83   C     C_R   0.249777 0.445929 0.488071 -0.256876
C84   C     C_R   0.250253 0.554456 0.487061 -0.247506
C85   C     C_R   0.690914 0.973259 0.397053 0.375637
C86   C     C_R   0.691733 0.027595 0.396238 0.340185
C87   C     C_R   0.190958 0.473270 0.397047 0.375841
C88   C     C_R   0.191791 0.527605 0.396219 0.339429
C89   C     C_R   0.749890 0.889999 0.497932 0.889550
C90   C     C_R   0.749911 0.110098 0.497303 0.876724
C91   C     C_R   0.249891 0.390001 0.497933 0.886575
C92   C     C_R   0.249913 0.610100 0.497302 0.876911
C93   C     C_3   0.865401 0.029752 0.680298 0.246532
C94   C     C_3   0.864423 0.970911 0.681355 0.210211
C95   C     C_3   0.365336 0.529769 0.680345 0.247560
C96   C     C_3   0.364387 0.470928 0.681408 0.208144
C97   C     C_R   0.746836 0.610023 0.497238 0.912110
C98   C     C_R   0.746478 0.390345 0.496616 0.917241
C99   C     C_R   0.246804 0.110036 0.497221 0.910737
C100  C     C_R   0.246704 0.890357 0.496853 0.918648
C101  C     C_R   0.888340 0.750968 0.779200 0.923782
C102  C     C_R   0.890104 0.249936 0.779645 0.923069
C103  C     C_R   0.388275 0.250998 0.779203 0.891212
C104  C     C_R   0.390119 0.749947 0.779653 0.921799
C105  C     C_R   0.610699 0.750389 0.220683 0.923212
C106  C     C_R   0.609996 0.249688 0.219520 0.902308
C107  C     C_R   0.110690 0.250394 0.220667 0.923592
C108  C     C_R   0.109981 0.749706 0.219515 0.906520
C109  C     C_R   0.521570 0.707612 0.054262 -0.112934
C110  C     C_R   0.555668 0.282391 0.049371 -0.097292
C111  C     C_R   0.021706 0.207577 0.054234 -0.112375
C112  C     C_R   0.055925 0.782178 0.049382 -0.093255
C113  C     C_R   0.557299 0.752200 0.109106 -0.219745
C114  C     C_R   0.550341 0.252035 0.106782 -0.197726
C115  C     C_R   0.057254 0.252213 0.109057 -0.220905
C116  C     C_R   0.050330 0.752113 0.106776 -0.198888
C117  C     C_R   0.546165 0.796608 0.054608 0.294831
C118  C     C_R   0.482870 0.227386 0.051834 0.353376
C119  C     C_R   0.045824 0.296721 0.054527 0.294359
C120  C     C_R   0.982576 0.727885 0.051716 0.331594
H1    H     H_    0.842299 0.047427 0.706076 0.122902
H2    H     H_    0.840283 0.954467 0.707119 0.092075
H3    H     H_    0.342180 0.547427 0.706053 0.121737
H4    H     H_    0.340241 0.454461 0.707147 0.085762
O1    O     O_3   0.750030 0.750030 0.500000 -0.585312
O2    O     O_3   0.750030 0.249970 0.500000 -0.595062
O3    O     O_3   0.250030 0.250030 0.500000 -0.587631
O4    O     O_3   0.250030 0.749970 0.500000 -0.595048
O5    O     O_R   0.689310 0.865830 0.439290 -0.545595
O6    O     O_R   0.689310 0.134170 0.439290 -0.580160
O7    O     O_R   0.189310 0.365830 0.439290 -0.544254
O8    O     O_R   0.189310 0.634170 0.439290 -0.581701
O9    O     O_R   0.750020 0.634220 0.439270 -0.565745
O10   O     O_R   0.750020 0.365780 0.439270 -0.571975
O11   O     O_R   0.250020 0.134220 0.439270 -0.565962
O12   O     O_R   0.250020 0.865780 0.439270 -0.571694
O13   O     O_R   0.896170 0.780390 0.560700 -0.580119
O14   O     O_R   0.896170 0.219610 0.560700 -0.600375
O15   O     O_R   0.396170 0.280390 0.560700 -0.578715
O16   O     O_R   0.396170 0.719610 0.560700 -0.600007
O17   O     O_R   0.664610 0.719670 0.560740 -0.590794
O18   O     O_R   0.664610 0.280330 0.560740 -0.581347
O19   O     O_R   0.164610 0.219670 0.560740 -0.565008
O20   O     O_R   0.164610 0.780330 0.560740 -0.581825
O21   O     O_R   0.835440 0.719660 0.439260 -0.581849
O22   O     O_R   0.835440 0.280340 0.439260 -0.555350
O23   O     O_R   0.335440 0.219660 0.439260 -0.581140
O24   O     O_R   0.335440 0.780340 0.439260 -0.555155
O25   O     O_R   0.603880 0.780390 0.439300 -0.554051
O26   O     O_R   0.603880 0.219610 0.439300 -0.560732
O27   O     O_R   0.103880 0.280390 0.439300 -0.561220
O28   O     O_R   0.103880 0.719610 0.439300 -0.560966
O29   O     O_R   0.810750 0.865830 0.560720 -0.604041
O30   O     O_R   0.810750 0.134170 0.560720 -0.602376
O31   O     O_R   0.310750 0.365830 0.560720 -0.605919
O32   O     O_R   0.310750 0.634170 0.560720 -0.601476
O33   O     O_R   0.750030 0.634230 0.560720 -0.623327
O34   O     O_R   0.750030 0.365770 0.560720 -0.568151
O35   O     O_R   0.250030 0.134230 0.560720 -0.621278
O36   O     O_R   0.250030 0.865770 0.560720 -0.568946
O37   O     O_R   0.896190 0.780400 0.731600 -0.597409
O38   O     O_R   0.896190 0.219600 0.731600 -0.609061
O39   O     O_R   0.396190 0.280400 0.731600 -0.597352
O40   O     O_R   0.396190 0.719600 0.731600 -0.609713
O41   O     O_R   0.664570 0.719650 0.268390 -0.572091
O42   O     O_R   0.664570 0.280350 0.268390 -0.592098
O43   O     O_R   0.164570 0.219650 0.268390 -0.572758
O44   O     O_R   0.164570 0.780350 0.268390 -0.592540
O45   O     O_R   0.835480 0.719680 0.731610 -0.591902
O46   O     O_R   0.835480 0.280320 0.731610 -0.541104
O47   O     O_R   0.335480 0.219680 0.731610 -0.584063
O48   O     O_R   0.335480 0.780320 0.731610 -0.541026
O49   O     O_R   0.603860 0.780380 0.268400 -0.607649
O50   O     O_R   0.603860 0.219620 0.268400 -0.559544
O51   O     O_R   0.103860 0.280380 0.268400 -0.606199
O52   O     O_R   0.103860 0.719620 0.268400 -0.559263
Zn1   Zn    Zn3+2 0.663280 0.793400 0.413250 1.148503
Zn2   Zn    Zn3+2 0.663280 0.206600 0.413250 1.125687
Zn3   Zn    Zn3+2 0.163280 0.293400 0.413250 1.145053
Zn4   Zn    Zn3+2 0.163280 0.706600 0.413250 1.125169
Zn5   Zn    Zn3+2 0.836780 0.793410 0.586750 1.110728
Zn6   Zn    Zn3+2 0.836780 0.206590 0.586750 1.105124
Zn7   Zn    Zn3+2 0.336780 0.293410 0.586750 1.103379
Zn8   Zn    Zn3+2 0.336780 0.706590 0.586750 1.104973
Zn9   Zn    Zn3+2 0.750030 0.706650 0.586760 1.112046
Zn10  Zn    Zn3+2 0.750030 0.293350 0.586760 1.163446
Zn11  Zn    Zn3+2 0.250030 0.206650 0.586760 1.124157
Zn12  Zn    Zn3+2 0.250030 0.793350 0.586760 1.162395
Zn13  Zn    Zn3+2 0.750010 0.706640 0.413230 1.136895
Zn14  Zn    Zn3+2 0.750010 0.293360 0.413230 1.151304
Zn15  Zn    Zn3+2 0.250010 0.206640 0.413230 1.136337
Zn16  Zn    Zn3+2 0.250010 0.793360 0.413230 1.151385
Cl1   Cl    Cl    0.599278 0.851641 0.124811 -0.417227
Cl2   Cl    Cl    0.473047 0.176895 0.105432 -0.321741
Cl3   Cl    Cl    0.098392 0.351928 0.124674 -0.415812
Cl4   Cl    Cl    0.972059 0.677748 0.104959 -0.320681
S1    S     S_3+6 0.360020 0.856085 0.309472 0.202221
O53   O     O_2   0.301781 0.836595 0.299015 -0.144086
O54   O     O_2   0.349542 0.912587 0.285898 -0.130575
O55   O     O_3   0.350836 0.824442 0.221834 -0.449324
H5    H     H_    0.322548 0.847430 0.160888 0.426618
S2    S     S_3+6 0.303111 0.204354 0.243752 0.157382
O56   O     O_2   0.274265 0.191129 0.141015 -0.164786
O57   O     O_2   0.255889 0.178435 0.251051 -0.165412
O58   O     O_3   0.297217 0.268008 0.250209 -0.516909
H6    H     H_    0.244910 0.275405 0.197757 0.392448
S3    S     S_3+6 0.859454 0.355933 0.308509 0.202444
O59   O     O_2   0.801480 0.336550 0.298725 -0.144234
O60   O     O_2   0.848864 0.412395 0.284526 -0.130301
O61   O     O_3   0.849895 0.324038 0.220743 -0.449215
H7    H     H_    0.821295 0.346859 0.159536 0.426723
S4    S     S_3+6 0.802913 0.704864 0.243397 0.157031
O62   O     O_2   0.774025 0.691931 0.140526 -0.165839
O63   O     O_2   0.755588 0.678853 0.250420 -0.165478
O64   O     O_3   0.797254 0.768485 0.250496 -0.516849
H8    H     H_    0.744974 0.775979 0.198088 0.392875
S5    S     S_3+6 0.600897 0.862775 0.578998 0.101916
O65   O     O_2   0.597003 0.917535 0.598992 -0.171396
O66   O     O_2   0.623700 0.829062 0.664680 -0.278584
O67   O     O_3   0.666070 0.858642 0.582336 -0.555665
H9    H     H_    0.709973 0.872261 0.650544 0.377836
S6    S     S_3+6 0.498694 0.133388 0.356859 0.159804
O68   O     O_2   0.562505 0.122142 0.469474 -0.255923
O69   O     O_2   0.449612 0.087539 0.305730 -0.176518
O70   O     O_3   0.529652 0.142695 0.303897 -0.410984
H10   H     H_    0.526390 0.108723 0.277588 0.423264
S7    S     S_3+6 0.100449 0.363191 0.577001 0.101815
O71   O     O_2   0.096169 0.417880 0.596835 -0.177211
O72   O     O_2   0.124168 0.329489 0.663312 -0.256518
O73   O     O_3   0.165245 0.359614 0.579493 -0.557844
H11   H     H_    0.209702 0.371693 0.648836 0.359701
S8    S     S_3+6 0.998146 0.633710 0.355728 0.159948
O74   O     O_2   0.061799 0.622092 0.468224 -0.256735
O75   O     O_2   0.948784 0.588028 0.303855 -0.175546
O76   O     O_3   0.029344 0.643215 0.303159 -0.410869
H12   H     H_    0.027351 0.609104 0.278414 0.422994
S9    S     S_3+6 0.500866 0.867783 0.349390 0.164940
O77   O     O_2   0.451937 0.913447 0.297700 -0.182007
O78   O     O_2   0.571225 0.885546 0.390033 -0.179616
O79   O     O_3   0.468117 0.822047 0.261589 -0.483937
H13   H     H_    0.467044 0.838058 0.211568 0.393711
S10   S     S_3+6 0.420258 0.228307 0.231539 0.144734
O80   O     O_2   0.483190 0.245545 0.250387 -0.258607
O81   O     O_2   0.371557 0.196104 0.136189 -0.131335
O82   O     O_3   0.376689 0.281266 0.213598 -0.481834
H14   H     H_    0.354556 0.295449 0.146330 0.409082
S11   S     S_3+6 0.999720 0.367131 0.347023 0.165686
O83   O     O_2   0.950560 0.412666 0.294768 -0.182534
O84   O     O_2   0.069788 0.384855 0.386681 -0.176041
O85   O     O_3   0.966907 0.320943 0.259963 -0.482974
H15   H     H_    0.965130 0.336726 0.209104 0.393742
S12   S     S_3+6 0.920203 0.729020 0.231509 0.147528
O86   O     O_2   0.983251 0.746225 0.250612 -0.256100
O87   O     O_2   0.871257 0.697178 0.135662 -0.130214
O88   O     O_3   0.876998 0.782019 0.214374 -0.481188
H16   H     H_    0.855033 0.796494 0.147376 0.411455
S13   S     S_3+6 0.619820 0.542570 0.460072 0.134051
O89   O     O_2   0.611443 0.535345 0.531953 -0.158008
O90   O     O_2   0.599379 0.596355 0.417552 -0.234995
O91   O     O_3   0.563755 0.501641 0.361482 -0.501888
H17   H     H_    0.514886 0.511773 0.327576 0.414793
S14   S     S_3+6 0.737830 0.449528 0.644968 0.147257
O92   O     O_2   0.675265 0.414887 0.598534 -0.208318
O93   O     O_2   0.806989 0.419926 0.720377 -0.180122
O94   O     O_3   0.741141 0.497036 0.709072 -0.485677
H18   H     H_    0.740609 0.479514 0.756449 0.425262
S15   S     S_3+6 0.122771 0.042875 0.467334 0.132547
O95   O     O_2   0.117667 0.035904 0.542866 -0.162241
O96   O     O_2   0.101755 0.096649 0.424779 -0.240323
O97   O     O_3   0.064828 0.001960 0.369451 -0.500274
H19   H     H_    0.016721 0.012180 0.338424 0.414673
S16   S     S_3+6 0.242652 0.949776 0.649741 0.147561
O98   O     O_2   0.180309 0.915656 0.606241 -0.204493
O99   O     O_2   0.311513 0.919701 0.722391 -0.180635
O100  O     O_3   0.248991 0.997496 0.716359 -0.486699
H20   H     H_    0.250384 0.980144 0.765793 0.424273
Cl5   Cl    Cl    0.637987 0.471083 0.201748 -0.351973
Cl6   Cl    Cl    0.716020 0.575852 0.271422 -0.261627
Cl7   Cl    Cl    0.137417 0.970822 0.201487 -0.350675
Cl8   Cl    Cl    0.215390 0.075692 0.270758 -0.262096
Cl9   Cl    Cl    0.784932 0.430895 0.358219 -0.296199
Cl10  Cl    Cl    0.851233 0.529610 0.473682 -0.429468
Cl11  Cl    Cl    0.284541 0.930989 0.358004 -0.296384
Cl12  Cl    Cl    0.350427 0.029704 0.473370 -0.429001
Cl13  Cl    Cl    0.616337 0.941096 0.283014 -0.337500
Cl14  Cl    Cl    0.621285 0.060696 0.279801 -0.414152
Cl15  Cl    Cl    0.116410 0.441122 0.282984 -0.335031
Cl16  Cl    Cl    0.121450 0.560711 0.279728 -0.415208
Cl17  Cl    Cl    0.946866 0.059249 0.731212 -0.273079
Cl18  Cl    Cl    0.945866 0.940168 0.737247 -0.300975
Cl19  Cl    Cl    0.446805 0.559301 0.731334 -0.270948
Cl20  Cl    Cl    0.445859 0.440236 0.737331 -0.303488
S17   S     S_3+6 0.484487 0.851752 0.878679 0.154867
O101  O     O_2   0.458018 0.895615 0.896430 -0.121210
O102  O     O_2   0.557488 0.865691 0.923346 -0.189369
O103  O     O_3   0.428093 0.843644 0.751003 -0.539048
H21   H     H_    0.455948 0.823944 0.743358 0.356283
S18   S     S_3+6 0.335171 0.222807 0.885588 0.160640
O104  O     O_2   0.317614 0.167981 0.850940 -0.166674
O105  O     O_2   0.329844 0.230353 0.960469 -0.158868
O106  O     O_3   0.274646 0.261713 0.783667 -0.506630
H22   H     H_    0.290897 0.296893 0.811574 0.344510
S19   S     S_3+6 0.983371 0.352079 0.878336 0.154269
O107  O     O_2   0.954456 0.395135 0.893639 -0.122693
O108  O     O_2   0.056338 0.367546 0.924416 -0.187911
O109  O     O_3   0.928588 0.343371 0.751172 -0.540862
H23   H     H_    0.957472 0.323731 0.745328 0.357405
S20   S     S_3+6 0.834718 0.725075 0.885313 0.150983
O110  O     O_2   0.814785 0.670568 0.848733 -0.194934
O111  O     O_2   0.830102 0.733412 0.960805 -0.162277
O112  O     O_3   0.776701 0.765505 0.785190 -0.551526
H24   H     H_    0.728927 0.756480 0.756893 0.412863
Cl21  Cl    Cl    0.441815 0.606878 0.895908 -0.413464
Cl22  Cl    Cl    0.564156 0.219887 0.901366 -0.442349
Cl23  Cl    Cl    0.942095 0.106824 0.896037 -0.410795
Cl24  Cl    Cl    0.064550 0.719555 0.901567 -0.446933
Cl25  Cl    Cl    0.340727 0.672671 0.870407 -0.450579
Cl26  Cl    Cl    0.538886 0.330089 0.851695 -0.296343
Cl27  Cl    Cl    0.840725 0.172648 0.869828 -0.451044
Cl28  Cl    Cl    0.039136 0.829749 0.851684 -0.294454
Cl29  Cl    Cl    0.547555 0.611311 0.133511 -0.344443
Cl30  Cl    Cl    0.688729 0.249826 0.133515 -0.412381
Cl31  Cl    Cl    0.047306 0.111313 0.133496 -0.344492
Cl32  Cl    Cl    0.189012 0.749545 0.133810 -0.412902
S21   S     S_3+6 0.452690 0.684109 0.113033 0.143299
O113  O     O_2   0.401963 0.643579 0.089603 -0.121275
O114  O     O_2   0.513166 0.689998 0.227981 -0.294579
O115  O     O_3   0.407881 0.739949 0.059498 -0.443667
H25   H     H_    0.445468 0.766897 0.097589 0.357092
S22   S     S_3+6 0.638329 0.358567 0.084677 0.181362
O116  O     O_2   0.669896 0.366133 0.190385 -0.171129
O117  O     O_2   0.692427 0.372297 0.082102 -0.185823
O118  O     O_3   0.565670 0.396783 0.002808 -0.474577
H26   H     H_    0.584344 0.429877 0.002711 0.440459
S23   S     S_3+6 0.952324 0.184300 0.112351 0.142959
O119  O     O_2   0.901648 0.143747 0.088999 -0.120045
O120  O     O_2   0.012636 0.190393 0.227269 -0.296531
O121  O     O_3   0.907348 0.240048 0.058315 -0.443371
H27   H     H_    0.944892 0.267025 0.095552 0.355979
S24   S     S_3+6 0.138673 0.858309 0.084687 0.183301
O122  O     O_2   0.170094 0.865977 0.190286 -0.170995
O123  O     O_2   0.192902 0.871932 0.082319 -0.186348
O124  O     O_3   0.066076 0.896558 0.002632 -0.469364
H28   H     H_    0.084895 0.929713 0.003046 0.439895
S25   S     S_3+6 0.615296 0.653827 0.630392 0.169907
O125  O     O_2   0.670232 0.665922 0.743370 -0.186146
O126  O     O_2   0.570952 0.609102 0.611820 -0.147913
O127  O     O_3   0.658742 0.633788 0.600633 -0.442719
H29   H     H_    0.701530 0.615083 0.662531 0.411884
S26   S     S_3+6 0.658634 0.285701 0.709893 0.177675
O128  O     O_2   0.680592 0.338943 0.709703 -0.132848
O129  O     O_2   0.661413 0.281502 0.793995 -0.147502
O130  O     O_3   0.717491 0.243506 0.736237 -0.466209
H30   H     H_    0.694524 0.209618 0.721129 0.365994
S27   S     S_3+6 0.118869 0.156669 0.638203 0.194435
O131  O     O_2   0.174441 0.171829 0.749633 -0.136102
O132  O     O_2   0.076828 0.112038 0.625907 -0.162482
O133  O     O_3   0.161398 0.134938 0.607946 -0.441629
H31   H     H_    0.203904 0.116103 0.669937 0.412239
S28   S     S_3+6 0.158728 0.785274 0.710129 0.177684
O134  O     O_2   0.180771 0.838582 0.710467 -0.132373
O135  O     O_2   0.161508 0.780730 0.794203 -0.147171
O136  O     O_3   0.217471 0.743164 0.735967 -0.466499
H32   H     H_    0.194414 0.709271 0.720444 0.365493
Cl33  Cl    Cl    0.528539 0.684207 0.676541 -0.327601
Cl34  Cl    Cl    0.519719 0.329287 0.648316 -0.313426
Cl35  Cl    Cl    0.032088 0.189318 0.683620 -0.328557
Cl36  Cl    Cl    0.020004 0.829027 0.648836 -0.313874
S29   S     S_3+6 0.457810 0.876852 0.536394 0.131664
O137  O     O_2   0.394806 0.868080 0.521478 -0.257647
O138  O     O_2   0.523032 0.858986 0.643709 -0.235522
O139  O     O_3   0.464858 0.940089 0.526195 -0.393517
H33   H     H_    0.479129 0.955377 0.587431 0.422238
S30   S     S_3+6 0.399417 0.122379 0.401759 0.173273
O140  O     O_2   0.353886 0.083261 0.317641 -0.091581
O141  O     O_2   0.474711 0.102131 0.486199 -0.218923
O142  O     O_3   0.367437 0.130406 0.452966 -0.463090
H34   H     H_    0.410331 0.135540 0.527670 0.357516
S31   S     S_3+6 0.957808 0.377069 0.535470 0.131586
O143  O     O_2   0.895301 0.368044 0.521623 -0.256478
O144  O     O_2   0.023543 0.359561 0.642783 -0.236475
O145  O     O_3   0.964143 0.440313 0.524312 -0.393468
H35   H     H_    0.979562 0.455660 0.586311 0.422102
S32   S     S_3+6 0.898896 0.622539 0.400597 0.173183
O146  O     O_2   0.853360 0.583573 0.316174 -0.091592
O147  O     O_2   0.974127 0.602186 0.485038 -0.219328
O148  O     O_3   0.866750 0.630393 0.451599 -0.462838
H36   H     H_    0.909589 0.635450 0.526351 0.357491

loop_
_geom_bond_atom_site_label_1
_geom_bond_atom_site_label_2
_ccdc_geom_bond_type
C20   Cl28  S    
C55   C59   S    
C94   Cl18  S    
O9    Zn13  S    
S19   O108  D    
O118  H26   S    
C120  Cl4   S    
O12   Zn16  S    
C106  O42   A    
C87   Cl15  S    
C26   C50   A    
C91   O7    A    
C4    C41   S    
C22   S22   S    
C4    O24   A    
C29   C33   A    
C89   O5    A    
O139  H33   S    
C48   O20   A    
S1    O54   D    
C9    C13   A    
S28   O134  D    
C11   C15   A    
C12   C16   A    
C27   C51   A    
S16   O98   D    
S3    O61   S    
O3    Zn11  S    
O4    Zn4   S    
C40   C44   A    
S20   O112  S    
S29   O139  S    
C60   S8    S    
O82   H14   S    
C86   Cl14  S    
C41   C49   A    
C25   C29   A    
C107  O43   A    
S10   O82   S    
S2    O56   D    
C24   Cl32  S    
C27   C31   A    
C2    O14   A    
C7    C119  A    
C28   C32   A    
S24   O122  D    
S23   O120  D    
C62   C66   A    
C73   Cl5   S    
O106  H22   S    
C17   C21   S    
C29   C45   S    
O28   Zn4   S    
C19   C23   S    
C75   C76   S    
C15   C111  A    
C78   C82   A    
O27   Zn3   S    
S7    O71   D    
C68   C72   A    
S8    O75   D    
O109  H23   S    
C50   C54   S    
S25   O127  S    
S22   O117  D    
C94   H2    S    
O103  H21   S    
C20   Cl24  S    
S18   O104  D    
O148  H36   S    
C83   C91   S    
S11   O85   S    
C76   Cl12  S    
C84   C88   A    
C47   O19   A    
C93   H1    S    
S32   O147  D    
C104  O40   A    
O51   Zn3   S    
C61   C74   S    
C38   Cl34  S    
O43   Zn15  S    
O44   Zn16  S    
C53   S1    S    
C88   Cl16  S    
C79   C96   S    
C66   C70   A    
S16   O100  S    
C49   C53   S    
O127  H29   S    
O2    Zn2   S    
C119  Cl3   S    
C69   C70   A    
O14   Zn6   S    
C117  Cl1   S    
S23   O119  D    
C61   C65   A    
S4    O62   D    
C63   C76   S    
C5    C117  A    
S21   O113  D    
S13   O90   D    
S6    O68   D    
C57   S9    S    
S12   O86   D    
C7    S19   S    
C102  O46   A    
C3    O23   A    
C99   O35   A    
C1    O21   A    
C24   C112  S    
S24   O124  S    
C97   O9    A    
C85   C86   A    
C57   S5    S    
C64   C68   A    
C105  C113  S    
C92   O8    A    
C55   S31   S    
O33   Zn9   S    
C35   S27   S    
S15   O97   S    
O31   Zn7   S    
O13   Zn5   S    
C77   C94   S    
O1    Zn9   S    
S13   O89   D    
O35   Zn11  S    
S21   O114  D    
S30   O140  D    
C13   C109  A    
C21   Cl29  S    
O23   Zn15  S    
C62   C73   S    
C95   Cl19  S    
C110  C114  A    
C51   C55   S    
C8    C12   A    
C36   S28   S    
C44   C52   A    
C108  O44   A    
C105  O49   A    
S9    O77   D    
C103  O47   A    
S26   O128  D    
C25   C57   S    
O67   H9    S    
S20   O111  D    
S30   O141  D    
C28   C60   S    
C76   Cl8   S    
C30   C34   A    
C34   S26   S    
C40   Cl36  S    
C10   C14   A    
S31   O145  S    
S6    O70   S    
S5    O65   D    
S2    O58   S    
O3    Zn15  S    
C116  C120  A    
O4    Zn16  S    
S30   O142  S    
C68   C100  S    
C5    C9    A    
S17   O101  D    
S10   O81   D    
S4    O64   S    
O136  H32   S    
C80   C95   S    
S6    O69   D    
C42   C50   A    
S12   O88   S    
C113  C117  A    
S7    O72   D    
O8    Zn4   S    
C26   C30   A    
C115  C119  A    
C3    O15   A    
C112  C116  A    
C1    O13   A    
C69   S13   S    
C73   Cl9   S    
C70   S14   S    
C74   Cl6   S    
S27   O132  D    
C18   C22   S    
C18   Cl22  S    
C19   Cl27  S    
O91   H17   S    
C21   C109  S    
S15   O95   D    
S14   O92   D    
C55   S3    S    
C13   C17   S    
S13   O91   S    
O3    Zn3   S    
C66   C98   S    
C12   C101  S    
O79   H13   S    
C64   C75   S    
C96   Cl20  S    
O39   Zn7   S    
O37   Zn5   S    
S1    O53   D    
C63   C64   A    
O52   Zn4   S    
S16   O99   D    
S9    O79   S    
S3    O60   D    
C59   S11   S    
C84   C92   S    
S28   O136  S    
C81   C85   A    
C100  O12   A    
S29   O138  D    
O24   Zn16  S    
C83   C87   A    
C87   C88   A    
C3    C42   S    
O145  H35   S    
C73   C74   S    
O100  H20   S    
C80   C84   A    
S14   O94   S    
O130  H30   S    
O32   Zn8   S    
S31   O143  D    
C46   O18   A    
C77   C78   A    
S5    O67   S    
C15   C19   S    
O16   Zn8   S    
S2    O57   D    
C10   C103  S    
S24   O123  D    
S17   O103  S    
C54   S30   S    
C54   C58   S    
C95   H3    S    
C14   C110  A    
O6    Zn2   S    
C22   Cl30  S    
C98   O34   A    
C22   C110  S    
S22   O118  S    
O41   Zn13  S    
O76   H12   S    
C101  O45   A    
S25   O126  D    
C59   S7    S    
O50   Zn2   S    
C67   C99   S    
C104  O48   A    
C81   C89   S    
C31   C47   S    
C45   O17   A    
C32   C48   S    
S18   O105  D    
O34   Zn10  S    
C30   C46   S    
S19   O109  S    
S11   O84   D    
O1    Zn5   S    
S3    O59   D    
O2    Zn10  S    
S22   O116  D    
C53   C57   S    
O115  H25   S    
S26   O130  S    
C23   S23   S    
O85   H15   S    
C82   C86   A    
O5    Zn1   S    
C33   C37   A    
C56   C60   S    
S18   O106  S    
S1    O55   S    
C35   C39   A    
C5    S17   S    
C77   C81   A    
C102  O38   A    
O46   Zn10  S    
S10   O80   D    
C106  O50   A    
C99   O11   A    
S26   O129  D    
C26   C58   S    
O11   Zn15  S    
O29   Zn5   S    
C48   O28   A    
C31   C35   A    
C2    O22   A    
C32   C36   A    
C23   C111  S    
C16   C112  A    
S12   O87   D    
C17   Cl25  S    
C71   S15   S    
O21   Zn13  S    
O4    Zn12  S    
C6    C10   A    
S23   O121  S    
O38   Zn6   S    
C8    S20   S    
C37   Cl33  S    
C82   C90   S    
C93   Cl17  S    
C108  C116  S    
C39   Cl35  S    
C79   C83   A    
S15   O96   D    
C43   C51   A    
C107  O51   A    
C9    C104  S    
C65   C69   A    
C108  O52   A    
S8    O74   D    
C105  O41   A    
C11   C102  S    
C67   C71   A    
O73   H11   S    
C118  Cl2   S    
C25   C49   A    
C47   O27   A    
C65   C97   S    
C90   O6    A    
C71   C72   A    
C74   Cl10  S    
C17   Cl21  S    
O97   H19   S    
C18   Cl26  S    
C19   Cl23  S    
O124  H28   S    
C93   C94   S    
C33   S25   S    
O3    Zn7   S    
C14   C18   S    
C95   C96   S    
O4    Zn8   S    
O64   H8    S    
S32   O146  D    
S28   O135  D    
C58   S6    S    
O58   H6    S    
C7    C11   A    
C85   Cl13  S    
C106  C114  S    
C56   S4    S    
S31   O144  D    
C78   C93   S    
C75   Cl11  S    
O2    Zn14  S    
S27   O131  D    
C53   S29   S    
O55   H5    S    
O94   H18   S    
C16   C20   S    
O26   Zn2   S    
S19   O107  D    
C37   C41   A    
C61   C62   A    
C56   S32   S    
C39   C43   A    
O18   Zn10  S    
C63   C67   A    
C96   H4    S    
C20   C24   S    
C36   C40   A    
C6    S18   S    
O7    Zn3   S    
S14   O93   D    
O112  H24   S    
C54   S2    S    
S8    O76   S    
C75   Cl7   S    
O42   Zn14  S    
C97   O33   A    
S21   O115  S    
C91   O31   A    
O40   Zn8   S    
C4    O16   A    
C100  O36   A    
C1    C44   S    
C89   O29   A    
O49   Zn1   S    
C2    C43   S    
S27   O133  S    
O25   Zn1   S    
O70   H10   S    
C92   O32   A    
C107  C115  S    
O142  H34   S    
C114  C118  A    
C46   O26   A    
O61   H7    S    
S9    O78   D    
O1    Zn1   S    
O2    Zn6   S    
O17   Zn9   S    
O36   Zn12  S    
O88   H16   S    
S32   O148  S    
O15   Zn7   S    
S20   O110  D    
C8    C120  A    
C72   S16   S    
S29   O137  D    
O20   Zn12  S    
C23   Cl31  S    
C34   C38   A    
O19   Zn11  S    
S4    O63   D    
O1    Zn13  S    
S11   O83   D    
C109  C113  A    
S5    O66   D    
C98   O10   A    
C103  O39   A    
O47   Zn11  S    
O10   Zn14  S    
C101  O37   A    
O45   Zn9   S    
S17   O102  D    
C27   C59   S    
C28   C52   A    
C58   S10   S    
C90   O30   A    
O48   Zn12  S    
O30   Zn6   S    
C45   O25   A    
C24   S24   S    
O133  H31   S    
C79   C80   A    
C38   C42   A    
S7    O73   S    
O121  H27   S    
C60   S12   S    
O22   Zn14  S    
C111  C115  A    
S25   O125  D    
C6    C118  A    
C52   C56   S    
C21   S21   S    
