data_mof_unit_64114.cif
_audit_creation_date              2012-12-10T16:53:59-0500
_audit_creation_method            fapswitch 2.2
_symmetry_space_group_name_H-M    P1
_symmetry_Int_Tables_number       1
_space_group_crystal_system       triclinic
_cell_length_a                    18.604144
_cell_length_b                    18.605194
_cell_length_c                    42.856139
_cell_angle_alpha                 90.00004
_cell_angle_beta                  90.0
_cell_angle_gamma                 90.00174
_cell_volume                      14833.9543097

loop_
_atom_site_label
_atom_site_type_symbol
_atom_type_description
_atom_site_fract_x
_atom_site_fract_y
_atom_site_fract_z
_atom_type_partial_charge
C1    C     C_R   0.500000 0.000000 0.583993 0.806277
C2    C     C_R   0.999999 0.499999 0.281326 0.231153
C3    C     C_R   0.020114 0.563213 0.332173 0.148752
C4    C     C_R   0.936890 0.479552 0.832197 0.146531
C5    C     C_R   0.479595 0.936879 0.832176 0.148776
C6    C     C_R   0.063110 0.520447 0.832197 0.146532
C7    C     C_R   0.520404 0.063120 0.832175 0.148776
C8    C     C_R   0.500000 0.000000 0.315767 -0.011852
C9    C     C_R   0.999999 0.499999 0.315740 -0.013773
C10   C     C_R   1.000000 0.499999 0.815768 -0.011859
C11   C     C_R   0.499999 1.000000 0.815741 -0.013814
C12   C     C_R   0.500000 0.000000 0.381369 -0.106742
C13   C     C_R   0.999999 0.499999 0.781361 0.232492
C14   C     C_R   1.000000 0.500000 0.381354 -0.101838
C15   C     C_R   1.000000 0.500000 0.881370 -0.106708
C16   C     C_R   0.500000 1.000000 0.881356 -0.101728
C17   C     C_3   0.370057 0.955905 0.314197 -0.403747
C18   C     C_3   0.308934 0.923910 0.333653 -0.760267
C19   C     C_3   0.956423 0.369872 0.314180 -0.396338
C20   C     C_3   0.924393 0.308750 0.333622 -0.778986
C21   C     C_3   0.629943 0.044095 0.314197 -0.403747
C22   C     C_3   0.691066 0.076090 0.333654 -0.760268
C23   C     C_3   0.043575 0.630127 0.314180 -0.396340
C24   C     C_R   0.499999 1.000000 0.781326 0.231209
C25   C     C_3   0.075602 0.691250 0.333621 -0.778987
C26   C     C_3   0.870114 0.455731 0.814198 -0.403726
C27   C     C_3   0.809040 0.423643 0.833655 -0.760300
C28   C     C_3   0.455812 0.870077 0.814185 -0.396265
C29   C     C_3   0.423428 0.809142 0.833626 -0.779072
C30   C     C_3   0.129885 0.544268 0.814198 -0.403724
C31   C     C_3   0.190959 0.576356 0.833654 -0.760301
C32   C     C_3   0.544186 0.129923 0.814184 -0.396266
C33   C     C_3   0.576570 0.190858 0.833626 -0.779075
C34   C     C_3   0.974573 0.365045 0.616965 -0.356091
C35   C     C_R   0.987854 0.435425 0.667485 0.346009
C36   C     C_3   0.045416 0.325891 0.611232 -0.719581
C37   C     C_3   0.364660 0.976879 0.616873 -0.360610
C38   C     C_3   0.326965 0.048393 0.610856 -0.698888
C39   C     C_3   0.025428 0.634954 0.616966 -0.356090
C40   C     C_3   0.954588 0.674111 0.611233 -0.719576
C41   C     C_3   0.635339 0.023121 0.616874 -0.360608
C42   C     C_3   0.673037 0.951607 0.610858 -0.698885
C43   C     C_3   0.474421 0.865073 0.116966 -0.356079
C44   C     C_3   0.545224 0.825855 0.111224 -0.719689
C45   C     C_3   0.864778 0.476180 0.116876 -0.360335
C46   C     C_R   0.435197 0.989027 0.667434 0.347571
C47   C     C_3   0.826782 0.547520 0.110829 -0.699618
C48   C     C_3   0.525579 0.134927 0.116966 -0.356080
C49   C     C_3   0.454776 0.174146 0.111225 -0.719684
C50   C     C_3   0.135221 0.523823 0.116876 -0.360349
C51   C     C_3   0.173209 0.452482 0.110819 -0.699628
C52   C     C_R   0.012144 0.564574 0.667485 0.346009
C53   C     C_R   0.564801 0.010973 0.667434 0.347570
C54   C     C_R   0.487777 0.935440 0.167486 0.346004
C55   C     C_R   0.935260 0.488663 0.167436 0.347551
C56   C     C_R   0.512223 0.064560 0.167486 0.346005
C57   C     C_R   1.000000 0.500000 0.584005 0.806431
C58   C     C_R   0.064740 0.511334 0.167436 0.347549
C59   C     C_R   0.987071 0.435077 0.634571 0.035828
C60   C     C_R   0.434846 0.988249 0.634522 0.034095
C61   C     C_R   0.012929 0.564922 0.634572 0.035826
C62   C     C_R   0.565153 0.011751 0.634522 0.034093
C63   C     C_R   0.486994 0.935092 0.134572 0.035841
C64   C     C_R   0.934911 0.487890 0.134524 0.034093
C65   C     C_R   0.513006 0.064908 0.134572 0.035840
C66   C     C_R   0.065089 0.512110 0.134524 0.034098
C67   C     C_R   0.000000 0.500000 0.618243 -0.120706
C68   C     C_R   0.000000 0.500000 0.083994 0.806296
C69   C     C_R   0.500000 0.000000 0.618212 -0.117957
C70   C     C_R   0.500000 1.000000 0.118244 -0.120709
C71   C     C_R   1.000000 0.500000 0.118213 -0.117969
C72   C     C_R   0.999999 0.499999 0.683845 -0.175205
C73   C     C_R   0.499999 1.000000 0.683799 -0.174978
C74   C     C_R   0.500000 0.000000 0.183845 -0.175213
C75   C     C_R   1.000000 0.499998 0.183801 -0.174960
C76   C     C_R   0.500000 0.000000 0.415770 0.826411
C77   C     C_R   1.000000 0.500000 0.415765 0.809564
C78   C     C_R   0.000000 0.500000 0.915770 0.826377
C79   C     C_R   0.500000 1.000000 0.084005 0.806446
C80   C     C_R   0.500000 1.000000 0.915766 0.809466
C81   C     C_R   0.360990 0.137903 0.500295 0.855842
C82   C     C_R   0.861176 0.361899 0.499729 0.850260
C83   C     C_R   0.639010 0.862097 0.500295 0.855843
C84   C     C_R   0.138824 0.638101 0.499729 0.850260
C85   C     C_R   0.638958 0.137953 0.500258 0.855031
C86   C     C_R   0.138779 0.361863 0.499757 0.850002
C87   C     C_R   0.361042 0.862047 0.500258 0.855030
C88   C     C_R   0.861221 0.638137 0.499757 0.850001
C89   C     C_R   0.860991 0.637903 0.000294 0.855837
C90   C     C_R   0.999999 0.499999 0.718210 0.446053
C91   C     C_R   0.361175 0.861899 0.999729 0.850234
C92   C     C_R   0.139009 0.362097 0.000294 0.855835
C93   C     C_R   0.638824 0.138101 0.999729 0.850233
C94   C     C_R   0.138958 0.637952 0.000258 0.855011
C95   C     C_R   0.638779 0.861863 0.999757 0.850008
C96   C     C_R   0.861042 0.362048 0.000258 0.855011
C97   C     C_R   0.361221 0.138137 0.999757 0.850007
C98   C     C_2   0.191822 0.754362 0.486662 0.281960
C99   C     C_2   0.254080 0.200321 0.481342 0.299317
C100  C     C_2   0.808178 0.245638 0.486662 0.281960
C101  C     C_R   0.499999 1.000000 0.718169 0.445745
C102  C     C_2   0.745920 0.799679 0.481342 0.299316
C103  C     C_2   0.808597 0.754714 0.487047 0.282282
C104  C     C_2   0.745343 0.200812 0.481058 0.299755
C105  C     C_2   0.191403 0.245286 0.487047 0.282281
C106  C     C_2   0.254657 0.799188 0.481058 0.299755
C107  C     C_2   0.691822 0.254361 0.986662 0.281959
C108  C     C_2   0.754082 0.700322 0.981340 0.299277
C109  C     C_2   0.308178 0.745638 0.986662 0.281959
C110  C     C_2   0.245918 0.299677 0.981340 0.299278
C111  C     C_2   0.308596 0.254713 0.987046 0.282293
C112  C     C_R   0.500000 0.000000 0.218210 0.446052
C113  C     C_2   0.245342 0.700812 0.981058 0.299775
C114  C     C_2   0.691404 0.745287 0.987046 0.282293
C115  C     C_2   0.754658 0.299188 0.981058 0.299774
C116  C     C_2   0.200083 0.685153 0.495236 0.157023
C117  C     C_2   0.299388 0.184457 0.504895 0.167042
C118  C     C_2   0.799917 0.314847 0.495236 0.157023
C119  C     C_2   0.700612 0.815543 0.504895 0.167042
C120  C     C_2   0.800094 0.685370 0.495356 0.159086
C121  C     C_2   0.700458 0.184681 0.504733 0.170338
C122  C     C_2   0.199906 0.314629 0.495356 0.159086
C123  C     C_R   1.000000 0.499998 0.218171 0.445697
C124  C     C_2   0.299542 0.815319 0.504733 0.170338
C125  C     C_2   0.700083 0.185153 0.995237 0.157017
C126  C     C_2   0.799389 0.684458 0.004895 0.167015
C127  C     C_2   0.299917 0.814847 0.995237 0.157018
C128  C     C_2   0.200611 0.315542 0.004895 0.167016
C129  C     C_2   0.300094 0.185370 0.995356 0.159066
C130  C     C_2   0.200458 0.684680 0.004734 0.170352
C131  C     C_2   0.699906 0.814630 0.995356 0.159066
C132  C     C_2   0.799542 0.315320 0.004734 0.170352
C133  C     C_R   0.437848 0.980973 0.364991 -0.138078
C134  C     C_R   0.500000 0.000000 0.281360 0.232498
C135  C     C_R   0.981227 0.437776 0.364970 -0.150819
C136  C     C_R   0.562152 0.019027 0.364991 -0.138078
C137  C     C_R   0.018772 0.562223 0.364970 -0.150819
C138  C     C_R   0.937871 0.480895 0.864991 -0.138082
C139  C     C_R   0.480955 0.937860 0.864972 -0.150807
C140  C     C_R   0.062128 0.519105 0.864991 -0.138082
C141  C     C_R   0.519044 0.062140 0.864972 -0.150806
C142  C     C_R   0.436864 0.979636 0.332196 0.146520
C143  C     C_R   0.979885 0.436785 0.332173 0.148751
C144  C     C_R   0.563136 0.020364 0.332196 0.146520
Cl1   Cl    Cl    0.107190 0.796869 0.483274 -0.417658
Cl2   Cl    Cl    0.768352 0.672985 0.942319 -0.478214
Cl3   Cl    Cl    0.392810 0.703131 0.983272 -0.417648
Cl4   Cl    Cl    0.231647 0.327014 0.942319 -0.478214
Cl5   Cl    Cl    0.393367 0.297095 0.984031 -0.417684
Cl6   Cl    Cl    0.230433 0.673739 0.942038 -0.507662
Cl7   Cl    Cl    0.606633 0.702905 0.984031 -0.417684
Cl8   Cl    Cl    0.769567 0.326260 0.942038 -0.507662
Cl9   Cl    Cl    0.285973 0.644099 0.497503 -0.451598
Cl10  Cl    Cl    0.281718 0.211053 0.543899 -0.529501
Cl11  Cl    Cl    0.714027 0.355901 0.497502 -0.451598
Cl12  Cl    Cl    0.268348 0.172983 0.442320 -0.478307
Cl13  Cl    Cl    0.718282 0.788948 0.543899 -0.529501
Cl14  Cl    Cl    0.714116 0.644434 0.497352 -0.450011
Cl15  Cl    Cl    0.718647 0.211030 0.543719 -0.514394
Cl16  Cl    Cl    0.285884 0.355565 0.497351 -0.450011
Cl17  Cl    Cl    0.281353 0.788970 0.543719 -0.514395
Cl18  Cl    Cl    0.785973 0.144100 0.997505 -0.451618
Cl19  Cl    Cl    0.781717 0.711053 0.043898 -0.529154
Cl20  Cl    Cl    0.214027 0.855900 0.997505 -0.451619
Cl21  Cl    Cl    0.218283 0.288948 0.043898 -0.529153
Cl22  Cl    Cl    0.214116 0.144433 0.997352 -0.450018
Cl23  Cl    Cl    0.892810 0.203131 0.483274 -0.417657
Cl24  Cl    Cl    0.218651 0.711024 0.043720 -0.514578
Cl25  Cl    Cl    0.785884 0.855567 0.997352 -0.450019
Cl26  Cl    Cl    0.781349 0.288976 0.043720 -0.514576
Cl27  Cl    Cl    0.971439 0.354971 0.688538 -0.553246
Cl28  Cl    Cl    0.354432 0.974071 0.688468 -0.551991
Cl29  Cl    Cl    0.028559 0.645028 0.688539 -0.553248
Cl30  Cl    Cl    0.645566 0.025929 0.688468 -0.551992
Cl31  Cl    Cl    0.471266 0.855006 0.188539 -0.553212
Cl32  Cl    Cl    0.854580 0.473264 0.188472 -0.551947
Cl33  Cl    Cl    0.528734 0.144994 0.188539 -0.553212
Cl34  Cl    Cl    0.731652 0.827017 0.442320 -0.478308
Cl35  Cl    Cl    0.145420 0.526729 0.188472 -0.551941
Cl36  Cl    Cl    0.893369 0.797095 0.484033 -0.417738
Cl37  Cl    Cl    0.730437 0.173734 0.442038 -0.507598
Cl38  Cl    Cl    0.106631 0.202904 0.484033 -0.417738
Cl39  Cl    Cl    0.269563 0.826265 0.442038 -0.507598
Cl40  Cl    Cl    0.607190 0.296869 0.983272 -0.417648
H1    H     H_    0.390612 0.966358 0.378201 0.197061
H2    H     H_    0.285598 0.965245 0.349370 0.275309
H3    H     H_    0.265622 0.904863 0.317854 0.264117
H4    H     H_    0.348206 0.002733 0.301232 0.239666
H5    H     H_    0.386126 0.914387 0.296891 0.235319
H6    H     H_    0.965678 0.285468 0.349378 0.271530
H7    H     H_    0.877668 0.328240 0.347366 0.269473
H8    H     H_    0.905464 0.265400 0.317814 0.267267
H9    H     H_    0.914993 0.385793 0.296808 0.234886
H10   H     H_    0.003393 0.348072 0.301295 0.238751
H11   H     H_    0.671553 0.122728 0.347447 0.274980
H12   H     H_    0.966823 0.390474 0.378175 0.188302
H13   H     H_    0.714402 0.034755 0.349370 0.275310
H14   H     H_    0.734378 0.095136 0.317854 0.264116
H15   H     H_    0.651794 0.997267 0.301232 0.239666
H16   H     H_    0.613874 0.085613 0.296891 0.235318
H17   H     H_    0.034317 0.714531 0.349377 0.271530
H18   H     H_    0.122328 0.671762 0.347365 0.269473
H19   H     H_    0.094531 0.734600 0.317814 0.267268
H20   H     H_    0.085007 0.614205 0.296808 0.234886
H21   H     H_    0.996605 0.651925 0.301295 0.238752
H22   H     H_    0.828624 0.377032 0.847447 0.274951
H23   H     H_    0.609388 0.033642 0.378201 0.197061
H24   H     H_    0.785642 0.464941 0.849372 0.275339
H25   H     H_    0.765756 0.404532 0.817855 0.264091
H26   H     H_    0.848195 0.502530 0.801235 0.239676
H27   H     H_    0.886240 0.414240 0.796890 0.235303
H28   H     H_    0.464571 0.785632 0.849389 0.271536
H29   H     H_    0.376806 0.828900 0.847365 0.269458
H30   H     H_    0.404262 0.765895 0.817820 0.267250
H31   H     H_    0.414490 0.886201 0.796799 0.234875
H32   H     H_    0.502687 0.848021 0.801316 0.238760
H33   H     H_    0.171376 0.622967 0.847447 0.274951
H34   H     H_    0.033177 0.609525 0.378175 0.188302
H35   H     H_    0.214358 0.535058 0.849371 0.275338
H36   H     H_    0.234244 0.595467 0.817854 0.264091
H37   H     H_    0.151804 0.497469 0.801235 0.239675
H38   H     H_    0.113759 0.585759 0.796890 0.235302
H39   H     H_    0.535427 0.214367 0.849389 0.271536
H40   H     H_    0.623192 0.171100 0.847364 0.269459
H41   H     H_    0.595735 0.234105 0.817820 0.267250
H42   H     H_    0.585508 0.113799 0.796799 0.234875
H43   H     H_    0.497311 0.151978 0.801316 0.238760
H44   H     H_    0.082020 0.359705 0.596960 0.257096
H45   H     H_    0.890655 0.466220 0.878202 0.197040
H46   H     H_    0.071991 0.312915 0.633743 0.294784
H47   H     H_    0.034986 0.275008 0.598471 0.263486
H48   H     H_    0.937264 0.329210 0.629835 0.271478
H49   H     H_    0.947570 0.374444 0.594262 0.202716
H50   H     H_    0.314361 0.075588 0.633267 0.292719
H51   H     H_    0.361572 0.084100 0.596516 0.267662
H52   H     H_    0.275974 0.038773 0.598055 0.264957
H53   H     H_    0.373705 0.949271 0.594274 0.210590
H54   H     H_    0.327968 0.940538 0.629807 0.274703
H55   H     H_    0.917982 0.640299 0.596961 0.257094
H56   H     H_    0.466342 0.890624 0.878180 0.188202
H57   H     H_    0.928012 0.687087 0.633744 0.294785
H58   H     H_    0.965019 0.724994 0.598473 0.263486
H59   H     H_    0.062740 0.670787 0.629836 0.271477
H60   H     H_    0.052431 0.625555 0.594262 0.202716
H61   H     H_    0.685640 0.924415 0.633270 0.292720
H62   H     H_    0.638431 0.915899 0.596519 0.267662
H63   H     H_    0.724028 0.961228 0.598057 0.264958
H64   H     H_    0.626295 0.050726 0.594274 0.210588
H65   H     H_    0.672030 0.059465 0.629807 0.274702
H66   H     H_    0.581851 0.859636 0.096949 0.257053
H67   H     H_    0.109345 0.533780 0.878202 0.197040
H68   H     H_    0.571802 0.812855 0.133733 0.294786
H69   H     H_    0.534741 0.774982 0.098465 0.263504
H70   H     H_    0.437087 0.829270 0.129839 0.271495
H71   H     H_    0.447412 0.874498 0.094266 0.202800
H72   H     H_    0.814063 0.574710 0.133229 0.292775
H73   H     H_    0.861238 0.583341 0.096474 0.267418
H74   H     H_    0.775833 0.537655 0.098031 0.264945
H75   H     H_    0.873943 0.448558 0.094290 0.211006
H76   H     H_    0.828231 0.439714 0.129821 0.274767
H77   H     H_    0.418148 0.140365 0.096950 0.257053
H78   H     H_    0.533657 0.109376 0.878179 0.188202
H79   H     H_    0.428201 0.187147 0.133734 0.294787
H80   H     H_    0.465260 0.225019 0.098466 0.263503
H81   H     H_    0.562915 0.170729 0.129839 0.271494
H82   H     H_    0.552587 0.125501 0.094266 0.202800
H83   H     H_    0.185926 0.425277 0.133216 0.292773
H84   H     H_    0.138749 0.416675 0.096460 0.267413
H85   H     H_    0.224159 0.462350 0.098022 0.264945
H86   H     H_    0.126054 0.551461 0.094294 0.211021
H87   H     H_    0.171775 0.560276 0.129823 0.274771
H88   H     H_    0.328448 0.877271 0.347447 0.274980
N1    N     N_R   0.454747 0.043604 0.265318 -0.145130
N2    N     N_R   0.542947 0.954117 0.734231 -0.097596
N3    N     N_R   0.045431 0.456570 0.734270 -0.097945
N4    N     N_R   0.457051 0.045882 0.734231 -0.097595
N5    N     N_R   0.454627 0.043492 0.234269 -0.097943
N6    N     N_R   0.043218 0.454370 0.234233 -0.097572
N7    N     N_R   0.545373 0.956508 0.234269 -0.097944
N8    N     N_R   0.956781 0.545626 0.234233 -0.097577
N9    N     N_R   0.043343 0.454500 0.265281 -0.146000
N10   N     N_R   0.545253 0.956396 0.265318 -0.145131
N11   N     N_R   0.956656 0.545497 0.265280 -0.146001
N12   N     N_R   0.954686 0.543541 0.765318 -0.145124
N13   N     N_R   0.543072 0.954246 0.765279 -0.146027
N14   N     N_R   0.045313 0.456458 0.765318 -0.145124
N15   N     N_R   0.456926 0.045753 0.765280 -0.146028
N16   N     N_R   0.954567 0.543429 0.734270 -0.097945
O1    O     O_3   0.500000 0.000000 0.500000 -0.546669
O2    O     O_R   0.560150 0.000000 0.069320 -0.636888
O3    O     O_R   1.000000 0.560150 0.069320 -0.630392
O4    O     O_R   0.439850 0.000000 0.069320 -0.636887
O5    O     O_R   0.439930 0.000000 0.430670 -0.617678
O6    O     O_R   1.000000 0.439930 0.430670 -0.633479
O7    O     O_R   0.560070 0.000000 0.430670 -0.617678
O8    O     O_R   1.000000 0.560070 0.430670 -0.633478
O9    O     O_R   0.939930 0.500000 0.930670 -0.617660
O10   O     O_R   0.500000 0.939930 0.930670 -0.633421
O11   O     O_R   0.060070 0.500000 0.930670 -0.617660
O12   O     O_3   1.000000 0.500000 0.500000 -0.542655
O13   O     O_R   0.500000 0.060070 0.930670 -0.633421
O14   O     O_R   0.415450 0.144560 0.518170 -0.593816
O15   O     O_R   0.855440 0.415450 0.518170 -0.591335
O16   O     O_R   0.584550 0.855440 0.518170 -0.593815
O17   O     O_R   0.144560 0.584550 0.518170 -0.591335
O18   O     O_R   0.584550 0.144560 0.518170 -0.593581
O19   O     O_R   0.144560 0.415450 0.518170 -0.592332
O20   O     O_R   0.415450 0.855440 0.518170 -0.593581
O21   O     O_R   0.855440 0.584550 0.518170 -0.592332
O22   O     O_R   0.915450 0.644560 0.018170 -0.593756
O23   O     O_3   1.000000 0.500000 0.000000 -0.546665
O24   O     O_R   0.355440 0.915450 0.018170 -0.591342
O25   O     O_R   0.084550 0.355440 0.018170 -0.593758
O26   O     O_R   0.644560 0.084550 0.018170 -0.591342
O27   O     O_R   0.084550 0.644560 0.018170 -0.593637
O28   O     O_R   0.644560 0.915450 0.018170 -0.592322
O29   O     O_R   0.915450 0.355440 0.018170 -0.593635
O30   O     O_R   0.355440 0.084550 0.018170 -0.592322
O31   O     O_R   0.644640 0.915430 0.481820 -0.606747
O32   O     O_R   0.084570 0.644640 0.481820 -0.606307
O33   O     O_R   0.355360 0.084570 0.481820 -0.606747
O34   O     O_3   0.500000 0.000000 0.000000 -0.542666
O35   O     O_R   0.915430 0.355360 0.481820 -0.606308
O36   O     O_R   0.355360 0.915430 0.481820 -0.608167
O37   O     O_R   0.915430 0.644640 0.481820 -0.602739
O38   O     O_R   0.644640 0.084570 0.481820 -0.608167
O39   O     O_R   0.084570 0.355360 0.481820 -0.602739
O40   O     O_R   0.144640 0.415430 0.981820 -0.606750
O41   O     O_R   0.584570 0.144640 0.981820 -0.606317
O42   O     O_R   0.855360 0.584570 0.981820 -0.606750
O43   O     O_R   0.415430 0.855360 0.981820 -0.606317
O44   O     O_R   0.855360 0.415430 0.981820 -0.608159
O45   O     O_R   0.500000 0.939850 0.569320 -0.630339
O46   O     O_R   0.415430 0.144640 0.981820 -0.602719
O47   O     O_R   0.144640 0.584570 0.981820 -0.608159
O48   O     O_R   0.584570 0.855360 0.981820 -0.602719
O49   O     O_R   0.060150 0.500000 0.569320 -0.636876
O50   O     O_R   0.500000 0.060150 0.569320 -0.630341
O51   O     O_R   0.939850 0.500000 0.569320 -0.636874
O52   O     O_R   0.000000 0.439850 0.069320 -0.630396
Zn1   Zn    Zn3+2 0.414160 0.000000 0.474030 1.071867
Zn2   Zn    Zn3+2 0.914220 0.500000 0.525960 1.055481
Zn3   Zn    Zn3+2 0.500000 0.914220 0.525960 1.054515
Zn4   Zn    Zn3+2 0.085780 0.500000 0.525960 1.055480
Zn5   Zn    Zn3+2 1.000000 0.585780 0.025960 1.054517
Zn6   Zn    Zn3+2 0.414220 0.000000 0.025960 1.055473
Zn7   Zn    Zn3+2 1.000000 0.414220 0.025960 1.054515
Zn8   Zn    Zn3+2 0.585780 0.000000 0.025960 1.055473
Zn9   Zn    Zn3+2 1.000000 0.414160 0.474030 1.064269
Zn10  Zn    Zn3+2 0.585840 0.000000 0.474030 1.071867
Zn11  Zn    Zn3+2 1.000000 0.585840 0.474030 1.064269
Zn12  Zn    Zn3+2 0.914160 0.500000 0.974030 1.071874
Zn13  Zn    Zn3+2 0.500000 0.914160 0.974030 1.064286
Zn14  Zn    Zn3+2 0.085840 0.500000 0.974030 1.071873
Zn15  Zn    Zn3+2 0.500000 0.085840 0.974030 1.064286
Zn16  Zn    Zn3+2 0.500000 0.085780 0.525960 1.054514

loop_
_geom_bond_atom_site_label_1
_geom_bond_atom_site_label_2
_ccdc_geom_bond_type
C28   H32   S    
C42   H61   S    
O47   Zn14  S    
C19   C20   S    
C9    C143  A    
C43   C63   S    
C30   H38   S    
O40   Zn14  S    
C91   C127  S    
O5    Zn1   S    
O38   Zn10  S    
C124  Cl17  S    
C40   H55   S    
C33   H41   S    
C52   C61   A    
C74   C112  S    
C87   C124  S    
C110  Cl4   S    
C15   C78   S    
C54   C63   A    
C81   O33   A    
C81   C117  S    
C27   H25   S    
C94   O27   A    
C114  C131  D    
C83   C119  S    
C110  C111  S    
C77   O6    A    
C54   C74   A    
C109  C127  D    
C78   O9    A    
C50   H86   S    
C51   H83   S    
C58   C75   A    
C85   C121  S    
C48   C65   S    
C73   C101  S    
C104  Cl37  S    
C24   N15   A    
C21   C22   S    
C120  Cl14  S    
C140  H67   S    
C132  Cl26  S    
C111  Cl5   S    
C80   O13   A    
C2    N9    A    
C108  Cl2   S    
C45   C47   S    
C39   C61   S    
O22   Zn5   S    
C38   H51   S    
C17   C142  S    
C16   C80   S    
O34   Zn15  S    
C43   C44   S    
C20   H8    S    
C37   C38   S    
C52   C72   A    
C97   O46   A    
C29   H29   S    
C32   H43   S    
C99   Cl12  S    
C89   O42   A    
C26   C27   S    
O33   Zn1   S    
O46   Zn15  S    
C6    C30   S    
C96   O44   A    
C90   N16   A    
C82   C118  S    
C39   C40   S    
C29   H28   S    
C31   H36   S    
O41   Zn15  S    
O14   Zn16  S    
C131  Cl25  S    
C46   C60   A    
C70   C79   S    
O50   Zn16  S    
C91   O43   A    
O32   Zn11  S    
C136  H23   S    
C13   N12   A    
C84   O32   A    
C98   C106  S    
C76   O5    A    
C77   O8    A    
C38   H52   S    
C84   O17   A    
C48   H81   S    
O30   Zn6   S    
C46   Cl28  S    
O2    Zn8   S    
C106  Cl39  S    
C33   H40   S    
C47   H72   S    
C68   O3    A    
C106  C124  D    
C108  C126  D    
C102  C119  D    
C110  C128  D    
N4    N15   A    
C127  Cl20  S    
C22   H13   S    
C125  Cl18  S    
O11   Zn14  S    
O43   Zn13  S    
C20   H7    S    
C18   H88   S    
C133  C142  A    
C94   C130  S    
C129  Cl22  S    
O34   Zn13  S    
C95   O28   A    
C25   H17   S    
C36   H47   S    
C14   C77   S    
C14   C135  A    
C47   H74   S    
C65   C70   A    
C18   H3    S    
C1    O45   A    
C103  Cl36  S    
O12   Zn9   S    
C59   C67   A    
C135  H12   S    
C98   C116  D    
O21   Zn2   S    
C133  H1    S    
C79   O4    A    
C55   C75   A    
C135  C143  A    
C84   C116  S    
C92   O40   A    
C55   C64   A    
C109  Cl3   S    
C21   H15   S    
O12   Zn2   S    
C49   H80   S    
C5    C139  A    
C39   H59   S    
C115  C132  D    
C113  C130  D    
C8    C134  S    
O15   Zn2   S    
C107  C125  D    
C76   O7    A    
C95   O48   A    
C87   O20   A    
O7    Zn10  S    
C3    C9    A    
C99   C117  D    
C72   C90   S    
C61   C67   A    
C119  Cl13  S    
C17   C18   S    
O16   Zn3   S    
C26   H26   S    
C32   H42   S    
C41   H64   S    
C128  Cl21  S    
C105  Cl38  S    
C22   H11   S    
O8    Zn11  S    
C126  Cl19  S    
C85   O38   A    
C7    C141  A    
C45   H76   S    
C92   O25   A    
C42   H62   S    
C7    C32   S    
C139  H56   S    
C113  Cl6   S    
O20   Zn3   S    
C21   C144  S    
C25   H19   S    
O39   Zn9   S    
C98   Cl1   S    
C45   C64   S    
C23   H20   S    
O1    Zn16  S    
C16   C141  A    
O12   Zn11  S    
C37   H54   S    
C60   C69   A    
C102  Cl34  S    
O23   Zn14  S    
O24   Zn6   S    
C105  C122  D    
C34   C36   S    
C102  C103  S    
C101  N2    A    
C55   Cl32  S    
O49   Zn4   S    
C6    C10   A    
C79   O2    A    
C130  Cl24  S    
O51   Zn2   S    
C50   H87   S    
C19   H10   S    
C12   C136  A    
C134  N1    A    
C1    O50   A    
O12   Zn4   S    
C34   H49   S    
C46   C73   A    
O29   Zn7   S    
C85   O18   A    
O48   Zn13  S    
C35   Cl27  S    
C41   C42   S    
C103  C120  D    
N8    N11   A    
C89   O22   A    
C91   O24   A    
O31   Zn10  S    
C88   O21   A    
C134  N10   A    
C100  Cl23  S    
C41   C62   S    
C28   C29   S    
C5    C11   A    
C20   H6    S    
C30   C31   S    
C57   O49   A    
C44   H69   S    
O9    Zn12  S    
C43   H71   S    
C35   C59   A    
C27   H24   S    
C64   C71   A    
C108  C114  S    
C111  C129  D    
N6    N9    A    
C86   C122  S    
C101  N4    A    
C3    C137  A    
O52   Zn7   S    
C88   C120  S    
C40   H57   S    
C28   H31   S    
O1    Zn10  S    
C95   C131  S    
C82   O35   A    
C114  Cl7   S    
C87   O36   A    
C30   H37   S    
C31   H35   S    
C89   C126  S    
C56   C74   A    
O42   Zn12  S    
N12   N16   A    
O13   Zn15  S    
O10   Zn13  S    
C49   H77   S    
C123  N8    A    
O34   Zn8   S    
N1    N5    A    
C62   C69   A    
C54   Cl31  S    
O19   Zn4   S    
C93   O41   A    
C66   C71   A    
C48   H82   S    
C51   H84   S    
C50   C51   S    
C116  Cl9   S    
O3    Zn5   S    
C43   H70   S    
C44   H66   S    
C48   C49   S    
C35   C72   A    
C12   C76   S    
C34   C59   S    
C100  C118  D    
C15   C140  A    
C22   H14   S    
C34   H48   S    
O23   Zn12  S    
O37   Zn11  S    
C96   O29   A    
C38   H50   S    
C4    C26   S    
C57   O51   A    
C107  Cl40  S    
O18   Zn16  S    
C27   H22   S    
C32   C33   S    
C136  C144  A    
O44   Zn12  S    
C29   H30   S    
C47   H73   S    
C68   C71   S    
O6    Zn9   S    
C97   O30   A    
C6    C140  A    
C1    C69   S    
C4    C138  A    
C13   N14   A    
C117  Cl10  S    
C8    C142  A    
C17   H4    S    
N3    N14   A    
C31   H33   S    
C141  H78   S    
C3    C23   S    
C86   O39   A    
C81   O14   A    
C49   H79   S    
C123  N6    A    
O34   Zn6   S    
C83   O16   A    
C7    C11   A    
C75   C123  S    
C56   C65   A    
C11   C24   S    
O27   Zn5   S    
N7    N10   A    
O1    Zn1   S    
C112  N5    A    
C58   Cl35  S    
O23   Zn7   S    
C58   C66   A    
C100  C104  S    
C115  Cl8   S    
C14   C137  A    
C26   H27   S    
C109  C113  S    
C96   C132  S    
C15   C138  A    
C36   H44   S    
O36   Zn1   S    
O17   Zn4   S    
C57   C67   S    
C92   C128  S    
C44   H68   S    
C53   Cl30  S    
C45   H75   S    
C56   Cl33  S    
O28   Zn8   S    
C99   C105  S    
C42   H63   S    
C25   H18   S    
C104  C121  D    
C17   H5    S    
C18   H2    S    
C94   O47   A    
C137  H34   S    
C5    C28   S    
C53   C62   A    
C37   H53   S    
C63   C70   A    
C93   O26   A    
C118  Cl11  S    
C8    C144  A    
N2    N13   A    
C23   H21   S    
C50   C66   S    
C107  C115  S    
C90   N3    A    
C78   O11   A    
C93   C125  S    
C19   H9    S    
C12   C133  A    
C51   H85   S    
C16   C139  A    
C21   H16   S    
C4    C10   A    
C33   H39   S    
C82   O15   A    
C39   H60   S    
O4    Zn6   S    
C24   N13   A    
C86   O19   A    
C19   C143  S    
O25   Zn7   S    
C138  H45   S    
C53   C73   A    
C10   C13   S    
C88   O37   A    
C2    N11   A    
C80   O10   A    
O1    Zn3   S    
C112  N7    A    
C97   C129  S    
O23   Zn5   S    
C2    C9    S    
C83   O31   A    
C23   C25   S    
C37   C60   S    
C68   O52   A    
O45   Zn3   S    
C36   H46   S    
C121  Cl15  S    
C41   H65   S    
O35   Zn9   S    
C122  Cl16  S    
O26   Zn8   S    
C52   Cl29  S    
C40   H58   S    
