data_mof_unit_23585.cif
_audit_creation_date              2013-03-05T15:49:18-0500
_audit_creation_method            fapswitch 2.2
_symmetry_space_group_name_H-M    P1
_symmetry_Int_Tables_number       1
_space_group_crystal_system       triclinic
_cell_length_a                    20.638357
_cell_length_b                    22.81963
_cell_length_c                    6.938519
_cell_angle_alpha                 90.404025
_cell_angle_beta                  86.748224
_cell_angle_gamma                 90.117412
_cell_volume                      3262.41567512

loop_
_atom_site_label
_atom_site_type_symbol
_atom_site_description
_atom_site_fract_x
_atom_site_fract_y
_atom_site_fract_z
_atom_type_partial_charge
O1    O     O_R   0.387100 0.552640 0.378490 -0.559674
O2    O     O_R   0.612900 0.052640 0.621510 -0.595222
O3    O     O_R   0.249610 0.559600 0.072250 -0.598135
O4    O     O_R   0.750390 0.059600 0.927750 -0.575454
O5    O     O_R   0.249120 0.447360 0.902040 -0.609737
O6    O     O_R   0.750880 0.947360 0.097960 -0.615427
C1    C     C_R   0.226458 0.572548 0.244794 1.125013
C2    C     C_R   0.775594 0.070681 0.756073 1.179062
O7    O     O_R   0.386610 0.559560 0.048860 -0.580933
O8    O     O_R   0.613390 0.059560 0.951140 -0.572170
O9    O     O_R   0.387100 0.447320 0.878470 -0.599678
O10   O     O_R   0.612900 0.947320 0.121530 -0.601835
C3    C     C_R   0.405637 0.576893 0.215738 0.940962
C4    C     C_R   0.593281 0.075939 0.785999 0.997574
O11   O     O_R   0.249120 0.552680 0.402050 -0.552572
O12   O     O_R   0.750880 0.052680 0.597950 -0.558476
O13   O     O_3   0.318110 0.463180 0.223790 -0.304769
O14   O     O_3   0.681890 0.963180 0.776210 -0.309612
V1    V     V_3+5 0.318110 0.506830 0.948930 1.255292
V2    V     V_3+5 0.681890 0.006830 0.051070 1.253645
O15   O     O_R   0.386610 0.440400 0.548840 -0.603796
O16   O     O_R   0.613390 0.940400 0.451160 -0.601473
C5    C     C_R   0.407305 0.425047 0.713410 0.937420
C6    C     C_R   0.592031 0.925593 0.285565 0.935266
O17   O     O_R   0.249610 0.440440 0.572240 -0.601152
O18   O     O_R   0.750390 0.940440 0.427760 -0.601144
C7    C     C_R   0.227396 0.425999 0.744162 0.973695
C8    C     C_R   0.772993 0.926473 0.254883 0.985127
V3    V     V_3+5 0.318110 0.493170 0.448930 1.254496
V4    V     V_3+5 0.681890 0.993170 0.551070 1.233613
O19   O     O_3   0.318110 0.536820 0.723940 -0.209385
O20   O     O_3   0.681890 0.036820 0.276060 -0.238564
C9    C     C_R   0.176450 0.380083 0.759864 -0.125414
C10   C     C_R   0.826543 0.883151 0.235468 -0.117129
C11   C     C_R   0.154936 0.352556 0.592783 -0.072987
C12   C     C_R   0.849307 0.855477 0.398895 -0.079227
C13   C     C_R   0.109851 0.306865 0.607110 -0.133372
C14   C     C_R   0.899287 0.814198 0.379942 -0.122199
C15   C     C_R   0.085232 0.287737 0.788589 0.030323
C16   C     C_R   0.928370 0.799909 0.197022 0.027814
C17   C     C_R   0.105215 0.316048 0.955439 -0.007163
C18   C     C_R   0.905277 0.827583 0.033907 -0.037541
C19   C     C_R   0.150469 0.361724 0.941404 -0.149557
C20   C     C_R   0.855234 0.868715 0.052834 -0.151674
C21   C     C_R   0.887567 0.195444 0.876966 0.517845
C22   C     C_R   0.129801 0.709661 0.171970 0.535797
C23   C     C_R   0.838198 0.153686 0.888889 -0.102003
C24   C     C_R   0.177786 0.666699 0.153586 -0.205471
C25   C     C_R   0.876877 0.111667 0.580401 0.248169
C26   C     C_R   0.117984 0.606232 0.390447 0.236457
C27   C     C_R   0.926805 0.154109 0.568083 0.433006
C28   C     C_R   0.068386 0.648803 0.404385 0.437294
C29   C     C_R   0.932156 0.195962 0.716480 -0.118796
C30   C     C_R   0.074363 0.700742 0.295935 -0.137794
C31   C     C_2   0.039176 0.237644 0.803789 0.304705
C32   C     C_2   0.980597 0.754633 0.174042 0.309961
C33   C     C_2   0.984622 0.240220 0.704204 -0.149416
C34   C     C_2   0.022575 0.745682 0.313653 -0.119361
C35   C     C_R   0.831264 0.112157 0.740903 -0.393888
C36   C     C_R   0.172874 0.615285 0.262776 -0.359713
H1    H     H_    0.173726 0.365556 0.450566 0.133903
H2    H     H_    0.828027 0.865145 0.541807 0.123823
H3    H     H_    0.804500 0.154401 0.014270 0.230901
H4    H     H_    0.220245 0.674279 0.057722 0.197539
H5    H     H_    0.976582 0.277897 0.613673 0.169580
H6    H     H_    0.019737 0.771749 0.445120 0.178142
H7    H     H_    0.085865 0.302706 0.096775 0.143373
H8    H     H_    0.925900 0.818018 0.890597 0.154046
H9    H     H_    0.165542 0.382198 0.072860 0.144712
H10   H     H_    0.839065 0.889187 0.923693 0.139360
H11   H     H_    0.095103 0.285600 0.476514 0.147166
H12   H     H_    0.913856 0.792591 0.508824 0.138542
C37   C     C_R   0.573396 0.362791 0.606533 0.385312
C38   C     C_R   0.423471 0.864656 0.364751 0.377891
H13   H     H_    0.528551 0.447359 0.592360 0.156136
H14   H     H_    0.468186 0.949759 0.376725 0.156245
H15   H     H_    0.665958 0.281966 0.621675 0.221362
H16   H     H_    0.341284 0.778039 0.462339 0.220547
C39   C     C_R   0.461270 0.383003 0.706555 -0.141393
C40   C     C_R   0.537554 0.883839 0.287277 -0.139903
C41   C     C_R   0.477915 0.099045 0.837173 -0.150693
C42   C     C_R   0.518625 0.601208 0.126611 -0.117934
C43   C     C_R   0.424673 0.136159 0.845163 -0.037472
C44   C     C_R   0.569427 0.639980 0.087984 -0.054313
C45   C     C_R   0.432180 0.195628 0.807353 -0.152652
C46   C     C_R   0.562259 0.699278 0.130731 -0.154352
C47   C     C_R   0.494006 0.220272 0.761227 0.096664
C48   C     C_R   0.504100 0.721573 0.220469 0.104747
C49   C     C_R   0.549357 0.181866 0.751753 -0.063647
C50   C     C_R   0.452260 0.681078 0.268491 -0.054073
C51   C     C_R   0.502198 0.281890 0.723153 0.082519
C52   C     C_R   0.495917 0.783034 0.261647 0.080938
C53   C     C_R   0.564350 0.303087 0.657324 -0.081994
C54   C     C_R   0.434078 0.803844 0.332099 -0.070219
C55   C     C_R   0.617398 0.265311 0.653076 -0.163118
C56   C     C_R   0.385506 0.763418 0.385664 -0.177745
C57   C     C_R   0.611164 0.206770 0.705301 0.305094
C58   C     C_R   0.395172 0.703208 0.366170 0.251473
C59   C     C_R   0.451069 0.323522 0.749709 -0.219631
C60   C     C_R   0.547495 0.824448 0.240993 -0.220791
C61   C     C_R   0.521821 0.401887 0.633358 -0.256132
C62   C     C_R   0.475743 0.903560 0.345813 -0.262264
C63   C     C_R   0.540333 0.120286 0.789713 -0.175937
C64   C     C_R   0.459554 0.620386 0.213684 -0.154737
H17   H     H_    0.402944 0.311383 0.803587 0.105335
H18   H     H_    0.596565 0.811644 0.199304 0.103462
H19   H     H_    0.470233 0.052912 0.867200 0.127410
H20   H     H_    0.524918 0.555733 0.083341 0.125072
H21   H     H_    0.388193 0.221020 0.812097 0.118771
H22   H     H_    0.602836 0.726807 0.087048 0.116198
H23   H     H_    0.376734 0.118517 0.880176 0.153343
H24   H     H_    0.614368 0.624158 0.018295 0.146565
Cl1   Cl    Cl    0.985970 0.152083 0.374115 -0.436235
Cl2   Cl    Cl    0.996072 0.634664 0.544961 -0.421145
N1    N     N_R   0.634008 0.384242 0.521876 0.236148
O21   O     O_R   0.661770 0.357515 0.372912 -0.342024
O22   O     O_R   0.655056 0.435822 0.569824 -0.342878
N2    N     N_R   0.360060 0.887692 0.417627 0.238600
O23   O     O_R   0.310451 0.871849 0.321740 -0.313242
O24   O     O_R   0.353645 0.931434 0.538533 -0.349866
N3    N     N_R   0.669772 0.175619 0.728352 0.198219
O25   O     O_R   0.713762 0.174939 0.586409 -0.402804
O26   O     O_R   0.687223 0.167499 0.903230 -0.424866
N4    N     N_R   0.351747 0.666292 0.477585 0.221628
O27   O     O_R   0.289541 0.673725 0.468586 -0.415890
O28   O     O_R   0.373074 0.642679 0.631780 -0.368852
N5    N     N_R   0.875306 0.066093 0.437118 0.268508
O29   O     O_R   0.873555 0.078975 0.255207 -0.333690
O30   O     O_R   0.878332 0.011436 0.487909 -0.395454
N6    N     N_R   0.111331 0.553178 0.500123 0.263548
O31   O     O_R   0.099682 0.555460 0.686319 -0.303744
O32   O     O_R   0.117764 0.502400 0.414643 -0.398484
Cl3   Cl    Cl    0.891860 0.247080 0.065866 -0.525388
Cl4   Cl    Cl    0.141705 0.775056 0.041194 -0.477769
N7    N     N_R   0.054599 0.187731 0.920811 0.282569
O33   O     O_R   0.024565 0.137889 0.904902 -0.284799
O34   O     O_R   0.105179 0.189482 0.024494 -0.341161
N8    N     N_R   0.985081 0.719038 0.002239 0.250437
O35   O     O_R   0.974426 0.662931 0.013761 -0.287892
O36   O     O_R   0.008684 0.740989 0.840619 -0.361267

loop_
_geom_bond_atom_site_label_1
_geom_bond_atom_site_label_2
_geom_bond_distance
_ccdc_geom_bond_type
V4    O20   2.158716 S    
C41   H19   1.084200 S    
C47   C51   1.440390 A    
O13   V3    1.701043 S    
C38   C54   1.419930 A    
C37   C53   1.419003 A    
O4    C2    1.298790 A    
V1    O19   1.708929 S    
N7    O33   1.301204 A    
C17   H7    1.083125 S    
C13   H11   1.083374 S    
C7    C9    1.483036 S    
C58   N4    1.427564 S    
C34   H6    1.084331 S    
C44   H24   1.082800 S    
O16   C6    1.296158 A    
C39   C59   1.404895 A    
C11   C13   1.396345 A    
C44   C46   1.389632 A    
C45   H21   1.076770 S    
C2    C35   1.486656 S    
C23   H3    1.082575 S    
C46   C48   1.414384 A    
C24   H4    1.084009 S    
C51   C53   1.421988 A    
O12   V4    2.003915 S    
N1    O21   1.301510 A    
O7    V1    2.004923 S    
C2    O12   1.299578 A    
O7    C3    1.302248 A    
N2    O23   1.301522 A    
C57   N3    1.421624 S    
C26   N6    1.436714 S    
C9    C11   1.408072 A    
O5    C7    1.298420 A    
C6    C40   1.471844 S    
O6    C8    1.298299 A    
C48   C52   1.437727 A    
O8    V2    2.014249 S    
C25   C27   1.412162 A    
C56   C58   1.393316 A    
C26   C28   1.411545 A    
O3    V1    2.008995 S    
O14   V4    1.709882 S    
C42   H20   1.084260 S    
C10   C12   1.406095 A    
C38   C62   1.396748 A    
C24   C36   1.401478 A    
C15   C31   1.485662 S    
C16   C18   1.406905 A    
C8    C10   1.484106 S    
C53   C55   1.393712 A    
C49   C63   1.441282 A    
H14   C62   1.084181 S    
C17   C19   1.398325 A    
O10   V2    2.008222 S    
C18   C20   1.397065 A    
C12   H2    1.082923 S    
O1    V3    2.007575 S    
C41   C43   1.387088 A    
C28   C30   1.409841 A    
O11   V3    2.010967 S    
C22   C24   1.395018 A    
C21   C23   1.393049 A    
O17   V3    2.012177 S    
C25   N5    1.435246 S    
C14   H12   1.081912 S    
C23   C35   1.405442 A    
C45   C47   1.414248 A    
C9    C19   1.406966 A    
C10   C20   1.405252 A    
C15   C17   1.403659 A    
O8    C4    1.298265 A    
H16   C56   1.082123 S    
C29   C33   1.478501 S    
C38   N2    1.438479 S    
C1    O11   1.296375 A    
C60   H18   1.077699 S    
C16   C32   1.495825 S    
O15   V3    2.014744 S    
H15   C55   1.082179 S    
C40   C62   1.391347 A    
C27   C29   1.408243 A    
C41   C63   1.398014 A    
N6    O32   1.301553 A    
N5    O30   1.301064 A    
C22   Cl4   1.761509 S    
C32   N8    1.436482 S    
O9    V1    2.007507 S    
C22   C30   1.407186 A    
C52   C54   1.421872 A    
C11   H1    1.082757 S    
C27   Cl1   1.765609 S    
C3    C64   1.489075 S    
C54   C56   1.397433 A    
C50   C64   1.439567 A    
N3    O25   1.301115 A    
N8    O36   1.300268 A    
C43   C45   1.390680 A    
C48   C50   1.438559 A    
O18   V4    2.008423 S    
C42   C44   1.386226 A    
O15   C5    1.292535 A    
C30   C34   1.482222 S    
C43   H23   1.082791 S    
O1    C3    1.298774 A    
N5    O29   1.300500 A    
C1    C36   1.475352 S    
C20   H10   1.083037 S    
C52   C60   1.423838 A    
N4    O28   1.300485 A    
V2    O20   1.700090 S    
N7    O34   1.301331 A    
N1    O22   1.301365 A    
C37   C61   1.393792 A    
O16   V4    2.005415 S    
C46   H22   1.076815 S    
O18   C8    1.299910 A    
C33   H5    1.086890 S    
C25   C35   1.416843 A    
C55   C57   1.390431 A    
O5    V1    2.003312 S    
C28   Cl2   1.766410 S    
C21   Cl3   1.762143 S    
O17   C7    1.297932 A    
O6    V2    2.010361 S    
O10   C6    1.295459 A    
O3    C1    1.295996 A    
C37   N1    1.437929 S    
O2    V4    2.006862 S    
C26   C36   1.413683 A    
C31   C33   1.355611 D    
N6    O31   1.301323 A    
V3    O19   2.146263 S    
C51   C59   1.424633 A    
C12   C14   1.398386 A    
C14   C16   1.409240 A    
C4    C63   1.489915 S    
C31   N7    1.449745 S    
O9    C5    1.297052 A    
O13   V1    2.157793 S    
C32   C34   1.352548 D    
O14   V2    2.145341 S    
C18   H8    1.080211 S    
O2    C4    1.299656 A    
C59   H17   1.077591 S    
N2    O24   1.301460 A    
N3    O26   1.299766 A    
N8    O35   1.300876 A    
C21   C29   1.403866 A    
O4    V2    2.012752 S    
C13   C15   1.403038 A    
C49   C57   1.416686 A    
H13   C61   1.084442 S    
C47   C49   1.439497 A    
C42   C64   1.399181 A    
C39   C61   1.390763 A    
C5    C39   1.469994 S    
C19   H9    1.082851 S    
C50   C58   1.417582 A    
C40   C60   1.403390 A    
N4    O27   1.300392 A    
