data_mof_unit_57565.cif
_audit_creation_date              2012-12-11T16:05:13-0500
_audit_creation_method            fapswitch 2.2
_symmetry_space_group_name_H-M    P1
_symmetry_Int_Tables_number       1
_space_group_crystal_system       triclinic
_cell_length_a                    10.609
_cell_length_b                    10.654571
_cell_length_c                    16.865799
_cell_angle_alpha                 98.839336
_cell_angle_beta                  98.947798
_cell_angle_gamma                 61.7682
_cell_volume                      1652.14883153

loop_
_atom_site_label
_atom_site_type_symbol
_atom_type_description
_atom_site_fract_x
_atom_site_fract_y
_atom_site_fract_z
_atom_type_partial_charge
C1    C     C_R   0.351344 0.780981 0.401127 0.590850
C2    C     C_3   0.412295 0.704707 0.257940 -0.188857
C3    C     C_3   0.334995 0.825978 0.322368 0.104485
C4    C     C_R   0.366895 0.343613 0.359995 0.561484
C5    C     C_3   0.382839 0.920834 0.290888 0.204397
C6    C     C_3   0.242593 0.980918 0.234745 -0.083745
C7    C     C_3   0.196826 0.880768 0.265605 0.216029
C8    C     C_3   0.273196 0.760628 0.200860 -0.103902
C9    C     C_3   0.322400 0.857624 0.170811 -0.011099
C10   C     C_3   0.456040 0.245701 0.771102 0.240392
C11   C     C_3   0.417668 0.384263 0.735620 -0.148544
C12   C     C_3   0.678184 0.336825 0.233488 -0.135896
C13   C     C_3   0.336961 0.335828 0.663154 0.022836
C14   C     C_3   0.378400 0.196111 0.698877 -0.134066
C15   C     C_3   0.237470 0.275319 0.741098 -0.122270
C16   C     C_R   0.708958 0.413860 0.390291 0.544948
C17   C     C_3   0.198300 0.414821 0.704571 0.242693
C18   C     C_3   0.277275 0.462413 0.778193 -0.140373
C19   C     C_3   0.319255 0.322285 0.813637 0.045667
C20   C     C_1   0.769994 0.367245 0.715348 -0.025386
C21   C     C_1   0.814232 0.329238 0.782022 -0.022351
C22   C     C_1   0.358276 0.764408 0.714638 -0.032899
C23   C     C_3   0.752354 0.383011 0.309308 0.038634
C24   C     C_1   0.326456 0.810810 0.782223 -0.030333
C25   C     C_R   0.892865 0.310252 0.090750 0.540826
C26   C     C_R   0.291782 0.262092 0.122590 0.549003
C27   C     C_R   0.295603 0.889529 0.088200 0.534149
C28   C     C_R   0.379754 0.715517 0.631747 0.523868
C29   C     C_R   0.878829 0.302037 0.862192 0.560682
C30   C     C_R   0.308690 0.294173 0.892316 0.572193
C31   C     C_R   0.282437 0.879854 0.859828 0.543310
C32   C     C_R   0.366561 0.345809 0.584839 0.564184
C33   C     C_R   0.718974 0.410193 0.635610 0.532515
C34   C     C_3   0.900698 0.268196 0.287125 -0.074389
C35   C     C_1   0.325650 0.317696 0.277948 -0.041867
C36   C     C_1   0.305939 0.293237 0.206996 -0.063981
C37   C     C_3   0.827560 0.221575 0.209797 -0.070668
C38   C     C_3   0.910517 0.378150 0.242434 -0.120096
C39   C     C_3   0.761983 0.493404 0.265442 -0.114029
C40   C     C_3   0.688706 0.447126 0.188181 -0.145869
C41   C     C_3   0.836125 0.332819 0.166449 0.037956
C42   C     C_3   0.462573 0.801493 0.226297 -0.155164
Cl1   Cl    Cl    0.025541 0.918461 0.292420 -0.619161
Cl2   Cl    Cl    0.027718 0.528983 0.657387 -0.525578
Cr1   Cr    Cr6+3 0.608340 0.611040 0.520430 1.092258
Cr2   Cr    Cr6+3 0.287650 0.601120 0.489350 1.100360
Cr3   Cr    Cr6+3 0.604040 0.287870 0.490280 1.080225
Cr4   Cr    Cr6+3 0.054020 0.052700 0.970850 1.059476
Cr5   Cr    Cr6+3 0.059230 0.375120 0.993390 1.043599
Cr6   Cr    Cr6+3 0.374950 0.061200 0.992340 1.055068
H1    H     H_    0.582195 0.320247 0.232002 0.130302
H2    H     H_    0.006644 0.394784 0.244354 0.131815
H3    H     H_    0.738379 0.603401 0.291697 0.151320
H4    H     H_    0.605168 0.516496 0.143973 0.126793
H5    H     H_    0.470522 0.593047 0.273183 0.107297
H6    H     H_    0.568650 0.772945 0.206670 0.128186
H7    H     H_    0.658483 0.127281 0.765863 0.333549
H8    H     H_    0.503799 0.012252 0.309052 0.343154
H9    H     H_    0.174921 0.094628 0.222874 0.098815
H10   H     H_    0.229951 0.692991 0.162022 0.157012
H11   H     H_    0.491773 0.428928 0.731899 0.084808
H12   H     H_    0.419984 0.088033 0.665646 0.154069
H13   H     H_    0.161589 0.232634 0.745344 0.138214
H14   H     H_    0.236450 0.569973 0.811982 0.145409
H15   H     H_    0.852480 0.112007 0.182176 0.189769
H16   H     H_    0.986554 0.199778 0.330728 0.182865
O1    O     O_R   0.751220 0.499230 0.435170 -0.480769
O2    O     O_R   0.412990 0.180750 0.091610 -0.504323
O3    O     O_R   0.366620 0.943130 0.065760 -0.516905
O4    O     O_R   0.477220 0.727600 0.436870 -0.508307
O5    O     O_R   0.160510 0.906330 0.879210 -0.497458
O6    O     O_R   0.930190 0.179050 0.889450 -0.474725
O7    O     O_R   0.909140 0.398170 0.896710 -0.499675
O8    O     O_R   0.186190 0.363460 0.918830 -0.504965
O9    O     O_R   0.401670 0.173200 0.913310 -0.453248
O10   O     O_R   0.356120 0.936130 0.900470 -0.490551
O11   O     O_3   0.162740 0.163010 0.985530 -0.293775
O12   O     O_R   0.297880 0.469080 0.560050 -0.478044
O13   O     O_R   0.258650 0.745120 0.411470 -0.459083
O14   O     O_R   0.297070 0.467240 0.395960 -0.491074
O15   O     O_R   0.488830 0.252610 0.387790 -0.488569
O16   O     O_R   0.724400 0.302390 0.420980 -0.462901
O17   O     O_R   0.752100 0.501210 0.612190 -0.421906
O18   O     O_R   0.478040 0.729440 0.600970 -0.499053
O19   O     O_R   0.259530 0.747110 0.588490 -0.467730
O20   O     O_3   0.591769 0.159378 0.808265 -0.656461
O21   O     O_3   0.438533 0.003179 0.341331 -0.670593
O22   O     O_R   0.489720 0.254590 0.564810 -0.516082
O23   O     O_R   0.725220 0.304230 0.585080 -0.480129
O24   O     O_3   0.500010 0.500010 0.500020 -0.353030
O25   O     O_R   0.171830 0.913880 0.057510 -0.508748
O26   O     O_R   0.940690 0.186050 0.054730 -0.503802
O27   O     O_R   0.920470 0.405720 0.075010 -0.517690
O28   O     O_R   0.196690 0.370460 0.084120 -0.495346

loop_
_geom_bond_atom_site_label_1
_geom_bond_atom_site_label_2
_ccdc_geom_bond_type
C26   O28   A    
C5    C42   S    
C11   C18   S    
C25   O27   A    
C28   O18   A    
C34   C37   S    
C13   C32   S    
C35   C36   T    
H8    O21   S    
C34   H16   S    
C6    C9    S    
C7    C8    S    
C39   H3    S    
C15   C19   S    
C12   C23   S    
C9    C42   S    
Cr6   O3    S    
C4    O14   A    
C33   O23   A    
C2    H5    S    
C5    C6    S    
C30   O8    A    
C38   H2    S    
C14   H12   S    
H7    O20   S    
C18   C19   S    
Cr3   O16   S    
C12   C37   S    
C42   H6    S    
C4    O15   A    
C8    C9    S    
Cr4   O25   S    
C37   H15   S    
Cr1   O1    S    
C27   O25   A    
C7    Cl1   S    
Cr5   O28   S    
C27   O3    A    
C29   O6    A    
C31   O5    A    
C4    C35   S    
C22   C28   S    
C13   C14   S    
Cr3   O23   S    
Cr1   O17   S    
Cr4   O6    S    
C38   C39   S    
C38   C41   S    
C10   C14   S    
C25   C41   S    
C39   C40   S    
Cr2   O12   S    
C11   H11   S    
C21   C29   S    
C1    C3    S    
Cr4   O11   S    
C12   C40   S    
Cr6   O10   S    
C14   C15   S    
C10   C19   S    
C23   C34   S    
C16   O16   A    
C17   C18   S    
C16   O1    A    
Cr1   O24   S    
C33   O17   A    
C20   C33   S    
C26   C36   S    
C40   C41   S    
C16   C23   S    
C40   H4    S    
C1    O13   A    
Cr3   O24   S    
Cr5   O7    S    
Cr1   O18   S    
Cr4   O5    S    
Cr6   O11   S    
C12   H1    S    
C9    C27   S    
C15   C17   S    
C10   O20   S    
C25   O26   A    
Cr1   O4    S    
C34   C38   S    
C6    H9    S    
C2    C8    S    
C3    C5    S    
C6    C7    S    
Cr2   O24   S    
C3    C7    S    
C1    O4    A    
C13   C17   S    
C26   O2    A    
Cr3   O22   S    
Cr2   O19   S    
C2    C3    S    
C17   Cl2   S    
Cr6   O9    S    
C8    H10   S    
Cr2   O14   S    
C30   O9    A    
C11   C13   S    
C18   H14   S    
C31   O10   A    
Cr2   O13   S    
C2    C42   S    
C23   C39   S    
Cr5   O11   S    
C22   C24   T    
Cr3   O15   S    
C37   C41   S    
C24   C31   S    
C10   C11   S    
C32   O12   A    
C5    O21   S    
C29   O7    A    
C20   C21   T    
Cr4   O26   S    
C28   O19   A    
C15   H13   S    
Cr5   O8    S    
Cr5   O27   S    
C19   C30   S    
Cr6   O2    S    
C32   O22   A    
