data_mof_unit_36467.cif
_audit_creation_date              2012-12-11T15:39:32-0500
_audit_creation_method            fapswitch 2.2
_symmetry_space_group_name_H-M    P1
_symmetry_Int_Tables_number       1
_space_group_crystal_system       triclinic
_cell_length_a                    14.34104
_cell_length_b                    14.781981
_cell_length_c                    33.177586
_cell_angle_alpha                 97.494767
_cell_angle_beta                  90.42023
_cell_angle_gamma                 118.913265
_cell_volume                      6083.89068252

loop_
_atom_site_label
_atom_site_type_symbol
_atom_type_description
_atom_site_fract_x
_atom_site_fract_y
_atom_site_fract_z
_atom_type_partial_charge
C1    C     C_R   0.616919 0.910290 0.437029 0.545194
C2    C     C_R   0.712195 0.437567 0.949241 0.565131
C3    C     C_R   0.577005 0.682193 0.756100 -0.045553
C4    C     C_R   0.570375 0.706100 0.717164 -0.051331
C5    C     C_R   0.656078 0.731514 0.692411 0.104125
C6    C     C_R   0.745653 0.726000 0.706118 -0.051924
C7    C     C_R   0.751890 0.701211 0.744928 -0.122613
C8    C     C_R   0.669317 0.682851 0.770843 0.063891
C9    C     C_R   0.567072 0.712774 0.624535 0.331131
C10   C     C_R   0.557810 0.755374 0.590627 -0.154328
C11   C     C_R   0.724643 0.913687 0.613511 0.406624
C12   C     C_R   0.741639 0.717547 0.945356 0.578008
C13   C     C_R   0.831296 0.437299 0.164341 0.451403
C14   C     C_R   0.828797 0.452385 0.123837 -0.081969
C15   C     C_R   0.767698 0.337442 0.244592 0.452560
C16   C     C_R   0.761605 0.326557 0.285702 -0.009012
C17   C     C_R   0.735117 0.389904 0.313084 0.006526
C18   C     C_R   0.718805 0.467095 0.299171 -0.126376
C19   C     C_R   0.724817 0.478057 0.258092 -0.173648
C20   C     C_R   0.747152 0.411983 0.230482 0.053553
C21   C     C_R   0.742725 0.417847 0.186786 0.061364
C22   C     C_R   0.610668 0.346857 0.367772 -0.134650
C23   C     C_R   0.594072 0.205746 0.456606 0.564214
C24   C     C_R   0.574596 0.301081 0.402650 0.386530
C25   C     C_R   0.741251 0.299108 0.413190 -0.135492
C26   C     C_R   0.777061 0.344820 0.378300 0.386418
C27   C     C_R   0.709941 0.364830 0.354428 -0.029598
C28   C     C_R   0.637948 0.272449 0.424700 -0.039898
C29   C     C_R   0.244121 0.877975 0.393150 0.014347
C30   C     C_R   0.228717 0.958136 0.380714 0.341686
C31   C     C_R   0.205644 0.956427 0.339553 -0.083852
C32   C     C_R   0.734324 0.870580 0.647505 0.365934
C33   C     C_R   0.196424 0.874801 0.310418 -0.093029
C34   C     C_R   0.203192 0.791100 0.322635 -0.067361
C35   C     C_R   0.295395 0.892774 0.434321 0.582931
C36   C     C_R   0.226408 0.791988 0.363666 0.346613
C37   C     C_R   0.196079 0.808108 0.163190 -0.090632
C38   C     C_R   0.167565 0.785819 0.121350 -0.110462
C39   C     C_R   0.093498 0.903316 0.129044 -0.111477
C40   C     C_R   0.121571 0.925028 0.171010 -0.096517
C41   C     C_R   0.169268 0.874370 0.188248 0.028529
C42   C     C_1   0.179770 0.880094 0.231664 0.011594
C43   C     C_R   0.654105 0.770806 0.653775 -0.033705
C44   C     C_1   0.186612 0.879287 0.267757 0.013277
C45   C     C_R   0.111569 0.829487 0.104159 0.008191
C46   C     C_R   0.637153 0.878747 0.395469 -0.046103
C47   C     C_R   0.613692 0.904699 0.551785 0.570831
C48   C     C_R   0.552339 0.799198 0.368701 -0.073465
C49   C     C_R   0.563508 0.786900 0.326902 0.396009
C50   C     C_R   0.659872 0.853438 0.311637 0.028031
C51   C     C_R   0.747054 0.927412 0.338333 -0.159021
C52   C     C_R   0.735958 0.939950 0.380081 -0.130988
C53   C     C_R   0.773099 0.923879 0.174264 0.441783
C54   C     C_R   0.634589 0.857291 0.585161 -0.099414
C55   C     C_R   0.789280 0.910897 0.132891 0.410457
C56   C     C_R   0.619285 0.749640 0.121728 -0.202941
C57   C     C_R   0.603460 0.763049 0.162943 -0.193475
C58   C     C_R   0.682089 0.847829 0.189453 -0.019757
C59   C     C_R   0.589913 0.199719 0.570844 0.559821
C60   C     C_1   0.673588 0.850830 0.232497 0.073823
C61   C     C_1   0.667353 0.851478 0.268580 0.071388
C62   C     C_R   0.714574 0.820590 0.106580 -0.032505
C63   C     C_R   0.624197 0.251118 0.613678 0.011901
C64   C     C_R   0.564887 0.290737 0.635972 0.399383
C65   C     C_R   0.052385 0.781400 0.063721 0.534642
C66   C     C_R   0.582201 0.315344 0.678407 -0.043617
C67   C     C_R   0.658694 0.301310 0.698880 -0.043867
C68   C     C_R   0.723373 0.269828 0.676866 -0.118968
C69   C     C_R   0.706714 0.245389 0.634487 -0.167046
C70   C     C_R   0.759400 0.339546 0.845083 0.362218
C71   C     C_R   0.288599 0.886552 0.548387 0.567107
C72   C     C_R   0.769103 0.364930 0.887520 0.389750
C73   C     C_R   0.594331 0.353262 0.884806 -0.170804
C74   C     C_R   0.584854 0.327768 0.842463 0.347480
C75   C     C_R   0.669253 0.325169 0.822482 -0.019075
C76   C     C_R   0.744004 0.486641 0.066182 0.552088
C77   C     C_1   0.666873 0.316235 0.778906 0.134699
C78   C     C_1   0.664441 0.310523 0.742432 0.050452
C79   C     C_R   0.688836 0.377666 0.907642 -0.098234
C80   C     C_R   0.064010 0.751504 0.907531 0.016318
C81   C     C_R   0.097501 0.849022 0.895133 -0.060594
C82   C     C_R   0.112826 0.860142 0.854312 -0.080558
C83   C     C_R   0.738191 0.448842 0.105426 -0.040007
C84   C     C_R   0.095173 0.773921 0.825511 0.012133
C85   C     C_R   0.069032 0.678414 0.838465 -0.113223
C86   C     C_R   0.054057 0.667400 0.879241 -0.108810
C87   C     C_R   0.742938 0.789285 0.066453 0.575422
C88   C     C_R   0.148427 0.735818 0.756997 -0.095433
C89   C     C_R   0.153148 0.743813 0.715748 -0.104363
C90   C     C_R   0.108977 0.798040 0.698673 0.048519
C91   C     C_R   0.057435 0.841928 0.723170 -0.038618
C92   C     C_R   0.052947 0.834160 0.764581 -0.109190
C93   C     C_R   0.099440 0.781955 0.781828 0.023518
C94   C     C_R   0.179824 0.920796 0.648062 0.398419
C95   C     C_R   0.647718 0.423541 0.127394 -0.139153
C96   C     C_R   0.224687 0.941848 0.611063 -0.126509
C97   C     C_R   0.159224 0.756551 0.589258 0.384466
C98   C     C_R   0.021266 0.731975 0.947302 0.532561
C99   C     C_R   0.113687 0.735491 0.626141 -0.136782
C100  C     C_R   0.128514 0.817700 0.656521 -0.039262
C101  C     C_R   0.219974 0.860684 0.582397 -0.037003
C102  C     C_R   0.720367 0.704365 0.900523 -0.048044
C103  C     C_R   0.626472 0.620864 0.879419 -0.149711
C104  C     C_R   0.609493 0.610742 0.836915 0.388489
C105  C     C_R   0.687480 0.682977 0.814883 -0.031528
C106  C     C_R   0.782355 0.763619 0.835872 -0.133177
C107  C     C_R   0.650184 0.408476 0.167814 -0.180887
C108  C     C_R   0.798846 0.774590 0.877931 0.364058
Cr1   Cr    Cr6+3 0.424820 0.846020 0.489780 1.124715
Cr2   Cr    Cr6+3 0.657880 0.078580 0.505700 1.082645
Cr3   Cr    Cr6+3 0.417280 0.075360 0.504550 1.180482
Cr4   Cr    Cr6+3 0.903360 0.812540 0.006510 1.116352
Cr5   Cr    Cr6+3 0.914630 0.587050 0.006280 1.092926
Cr6   Cr    Cr6+3 0.673560 0.582680 0.008540 1.032169
F1    F     F_    0.475114 0.278772 0.412968 -0.543840
F2    F     F_    0.840767 0.335168 0.825886 -0.572744
F3    F     F_    0.486437 0.300406 0.617190 -0.557542
F4    F     F_    0.496280 0.312308 0.820834 -0.545082
F5    F     F_    0.196733 0.002216 0.677028 -0.576373
F6    F     F_    0.148836 0.675642 0.561414 -0.570860
F7    F     F_    0.786836 0.270986 0.218273 -0.545894
F8    F     F_    0.891900 0.855500 0.896416 -0.612948
F9    F     F_    0.818891 0.928888 0.675566 -0.573555
F10   F     F_    0.517481 0.530518 0.817380 -0.564264
F11   F     F_    0.489646 0.615437 0.629239 -0.569667
F12   F     F_    0.922298 0.448240 0.182285 -0.563382
F13   F     F_    0.800848 0.012068 0.609501 -0.548723
F14   F     F_    0.237760 0.711607 0.373834 -0.562133
F15   F     F_    0.241476 0.041215 0.407831 -0.552875
F16   F     F_    0.881444 0.982493 0.119506 -0.572297
F17   F     F_    0.849151 0.007236 0.199894 -0.555935
F18   F     F_    0.478621 0.714268 0.301206 -0.600458
F19   F     F_    0.860268 0.384208 0.908363 -0.560981
F20   F     F_    0.875243 0.365256 0.366887 -0.578427
H1    H     H_    0.182650 0.728819 0.102954 0.145738
H2    H     H_    0.027303 0.591040 0.887975 0.201767
H3    H     H_    0.072779 0.655451 0.632083 0.161092
H4    H     H_    0.771632 0.264657 0.295692 0.183971
H5    H     H_    0.195177 0.711176 0.697475 0.131575
H6    H     H_    0.135409 0.935186 0.845048 0.150788
H7    H     H_    0.012922 0.868613 0.783086 0.124064
H8    H     H_    0.270365 0.022634 0.606327 0.198838
H9    H     H_    0.054470 0.610660 0.816754 0.153080
H10   H     H_    0.565868 0.564202 0.895763 0.174587
H11   H     H_    0.513080 0.670121 0.775630 0.166787
H12   H     H_    0.194802 0.726915 0.300151 0.193945
H13   H     H_    0.488117 0.709133 0.569221 0.204586
H14   H     H_    0.842966 0.821100 0.819784 0.152819
H15   H     H_    0.698061 0.516440 0.319850 0.146241
H16   H     H_    0.557738 0.361666 0.349654 0.163418
H17   H     H_    0.576793 0.420205 0.114023 0.160492
H18   H     H_    0.792720 0.280068 0.430059 0.181941
H19   H     H_    0.233249 0.768736 0.176297 0.143432
H20   H     H_    0.049879 0.937644 0.116753 0.198696
H21   H     H_    0.899914 0.472359 0.107672 0.162543
H22   H     H_    0.199038 0.020866 0.330275 0.178682
H23   H     H_    0.100474 0.976435 0.190223 0.167091
H24   H     H_    0.475226 0.751094 0.379642 0.202277
H25   H     H_    0.559860 0.679974 0.102274 0.164453
H26   H     H_    0.783197 0.259325 0.692556 0.183362
H27   H     H_    0.530895 0.361661 0.899254 0.192494
H28   H     H_    0.185661 0.696060 0.769703 0.129842
H29   H     H_    0.022343 0.883464 0.710401 0.195732
H30   H     H_    0.500723 0.710468 0.707237 0.151122
H31   H     H_    0.811955 0.743926 0.687282 0.141578
H32   H     H_    0.823321 0.700958 0.755515 0.108161
H33   H     H_    0.580833 0.392331 0.184715 0.139108
H34   H     H_    0.822066 0.978699 0.326708 0.166942
H35   H     H_    0.709479 0.536396 0.247591 0.135626
H36   H     H_    0.802760 0.001675 0.399937 0.176856
H37   H     H_    0.532477 0.704298 0.174483 0.166915
H38   H     H_    0.753927 0.215460 0.618378 0.196969
H39   H     H_    0.532650 0.340861 0.695400 0.192691
H40   H     H_    0.106372 0.915070 0.916586 0.171669
O1    O     O_R   0.318160 0.824460 0.443680 -0.437792
O2    O     O_R   0.668160 0.499860 0.053480 -0.507819
O3    O     O_R   0.689170 0.693840 0.050110 -0.510055
O4    O     O_R   0.525040 0.857250 0.449830 -0.497837
O5    O     O_R   0.803860 0.812940 0.962540 -0.412645
O6    O     O_R   0.982950 0.787950 0.964120 -0.487446
O7    O     O_R   0.007050 0.649970 0.960540 -0.488887
O8    O     O_R   0.807910 0.482370 0.965590 -0.423606
O9    O     O_R   0.643310 0.460980 0.963840 -0.532605
O10   O     O_R   0.666140 0.657800 0.967020 -0.510001
O11   O     O_3   0.830520 0.660760 0.007110 -0.300847
O12   O     O_R   0.645130 0.163230 0.552140 -0.513939
O13   O     O_R   0.684760 0.998800 0.456360 -0.501903
O14   O     O_R   0.647540 0.166310 0.470260 -0.524968
O15   O     O_R   0.500960 0.181750 0.467450 -0.393011
O16   O     O_R   0.331100 0.981120 0.457080 -0.438171
O17   O     O_R   0.315560 0.821140 0.532010 -0.430323
O18   O     O_R   0.522630 0.854180 0.531710 -0.514689
O19   O     O_R   0.682160 0.995480 0.544690 -0.427843
O20   O     O_R   0.498360 0.178430 0.555780 -0.429629
O21   O     O_R   0.328690 0.978040 0.538950 -0.516256
O22   O     O_3   0.499990 0.999990 0.500010 -0.304428
O23   O     O_R   0.828710 0.851830 0.052170 -0.432826
O24   O     O_R   0.005980 0.823990 0.047210 -0.497880
O25   O     O_R   0.031900 0.688850 0.050170 -0.511316
O26   O     O_R   0.830940 0.518420 0.048680 -0.496538

loop_
_geom_bond_atom_site_label_1
_geom_bond_atom_site_label_2
_ccdc_geom_bond_type
C22   H16   S    
C14   H21   S    
C41   C42   S    
C19   C20   A    
Cr3   O22   S    
C103  H10   S    
C85   H9    S    
C94   F5    S    
C31   H22   S    
C72   F19   S    
C7    C8    A    
C12   O10   A    
C77   C78   T    
C25   C28   A    
C29   C36   A    
Cr2   O14   S    
C26   C27   A    
C37   C38   A    
Cr6   O11   S    
C59   O12   A    
C25   H18   S    
C5    C6    A    
C22   C24   A    
Cr1   O17   S    
C72   C79   A    
C30   C31   A    
C88   H28   S    
C1    C46   S    
Cr1   O18   S    
C58   C60   S    
C15   C16   A    
C55   C62   A    
C46   C52   A    
C106  H14   S    
C56   C57   A    
Cr1   O22   S    
C18   C19   A    
C2    O8    A    
Cr4   O24   S    
C47   O18   A    
C38   C45   A    
C73   H27   S    
C2    C79   S    
C103  C104  A    
C65   O25   A    
Cr1   O4    S    
Cr5   O26   S    
Cr5   O7    S    
C63   C69   A    
C16   C17   A    
C89   H5    S    
C82   H6    S    
C4    H30   S    
C66   H39   S    
C102  C108  A    
C53   F17   S    
C18   H15   S    
C9    C10   A    
C90   C91   A    
C10   H13   S    
Cr4   O6    S    
Cr6   O3    S    
C53   C55   A    
C66   C67   A    
C71   C101  S    
C6    H31   S    
C83   C95   A    
C59   O20   A    
C96   C101  A    
C8    C105  S    
C37   C41   A    
C32   F9    S    
C91   H29   S    
C51   H34   S    
C36   F14   S    
C67   C78   S    
C42   C44   T    
C14   C83   A    
C76   C83   S    
C90   C100  S    
C104  C105  A    
C97   C99   A    
C81   C82   A    
C46   C48   A    
C1    O13   A    
C73   C74   A    
Cr5   O25   S    
C15   C20   A    
C74   F4    S    
C49   F18   S    
C107  H33   S    
Cr2   O13   S    
C9    C43   A    
C74   C75   A    
C39   H20   S    
C67   C68   A    
C17   C27   S    
C37   H19   S    
C40   H23   S    
C76   O2    A    
C84   C85   A    
C3    C8    A    
C76   O26   A    
C52   H36   S    
C91   C92   A    
C68   C69   A    
C70   F2    S    
C25   C26   A    
C85   C86   A    
C48   H24   S    
C9    F11   S    
C64   F3    S    
C51   C52   A    
C60   C61   T    
C69   H38   S    
C64   C66   A    
C11   F13   S    
C12   C102  S    
C29   C30   A    
C26   F20   S    
C87   O3    A    
C1    O4    A    
C71   O21   A    
Cr5   O8    S    
C94   C100  A    
C55   F16   S    
Cr5   O11   S    
C20   C21   S    
Cr2   O19   S    
C31   C33   A    
C17   C18   A    
C73   C79   A    
C13   C21   A    
C50   C51   A    
C38   H1    S    
C65   O24   A    
C94   C96   A    
C92   H7    S    
C75   C77   S    
Cr2   O12   S    
C21   C107  A    
C11   C54   A    
C95   C107  A    
Cr3   O16   S    
C47   C54   S    
C13   F12   S    
C86   H2    S    
C40   C41   A    
C7    H32   S    
C11   C32   A    
C3    H11   S    
C35   O16   A    
C82   C84   A    
C22   C27   A    
Cr4   O5    S    
C45   C65   S    
C56   C62   A    
C23   C28   S    
C87   O23   A    
C98   O6    A    
C3    C4    A    
Cr4   O23   S    
C23   O15   A    
Cr4   O11   S    
C105  C106  A    
C88   C93   A    
C48   C49   A    
C15   F7    S    
C80   C98   S    
C33   C44   S    
C47   O19   A    
C16   H4    S    
C24   C28   A    
C108  F8    S    
C80   C81   A    
C53   C58   A    
Cr1   O1    S    
Cr3   O15   S    
C6    C7    A    
C104  F10   S    
C56   H25   S    
C30   F15   S    
C62   C87   S    
C29   C35   S    
C59   C63   S    
C84   C93   S    
C99   C100  A    
C39   C45   A    
C35   O1    A    
C81   H40   S    
C98   O7    A    
C68   H26   S    
Cr2   O22   S    
C34   H12   S    
C19   H35   S    
C57   C58   A    
C23   O14   A    
C106  C108  A    
C97   F6    S    
Cr6   O10   S    
Cr6   O2    S    
C92   C93   A    
C32   C43   A    
C33   C34   A    
C34   C36   A    
C2    O9    A    
C5    C43   S    
C102  C103  A    
C10   C54   A    
Cr3   O20   S    
C96   H8    S    
C63   C64   A    
C39   C40   A    
C80   C86   A    
C4    C5    A    
C12   O5    A    
C95   H17   S    
C88   C89   A    
C24   F1    S    
C49   C50   A    
C70   C75   A    
C50   C61   S    
C99   H3    S    
C70   C72   A    
C71   O17   A    
C89   C90   A    
C13   C14   A    
C97   C101  A    
Cr6   O9    S    
Cr3   O21   S    
C57   H37   S    
