data_mof_unit_47734.cif
_audit_creation_date              2012-12-10T19:42:34-0500
_audit_creation_method            fapswitch 2.2
_symmetry_space_group_name_H-M    P1
_symmetry_Int_Tables_number       1
_space_group_crystal_system       triclinic
_cell_length_a                    10.893581
_cell_length_b                    10.922937
_cell_length_c                    9.895892
_cell_angle_alpha                 99.211279
_cell_angle_beta                  99.596745
_cell_angle_gamma                 93.666376
_cell_volume                      1141.08093414

loop_
_atom_site_label
_atom_site_type_symbol
_atom_type_description
_atom_site_fract_x
_atom_site_fract_y
_atom_site_fract_z
_atom_type_partial_charge
C1    C     C_R   0.499234 0.261927 0.498703 0.796939
C2    C     C_R   0.500744 0.738071 0.501297 0.796914
C3    C     C_R   0.872477 0.502100 0.504916 -0.080002
C4    C     C_R   0.127521 0.497935 0.495069 -0.080018
C5    C     C_R   0.962646 0.549619 0.625823 -0.005007
C6    C     C_R   0.037349 0.450439 0.374148 -0.004985
C7    C     C_R   0.274317 0.043522 0.016169 -0.140536
C8    C     C_R   0.725411 0.956425 0.983911 -0.140573
C9    C     C_R   0.307272 0.027166 0.154204 -0.161194
C10   C     C_R   0.692526 0.972809 0.845881 -0.161182
C11   C     C_R   0.427421 0.070101 0.229895 0.123886
C12   C     C_R   0.572406 0.929878 0.770115 0.123932
C13   C     C_R   0.513691 0.129809 0.164915 -0.056663
C14   C     C_R   0.486090 0.870152 0.835017 -0.056655
C15   C     C_R   0.478669 0.149896 0.028386 -0.128952
C16   C     C_R   0.521042 0.850033 0.971542 -0.128946
C17   C     C_R   0.359530 0.105340 0.953684 -0.125144
C18   C     C_R   0.640152 0.894579 0.046314 -0.125215
C19   C     C_R   0.466927 0.913027 0.377767 -0.245874
C20   C     C_R   0.532996 0.086966 0.622236 -0.245832
C21   C     C_R   0.500288 0.872405 0.504694 -0.082097
C22   C     C_R   0.499650 0.127589 0.495307 -0.082091
C23   C     C_R   0.261858 0.497924 0.498407 0.802352
C24   C     C_R   0.738142 0.502090 0.501590 0.802394
C25   C     C_R   0.533761 0.961064 0.629526 -0.004123
C26   C     C_R   0.466144 0.038927 0.370479 -0.004110
C27   C     C_2   0.512168 0.509560 0.079445 -0.027013
C28   C     C_2   0.487837 0.490434 0.920553 -0.027022
C29   C     C_R   0.123491 0.419194 0.016285 -0.155669
C30   C     C_R   0.876606 0.581106 0.983730 -0.155653
C31   C     C_R   0.112399 0.470136 0.152063 -0.084517
C32   C     C_R   0.887684 0.530068 0.847979 -0.084560
C33   C     C_R   0.066478 0.394436 0.238093 0.126803
C34   C     C_R   0.933508 0.605704 0.761837 0.126798
C35   C     C_R   0.029415 0.267878 0.185175 -0.163542
C36   C     C_R   0.970446 0.732303 0.814591 -0.163525
C37   C     C_R   0.037977 0.218094 0.048399 -0.144937
C38   C     C_R   0.961873 0.782192 0.951330 -0.144946
C39   C     C_R   0.085160 0.293528 0.964063 -0.115390
C40   C     C_R   0.914825 0.706814 0.035799 -0.115333
C41   C     C_R   0.911436 0.453338 0.381392 -0.237846
C42   C     C_R   0.088560 0.546704 0.618590 -0.237855
Cu1   Cu    Cu3+1 0.521120 0.521140 0.639640 0.958559
Cu2   Cu    Cu3+1 0.478880 0.478860 0.360360 0.958538
H1    H     H_    0.090303 0.254773 0.857728 0.147400
H2    H     H_    0.909683 0.745648 0.142110 0.147330
H3    H     H_    0.608224 0.159534 0.219585 0.113507
H4    H     H_    0.391580 0.840431 0.780287 0.113461
H5    H     H_    0.545359 0.195994 0.978971 0.122101
H6    H     H_    0.454319 0.803922 0.020899 0.122102
H7    H     H_    0.441272 0.845996 0.281963 0.157488
H8    H     H_    0.558646 0.153996 0.718038 0.157494
H9    H     H_    0.624053 0.617461 0.903694 0.216293
H10   H     H_    0.375936 0.382552 0.096306 0.216291
H11   H     H_    0.158278 0.478199 0.950325 0.139820
H12   H     H_    0.841913 0.522146 0.049785 0.139895
H13   H     H_    0.136947 0.568901 0.189164 0.128434
H14   H     H_    0.863209 0.431281 0.810991 0.128459
H15   H     H_    0.990186 0.208901 0.248501 0.119414
H16   H     H_    0.009579 0.791237 0.751164 0.119436
H17   H     H_    0.006438 0.121382 0.007171 0.107992
H18   H     H_    0.993295 0.878943 0.992426 0.107975
H19   H     H_    0.843064 0.416252 0.288492 0.157125
H20   H     H_    0.156930 0.583799 0.711489 0.157112
H21   H     H_    0.334750 0.113928 0.845540 0.152171
H22   H     H_    0.664870 0.885962 0.154451 0.152193
H23   H     H_    0.183488 0.006349 0.956597 0.115482
H24   H     H_    0.816219 0.993591 0.043537 0.115484
H25   H     H_    0.240475 0.978003 0.200937 0.121687
H26   H     H_    0.759360 0.021982 0.799207 0.121657
N1    N     N_2   0.447120 0.447110 0.150550 -0.311105
N2    N     N_2   0.552880 0.552890 0.849450 -0.311086
O1    O     O_R   0.517830 0.337490 0.617920 -0.578287
O2    O     O_R   0.482170 0.662510 0.382080 -0.578303
O3    O     O_R   0.482150 0.301790 0.382070 -0.577100
O4    O     O_R   0.517850 0.698210 0.617930 -0.577080
O5    O     O_R   0.337480 0.517860 0.617920 -0.576374
O6    O     O_R   0.662520 0.482140 0.382080 -0.576374
O7    O     O_R   0.301810 0.482160 0.382070 -0.578708
O8    O     O_R   0.698190 0.517840 0.617930 -0.578693
C43   C     C_1   0.387738 0.400298 0.844956 0.328800
N3    N     N_1   0.307043 0.328815 0.782966 -0.356198
C44   C     C_1   0.612282 0.599681 0.155035 0.328794
N4    N     N_1   0.692992 0.671151 0.217014 -0.356195

loop_
_geom_bond_atom_site_label_1
_geom_bond_atom_site_label_2
_ccdc_geom_bond_type
Cu1   O1    S    
C30   C32   A    
C5    C42   A    
Cu1   N2    S    
C32   H14   S    
C43   N3    T    
C27   N1    D    
C40   H2    S    
C19   C21   A    
C9    H25   S    
C20   C25   A    
Cu2   N1    S    
C35   H15   S    
C19   C26   A    
C24   O8    A    
H10   N1    S    
C7    C17   A    
C6    C41   A    
C31   C33   A    
C2    O2    A    
C39   H1    S    
C1    C22   S    
C3    C24   S    
C28   N2    D    
C37   C39   A    
C1    O3    A    
C4    C6    A    
C13   H3    S    
C4    C23   S    
C14   H4    S    
C29   H11   S    
C11   C26   S    
C36   H16   S    
Cu1   O8    S    
C30   H12   S    
C8    C18   A    
C32   C34   A    
Cu2   O3    S    
Cu1   Cu2   S    
C44   N4    T    
C29   C31   A    
C5    C34   S    
C29   C39   A    
C2    C21   S    
C30   C40   A    
C23   O5    A    
Cu2   O2    S    
C9    C11   A    
C10   C12   A    
C10   H26   S    
C8    C10   A    
C12   C14   A    
C8    H24   S    
C13   C15   A    
C14   C16   A    
C18   H22   S    
C41   H19   S    
C42   H20   S    
C2    O4    A    
C24   O6    A    
Cu1   O4    S    
C7    C9    A    
C21   C25   A    
C3    C41   A    
C35   C37   A    
C28   C43   S    
Cu2   O7    S    
C20   C22   A    
C3    C5    A    
C37   H17   S    
C15   C17   A    
Cu1   O5    S    
C17   H21   S    
C6    C33   S    
C12   C25   S    
C1    O1    A    
C31   H13   S    
Cu2   O6    S    
C20   H8    S    
C38   C40   A    
C11   C13   A    
C4    C42   A    
C36   C38   A    
C33   C35   A    
C34   C36   A    
C15   H5    S    
C16   H6    S    
C7    H23   S    
C27   C44   S    
C19   H7    S    
C16   C18   A    
C22   C26   A    
C27   C28   S    
C23   O7    A    
H9    N2    S    
C38   H18   S    
