data_mof_unit_44835.cif
_audit_creation_date              2012-12-11T15:55:55-0500
_audit_creation_method            fapswitch 2.2
_symmetry_space_group_name_H-M    P1
_symmetry_Int_Tables_number       1
_space_group_crystal_system       triclinic
_cell_length_a                    11.001972
_cell_length_b                    11.028095
_cell_length_c                    18.773788
_cell_angle_alpha                 90.371884
_cell_angle_beta                  90.450389
_cell_angle_gamma                 59.563211
_cell_volume                      1963.85740025

loop_
_atom_site_label
_atom_site_type_symbol
_atom_type_description
_atom_site_fract_x
_atom_site_fract_y
_atom_site_fract_z
_atom_type_partial_charge
Br1   Br    Br    0.697332 0.836612 0.446800 -0.535725
C1    C     C_R   0.358151 0.772811 0.396716 0.539160
C2    C     C_R   0.230169 0.428891 0.200345 -0.149707
C3    C     C_R   0.230906 0.433554 0.273971 -0.033936
C4    C     C_R   0.385606 0.355964 0.387004 0.541761
C5    C     C_R   0.847944 0.729913 0.381783 0.148521
C6    C     C_R   0.841977 0.640074 0.330564 -0.064489
C7    C     C_R   0.965014 0.543240 0.293911 -0.129431
C8    C     C_R   0.093647 0.535812 0.308757 0.005623
C9    C     C_R   0.363401 0.350992 0.309821 0.000213
C10   C     C_R   0.846476 0.341824 0.180261 0.026147
C11   C     C_R   0.936425 0.267091 0.236084 -0.005986
C12   C     C_R   0.620674 0.183954 0.155499 0.051942
C13   C     C_R   0.892162 0.290190 0.305346 0.036763
C14   C     C_R   0.661704 0.471441 0.266684 -0.187131
C15   C     C_R   0.709264 0.450546 0.195886 -0.157681
C16   C     C_R   0.711027 0.416311 0.395193 0.546949
C17   C     C_3   0.032884 0.114943 0.246813 -0.265537
C18   C     C_3   0.982345 0.138284 0.323600 -0.264553
C19   C     C_R   0.753386 0.388223 0.321678 0.008743
C20   C     C_R   0.361087 0.824344 0.172914 0.004866
C21   C     C_R   0.454223 0.844937 0.215599 -0.005813
C22   C     C_R   0.452413 0.837970 0.290404 0.016420
C23   C     C_R   0.352401 0.340029 0.161321 -0.007605
C24   C     C_R   0.250636 0.810081 0.279324 -0.177835
C25   C     C_R   0.272507 0.786680 0.207114 -0.161988
C26   C     C_3   0.473872 0.967834 0.215384 -0.260951
C27   C     C_3   0.471132 0.963743 0.295347 -0.265810
C28   C     C_R   0.348056 0.761145 0.606811 0.548342
C29   C     C_R   0.345274 0.824967 0.323416 0.005595
C30   C     C_R   0.324471 0.330125 0.818181 0.016904
C31   C     C_R   0.445709 0.231878 0.781650 0.030896
C32   C     C_R   0.452957 0.238191 0.709761 0.035750
C33   C     C_R   0.231811 0.456420 0.707561 -0.158407
C34   C     C_R   0.487913 0.277291 0.269410 -0.147710
C35   C     C_R   0.223343 0.450608 0.781842 -0.170294
C36   C     C_3   0.523125 0.073660 0.779366 -0.271519
C37   C     C_3   0.530573 0.082848 0.699506 -0.272597
C38   C     C_R   0.342495 0.342575 0.670630 0.016409
C39   C     C_R   0.801903 0.343529 0.838275 0.014020
C40   C     C_R   0.371665 0.352466 0.597014 0.554311
C41   C     C_R   0.775931 0.465306 0.801487 0.034341
C42   C     C_R   0.765617 0.471212 0.728835 0.036416
C43   C     C_R   0.772755 0.250212 0.725643 -0.158212
C44   C     C_R   0.784494 0.242622 0.800578 -0.169292
C45   C     C_R   0.485524 0.270665 0.195370 -0.025688
C46   C     C_3   0.853897 0.545022 0.800539 -0.269085
C47   C     C_3   0.842104 0.549451 0.720524 -0.276772
C48   C     C_R   0.776912 0.359593 0.689029 0.012471
C49   C     C_R   0.316959 0.814831 0.831720 0.016600
C50   C     C_R   0.218572 0.796314 0.792785 0.024364
C51   C     C_R   0.227827 0.783397 0.719692 0.038130
C52   C     C_R   0.755009 0.380941 0.612577 0.546637
C53   C     C_R   0.446316 0.783096 0.722526 -0.162318
C54   C     C_R   0.439377 0.792150 0.796801 -0.162902
C55   C     C_3   0.061440 0.884350 0.789707 -0.275312
C56   C     C_R   0.086104 0.646194 0.346963 -0.101527
C57   C     C_3   0.072087 0.869314 0.709468 -0.276036
C58   C     C_R   0.334266 0.789635 0.682861 0.013933
C59   C     C_R   0.905845 0.317811 0.109990 0.544085
C60   C     C_R   0.328420 0.296097 0.091630 0.527983
C61   C     C_R   0.310101 0.894798 0.104169 0.539310
C62   C     C_R   0.878462 0.311993 0.906006 0.534463
C63   C     C_R   0.297952 0.290220 0.886838 0.543606
C64   C     C_R   0.846967 0.995012 0.069343 -0.062218
C65   C     C_R   0.277693 0.890138 0.899248 0.544225
C66   C     C_R   0.841556 0.961958 0.140411 -0.131529
C67   C     C_R   0.969075 0.738608 0.386805 -0.093524
C68   C     C_R   0.729672 0.055832 0.183474 -0.120083
C69   C     C_R   0.636435 0.222058 0.086183 -0.061701
C70   C     C_R   0.744524 0.125206 0.042371 -0.066465
Cr1   Cr    Cr6+3 0.601740 0.606840 0.505840 1.073177
Cr2   Cr    Cr6+3 0.291500 0.601560 0.495070 1.006467
Cr3   Cr    Cr6+3 0.606780 0.291630 0.499130 1.040724
Cr4   Cr    Cr6+3 0.062440 0.063060 0.008240 0.982130
Cr5   Cr    Cr6+3 0.062950 0.375000 0.998920 0.997595
Cr6   Cr    Cr6+3 0.374550 0.061770 0.992470 1.006314
H1    H     H_    0.589518 0.226761 0.295943 0.142509
H2    H     H_    0.151865 0.828639 0.299672 0.121808
H3    H     H_    0.747763 0.151049 0.987305 0.112884
H4    H     H_    0.196622 0.770957 0.177463 0.138210
H5    H     H_    0.382335 0.063973 0.192916 0.165156
H6    H     H_    0.577859 0.937907 0.192795 0.155499
H7    H     H_    0.573756 0.939554 0.318221 0.183407
H8    H     H_    0.378540 0.057504 0.319032 0.147717
H9    H     H_    0.151620 0.547502 0.679284 0.135821
H10   H     H_    0.135011 0.535019 0.809659 0.117352
H11   H     H_    0.455907 0.030373 0.795349 0.167705
H12   H     H_    0.743440 0.644541 0.320109 0.153539
H13   H     H_    0.628017 0.025698 0.805957 0.124848
H14   H     H_    0.639584 0.041593 0.679794 0.147054
H15   H     H_    0.973488 0.814908 0.421634 0.140938
H16   H     H_    0.467626 0.045496 0.669943 0.147057
H17   H     H_    0.792069 0.152860 0.827830 0.113784
H18   H     H_    0.964844 0.480754 0.818255 0.175565
H19   H     H_    0.793202 0.650439 0.825928 0.122629
H20   H     H_    0.775187 0.657314 0.699326 0.142207
H21   H     H_    0.945226 0.485909 0.693386 0.143941
H22   H     H_    0.536252 0.776567 0.696135 0.136460
H23   H     H_    0.960071 0.477883 0.253092 0.130672
H24   H     H_    0.522482 0.796659 0.825761 0.123687
H25   H     H_    0.024125 0.993247 0.807895 0.165950
H26   H     H_    0.931310 0.920576 0.035416 0.114177
H27   H     H_    0.009013 0.831517 0.814438 0.125172
H28   H     H_    0.026886 0.806600 0.687697 0.138615
H29   H     H_    0.038696 0.969998 0.681390 0.141206
H30   H     H_    0.922082 0.861917 0.161733 0.098112
H31   H     H_    0.724853 0.023311 0.237110 0.099138
H32   H     H_    0.177338 0.652445 0.345660 0.182045
H33   H     H_    0.558774 0.322585 0.064041 0.089531
H34   H     H_    0.554230 0.550689 0.278523 0.122872
H35   H     H_    0.129633 0.490603 0.173410 0.145531
H36   H     H_    0.766806 0.168324 0.696624 0.133263
H37   H     H_    0.638775 0.515233 0.153772 0.120013
H38   H     H_    0.144226 0.088025 0.241374 0.148266
H39   H     H_    0.001568 0.049603 0.215352 0.169431
H40   H     H_    0.919851 0.087575 0.336467 0.144632
H41   H     H_    0.066501 0.119461 0.362699 0.148964
O1    O     O_R   0.748670 0.497520 0.427970 -0.480085
O2    O     O_R   0.417470 0.174910 0.067830 -0.513507
O3    O     O_R   0.375160 0.946380 0.070880 -0.498036
O4    O     O_R   0.476470 0.723930 0.429450 -0.469571
O5    O     O_R   0.160500 0.919670 0.926690 -0.528363
O6    O     O_R   0.933140 0.190380 0.936050 -0.523592
O7    O     O_R   0.909010 0.403210 0.925030 -0.524952
O8    O     O_R   0.179590 0.361290 0.918480 -0.512927
O9    O     O_R   0.391360 0.170840 0.907510 -0.527338
O10   O     O_R   0.350950 0.942600 0.922260 -0.510955
O11   O     O_3   0.166650 0.166610 0.999880 -0.239302
O12   O     O_R   0.300170 0.471020 0.567120 -0.502509
O13   O     O_R   0.264730 0.744140 0.416740 -0.562059
O14   O     O_R   0.309440 0.472410 0.418220 -0.513354
O15   O     O_R   0.501630 0.260530 0.414310 -0.506697
O16   O     O_R   0.727920 0.305730 0.428950 -0.504574
O17   O     O_R   0.738670 0.496020 0.588600 -0.499920
O18   O     O_R   0.467190 0.722540 0.578350 -0.490152
O19   O     O_R   0.254720 0.742640 0.577370 -0.515931
O20   O     O_R   0.491630 0.259030 0.574940 -0.500456
O21   O     O_R   0.718640 0.304340 0.577850 -0.504809
O22   O     O_3   0.500010 0.500010 0.500020 -0.288168
O23   O     O_R   0.186620 0.923750 0.087000 -0.534893
O24   O     O_R   0.957350 0.194160 0.084660 -0.493868
O25   O     O_R   0.935120 0.407280 0.085350 -0.524625
O26   O     O_R   0.203800 0.365060 0.067090 -0.511663

loop_
_geom_bond_atom_site_label_1
_geom_bond_atom_site_label_2
_ccdc_geom_bond_type
C43   C48   A    
C20   C25   A    
Cr2   O13   S    
C23   C60   S    
C27   H7    S    
Cr5   O8    S    
C36   H11   S    
C52   O17   A    
Cr6   O2    S    
C62   O6    A    
C6    C7    A    
C38   C40   S    
C4    O15   A    
C47   H20   S    
Cr3   O20   S    
C32   C38   A    
C39   C62   S    
Cr2   O19   S    
C36   H13   S    
Cr4   O5    S    
Cr4   O24   S    
C17   C18   S    
C59   O25   A    
C40   O12   A    
Cr1   O18   S    
C10   C59   S    
C12   C69   A    
C14   C15   A    
C6    H12   S    
Cr3   O15   S    
C16   C19   S    
Cr1   O1    S    
C50   C55   S    
C33   H9    S    
C69   H33   S    
C59   O24   A    
Cr2   O12   S    
C33   C38   A    
C4    O14   A    
C56   H32   S    
C28   C58   S    
C18   H41   S    
C55   C57   S    
C7    C8    A    
C64   C66   A    
C46   H19   S    
C9    C34   A    
Cr4   O23   S    
C42   C47   S    
C8    C56   A    
Cr6   O9    S    
C39   C41   A    
Cr2   O14   S    
C52   O21   A    
C20   C21   A    
C60   O2    A    
Cr5   O7    S    
C2    C23   A    
C39   C44   A    
C44   H17   S    
C13   C18   S    
C21   C22   A    
C70   H3    S    
C68   H31   S    
C1    O13   A    
C53   C58   A    
C1    O4    A    
C35   H10   S    
C14   C19   A    
C50   C51   A    
C22   C29   A    
C14   H34   S    
C55   H27   S    
C17   H39   S    
C42   C48   A    
Cr1   O17   S    
C24   C25   A    
C64   C70   A    
Cr3   O22   S    
C37   H14   S    
Cr4   O6    S    
C66   C68   A    
C36   C37   S    
C51   C58   A    
C13   C19   A    
C10   C15   A    
C60   O26   A    
C46   C47   S    
C2    H35   S    
C63   O9    A    
Cr5   O11   S    
C49   C50   A    
C20   C61   S    
Cr6   O11   S    
C31   C36   S    
C49   C65   S    
C40   O20   A    
C69   C70   A    
Cr6   O10   S    
C51   C57   S    
Cr5   O26   S    
C11   C13   A    
C43   H36   S    
C25   H4    S    
C63   O8    A    
C21   C26   S    
C53   H22   S    
C62   O7    A    
C22   C27   S    
C41   C42   A    
C64   H26   S    
C61   O23   A    
C3    C9    A    
C2    C3    A    
C16   O16   A    
C47   H21   S    
C43   C44   A    
C24   C29   A    
C53   C54   A    
Br1   C5    S    
Cr1   O4    S    
C24   H2    S    
C30   C63   S    
C26   H5    S    
C30   C31   A    
C32   C37   S    
C15   H37   S    
C17   H38   S    
C10   C11   A    
C5    C6    A    
Cr2   O22   S    
C28   O19   A    
Cr3   O21   S    
C54   H24   S    
C34   H1    S    
C49   C54   A    
C1    C29   S    
C57   H28   S    
C23   C45   A    
C31   C32   A    
C26   H6    S    
C7    H23   S    
C55   H25   S    
C4    C9    S    
C66   H30   S    
C12   C45   S    
C12   C68   A    
C48   C52   S    
Cr3   O16   S    
C37   H16   S    
C5    C67   A    
C67   H15   S    
C65   O10   A    
C33   C35   A    
C41   C46   S    
Cr6   O3    S    
C16   O1    A    
C65   O5    A    
Cr5   O25   S    
Cr1   O22   S    
C28   O18   A    
C18   H40   S    
C11   C17   S    
C27   H8    S    
C46   H18   S    
C30   C35   A    
C56   C67   A    
C57   H29   S    
C3    C8    S    
C34   C45   A    
C61   O3    A    
Cr4   O11   S    
C26   C27   S    
