data_mof_unit_22156.cif
_audit_creation_date              2012-12-11T19:47:22-0500
_audit_creation_method            fapswitch 2.2
_symmetry_space_group_name_H-M    P1
_symmetry_Int_Tables_number       1
_space_group_crystal_system       triclinic
_cell_length_a                    8.756732
_cell_length_b                    15.259795
_cell_length_c                    18.777632
_cell_angle_alpha                 101.690663
_cell_angle_beta                  92.843247
_cell_angle_gamma                 98.496158
_cell_volume                      2421.95341674

loop_
_atom_site_label
_atom_site_type_symbol
_atom_type_description
_atom_site_fract_x
_atom_site_fract_y
_atom_site_fract_z
_atom_type_partial_charge
Ba1   Ba    Ba6+2 0.853520 0.540910 0.466490 1.899208
Ba2   Ba    Ba6+2 0.336320 0.459170 0.533520 1.812824
C1    C     C_3   0.748115 0.775896 0.163141 0.351258
C2    C     C_R   0.894582 0.419749 0.094308 -0.060718
C3    C     C_R   0.774627 0.449115 0.953044 -0.058020
C4    C     C_3   0.143302 0.802892 0.287131 0.426829
C5    C     C_R   0.933674 0.469189 0.976757 0.030279
C6    C     C_R   0.721435 0.455752 0.883698 -0.017684
C7    C     C_R   0.824262 0.481827 0.833906 0.003080
C8    C     C_R   0.980746 0.514791 0.859154 0.032809
C9    C     C_R   0.037233 0.505250 0.929973 0.034131
C10   C     C_R   0.777008 0.470455 0.758804 0.112276
C11   C     C_R   0.881395 0.498792 0.711149 -0.199299
C12   C     C_3   0.668353 0.741646 0.227028 0.707186
C13   C     C_R   0.031200 0.543530 0.736184 -0.035659
C14   C     C_R   0.082589 0.551585 0.811913 -0.050452
C15   C     C_R   0.152081 0.480007 0.067873 0.039536
C16   C     C_3   0.126700 0.877784 0.245302 -0.222897
C17   C     C_R   0.208905 0.475264 0.139724 0.042980
C18   C     C_R   0.105738 0.446331 0.189414 -0.023892
C19   C     C_R   0.951402 0.414000 0.163531 0.011643
C20   C     C_R   0.237341 0.582958 0.839523 -0.053993
C21   C     C_R   0.293701 0.571557 0.907230 -0.044538
C22   C     C_R   0.197616 0.528525 0.952216 0.015256
C23   C     C_3   0.605088 0.233608 0.300085 0.661058
C24   C     C_R   0.256283 0.510410 0.019247 0.041479
C25   C     C_R   0.416622 0.520064 0.039243 -0.024067
C26   C     C_R   0.368064 0.503056 0.162670 0.063344
C27   C     C_R   0.471300 0.516462 0.109575 0.002212
C28   C     C_3   0.272533 0.754602 0.745610 0.282035
C29   C     C_R   0.417764 0.518467 0.237980 0.128876
C30   C     C_R   0.313387 0.492931 0.286896 -0.186754
C31   C     C_R   0.159437 0.453736 0.263696 0.029107
C32   C     C_R   0.863920 0.165924 0.528686 0.046374
C33   C     C_R   0.800598 0.071126 0.519512 -0.111342
C34   C     C_3   0.648796 0.139923 0.299003 -0.241400
C35   C     C_R   0.650841 0.890787 0.523224 -0.104212
C36   C     C_R   0.794890 0.929465 0.561034 0.215505
C37   C     C_R   0.877700 0.008198 0.546994 0.168822
C38   C     C_R   0.577750 0.801131 0.524462 0.005942
C39   C     C_R   0.419421 0.777738 0.500422 0.124211
C40   C     C_3   0.189461 0.788273 0.812725 -0.394208
C41   C     C_R   0.617619 0.191114 0.470728 -0.061677
C42   C     C_R   0.556403 0.098146 0.462074 -0.004640
C43   C     C_R   0.644080 0.038923 0.489063 0.039900
C44   C     C_R   0.408678 0.062757 0.426938 -0.032572
C45   C     C_3   0.062951 0.239945 0.731757 0.638179
C46   C     C_R   0.343398 0.972845 0.421470 -0.050087
C47   C     C_R   0.419610 0.914164 0.453237 -0.010538
C48   C     C_R   0.572949 0.946964 0.486818 0.054904
C49   C     C_R   0.342020 0.827252 0.458620 -0.070610
C50   C     C_R   0.769490 0.223119 0.503968 -0.213754
C51   C     C_3   0.101838 0.250631 0.334880 0.238223
C52   C     C_3   0.078940 0.151509 0.293719 0.349344
C53   C     C_3   0.747672 0.671289 0.687031 0.321923
C54   C     C_3   0.760340 0.701072 0.769965 -0.336032
C55   C     C_3   0.113155 0.215203 0.806095 0.248361
C56   C     C_3   0.480895 0.239831 0.699406 0.333566
C57   C     C_3   0.440064 0.154896 0.732276 0.325755
C58   C     C_R   0.991362 0.456661 0.046071 0.017020
H1    H     H_    0.109179 0.732451 0.826728 0.085652
H2    H     H_    0.872551 0.775706 0.169337 -0.016313
H3    H     H_    0.826376 0.770875 0.787027 0.170296
H4    H     H_    0.820957 0.655930 0.796162 0.016031
H5    H     H_    0.642874 0.700315 0.789785 0.117195
H6    H     H_    0.702317 0.287959 0.324455 0.015304
H7    H     H_    0.543591 0.087985 0.294510 0.140094
H8    H     H_    0.715887 0.119728 0.251994 0.216383
H9    H     H_    0.724467 0.140673 0.347987 -0.025161
H10   H     H_    0.706536 0.726056 0.111497 0.054341
H11   H     H_    0.148975 0.855710 0.187239 0.166770
H12   H     H_    0.275686 0.818757 0.859841 0.144072
H13   H     H_    0.239430 0.232363 0.819653 -0.002579
H14   H     H_    0.070629 0.262453 0.851112 0.082327
H15   H     H_    0.574705 0.230868 0.663595 0.078199
H16   H     H_    0.381761 0.245187 0.662556 0.045745
H17   H     H_    0.315586 0.143774 0.732881 0.025081
H18   H     H_    0.842848 0.488566 0.653969 0.023785
H19   H     H_    0.598325 0.437354 0.869435 0.115048
H20   H     H_    0.870901 0.386162 0.197178 0.182400
H21   H     H_    0.321769 0.609031 0.807170 0.095459
H22   H     H_    0.595171 0.527933 0.122330 0.086385
H23   H     H_    0.121039 0.840642 0.801938 0.200264
H24   H     H_    0.353887 0.502639 0.343796 0.049382
H25   H     H_    0.687116 0.426241 0.986329 0.064660
H26   H     H_    0.773009 0.394710 0.080644 0.087658
H27   H     H_    0.414936 0.596823 0.922784 0.078432
H28   H     H_    0.265382 0.814180 0.307703 0.108781
H29   H     H_    0.502809 0.533510 0.002166 0.044393
H30   H     H_    0.225714 0.953257 0.398201 0.089081
H31   H     H_    0.338790 0.104679 0.404715 0.081507
H32   H     H_    0.815557 0.294395 0.510712 0.060414
H33   H     H_    0.010097 0.897316 0.248520 0.162907
H34   H     H_    0.096472 0.250753 0.393622 0.006991
H35   H     H_    0.211418 0.939720 0.269173 0.107928
H36   H     H_    0.366377 0.717349 0.756774 0.026064
H37   H     H_    0.333611 0.815991 0.729691 0.134865
H38   H     H_    0.143482 0.226003 0.121892 0.381738
H39   H     H_    0.314643 0.725847 0.114589 0.383085
H40   H     H_    0.549624 0.944759 0.098480 0.396082
H41   H     H_    0.682965 0.234647 0.110069 0.372740
H42   H     H_    0.754260 0.130568 0.650457 0.320788
H43   H     H_    0.126531 0.033063 0.725298 0.362361
H44   H     H_    0.178562 0.806921 0.593693 0.336966
H45   H     H_    0.215979 0.285322 0.323786 0.079022
H46   H     H_    0.970965 0.113409 0.307843 0.004193
H47   H     H_    0.176221 0.119901 0.311318 -0.033128
H48   H     H_    0.864245 0.665414 0.668278 0.014067
H49   H     H_    0.668721 0.605335 0.670583 0.022990
I1    I     I_    0.727485 0.828702 0.332820 -0.309135
I2    I     I_    0.183694 0.368206 0.748086 -0.362711
I3    I     I_    0.532147 0.164908 0.842614 -0.071851
I4    I     I_    0.464753 0.025057 0.669367 -0.367535
I5    I     I_    0.061005 0.670789 0.219719 -0.388489
I6    I     I_    0.845612 0.918937 0.670005 -0.226063
I7    I     I_    0.116915 0.006439 0.557463 -0.405969
O1    O     O_2   0.871960 0.437280 0.322960 -0.440261
O2    O     O_2   0.182558 0.189834 0.534018 -0.455326
O3    O     O_3   0.103061 0.186259 0.665653 -0.621654
O4    O     O_3   0.121410 0.444460 0.412450 -0.466977
O5    O     O_3   0.580430 0.613240 0.540320 -0.434294
O6    O     O_2   0.337390 0.273050 0.457610 -0.465924
O7    O     O_3   0.471409 0.244791 0.336944 -0.660268
O8    O     O_2   0.479183 0.486756 0.755111 -0.508935
O9    O     O_3   0.514406 0.318997 0.755880 -0.570558
O10   O     O_3   0.661450 0.607570 0.372550 -0.464811
O11   O     O_2   0.705118 0.501003 0.251922 -0.443574
O12   O     O_3   0.687144 0.737843 0.659066 -0.569016
O13   O     O_3   0.980783 0.292989 0.314911 -0.639678
O14   O     O_3   0.711350 0.654549 0.225937 -0.640242
O15   O     O_2   0.852310 0.726980 0.542430 -0.414379
O16   O     O_3   0.084010 0.657370 0.410280 -0.377475
O17   O     O_2   0.026378 0.814969 0.475123 -0.393306
O18   O     O_2   0.159071 0.062702 0.166166 -0.204075
O19   O     O_2   0.911769 0.117183 0.163400 -0.195236
O20   O     O_3   0.161615 0.235829 0.175612 -0.491061
O21   O     O_2   0.391472 0.697362 0.267361 -0.436989
O22   O     O_2   0.444929 0.839553 0.225013 -0.295838
O23   O     O_3   0.053206 0.812901 0.345819 -0.601990
O24   O     O_3   0.396934 0.691864 0.126571 -0.544325
O25   O     O_2   0.736621 0.953808 0.218364 -0.287625
O26   O     O_2   0.856179 0.915670 0.103582 -0.213295
O27   O     O_3   0.557267 0.880956 0.099738 -0.442322
O28   O     O_2   0.442452 0.162474 0.170961 -0.201155
O29   O     O_2   0.500068 0.328208 0.206419 -0.324300
O30   O     O_3   0.720335 0.239182 0.161550 -0.514586
O31   O     O_2   0.820834 0.288906 0.801990 -0.296039
O32   O     O_2   0.828643 0.300915 0.673724 -0.453846
O33   O     O_3   0.774851 0.140181 0.703529 -0.457772
O34   O     O_2   0.317750 0.562750 0.677090 -0.425416
O35   O     O_2   0.099364 0.111524 0.903962 -0.206127
O36   O     O_2   0.879314 0.078413 0.813744 -0.136630
O37   O     O_3   0.139725 0.025331 0.776006 -0.474898
O38   O     O_2   0.273824 0.613297 0.494317 -0.264638
O39   O     O_2   0.391625 0.700105 0.613276 -0.342197
O40   O     O_3   0.144275 0.743838 0.565924 -0.445469
O41   O     O_3   0.068300 0.555620 0.587560 -0.397407
O42   O     O_3   0.528270 0.392500 0.627460 -0.467813
O43   O     O_3   0.164928 0.708577 0.686828 -0.562849
O44   O     O_3   0.609290 0.386840 0.459690 -0.480693
O45   O     O_3   0.105700 0.342700 0.589730 -0.445060
P1    P     P_3+3 0.039430 0.410940 0.333230 1.025283
P2    P     P_3+3 0.676770 0.715000 0.563590 1.135937
P3    P     P_3+3 0.134617 0.776703 0.419158 1.106326
P4    P     P_3+3 0.150290 0.589140 0.666780 1.149481
P5    P     P_3+3 0.056769 0.223478 0.582124 1.062980
P6    P     P_3+3 0.614657 0.579051 0.276037 1.085994
P7    P     P_3+3 0.510804 0.272212 0.432166 0.915057
P8    P     P_3+3 0.578840 0.416360 0.721328 1.037131
S1    S     S_3+6 0.075591 0.139417 0.196752 0.042598
S2    S     S_3+6 0.468659 0.742230 0.211894 -0.127038
S3    S     S_3+6 0.727070 0.886051 0.147569 0.006969
S4    S     S_3+6 0.561615 0.241824 0.207723 -0.025745
S5    S     S_3+6 0.865684 0.246441 0.728524 -0.106817
S6    S     S_3+6 0.051938 0.105277 0.824859 0.048332
S7    S     S_3+6 0.307198 0.704915 0.543848 -0.055542

loop_
_geom_bond_atom_site_label_1
_geom_bond_atom_site_label_2
_ccdc_geom_bond_type
O39   S7    D    
Ba2   O34   S    
C53   C54   S    
C38   C39   A    
C36   I6    S    
C53   O12   S    
C25   C27   A    
C52   S1    S    
C17   C18   A    
Ba1   O16   S    
C57   H17   S    
O31   S5    D    
C56   H16   S    
C51   C52   S    
C42   C43   A    
O44   P7    S    
C5    C9    A    
C28   H37   S    
C24   C25   A    
C52   H47   S    
C15   C24   A    
C26   C27   A    
C22   C24   A    
O27   S3    S    
Ba1   Ba2   S    
C35   C38   A    
C36   C37   A    
C32   C33   A    
C41   C50   A    
Ba2   O5    S    
C2    H26   S    
C54   H5    S    
O5    P2    S    
O30   S4    S    
H38   O20   S    
C9    C22   A    
C4    H28   S    
O33   S5    S    
O19   S1    D    
C55   H13   S    
C4    O23   S    
C4    I5    S    
C28   H36   S    
C55   S6    S    
O36   S6    D    
O14   P6    S    
H43   O37   S    
O8    P8    D    
C15   C58   A    
C6    C7    A    
C47   C49   A    
O28   S4    D    
C6    H19   S    
C21   C22   A    
C54   H4    S    
O9    P8    S    
C7    C8    A    
O45   P5    S    
O4    P1    S    
C3    H25   S    
C45   O3    S    
C51   H34   S    
C21   H27   S    
C53   H49   S    
C16   H35   S    
C4    C16   S    
Ba2   O45   S    
C42   C44   A    
C56   H15   S    
Ba2   O6    S    
C28   O43   S    
C30   H24   S    
C44   C46   A    
H41   O30   S    
C34   H7    S    
O35   S6    D    
C52   H46   S    
C20   H21   S    
C1    H10   S    
O6    P7    D    
Ba1   O10   S    
C38   P2    S    
O10   P6    S    
O41   P4    S    
C3    C5    A    
Ba2   O4    S    
Ba2   O42   S    
C44   H31   S    
H42   O33   S    
C56   C57   S    
C41   P7    S    
O34   P4    D    
O2    P5    D    
O25   S3    D    
O32   S5    D    
O43   P4    S    
Ba1   O4    S    
C55   H14   S    
C33   C37   A    
C41   C42   A    
O16   P3    S    
C35   C36   A    
C51   H45   S    
C45   C55   S    
C29   C30   A    
C40   H1    S    
O15   P2    D    
C57   I4    S    
C2    C58   A    
C40   H12   S    
C57   I3    S    
C54   H3    S    
C49   P3    S    
Ba1   O1    S    
C18   C19   A    
C2    C19   A    
C17   C26   A    
C23   O7    S    
Ba2   P4    S    
C1    C12   S    
O7    P7    S    
O11   P6    D    
C46   C47   A    
C39   S7    S    
O20   S1    S    
Ba1   P1    S    
C47   C48   A    
O24   S2    S    
C11   C13   A    
H39   O24   S    
H44   O40   S    
C51   O13   S    
C18   C31   A    
C33   C43   A    
O17   P3    D    
C5    C58   A    
C34   H9    S    
O26   S3    D    
C12   O14   S    
C1    H2    S    
O3    P5    S    
C16   H11   S    
C12   I1    S    
C11   H18   S    
O40   S7    S    
C14   C20   A    
O22   S2    D    
C26   C29   A    
C13   P4    S    
C23   H6    S    
O29   S4    D    
C12   S2    S    
Ba1   O15   S    
H40   O27   S    
C3    C6    A    
C34   H8    S    
O42   P8    S    
C10   P8    S    
O1    P1    D    
O37   S6    S    
O23   P3    S    
C32   C50   A    
O38   S7    D    
C53   H48   S    
C30   C31   A    
Ba1   O41   S    
C31   P1    S    
C40   H23   S    
C27   H22   S    
C8    C14   A    
C35   C48   A    
Ba1   O44   S    
C43   C48   A    
Ba2   O41   S    
C45   I2    S    
C19   H20   S    
C15   C17   A    
O13   P1    S    
C25   H29   S    
O12   P2    S    
C1    S3    S    
C7    C10   A    
Ba1   O5    S    
O21   S2    D    
C45   S5    S    
C50   H32   S    
C8    C9    A    
C23   C34   S    
C23   S4    S    
C10   C11   A    
Ba1   P2    S    
C56   O9    S    
Ba2   O44   S    
C37   I7    S    
O18   S1    D    
C16   H33   S    
C20   C21   A    
C28   C40   S    
C46   H30   S    
C32   P5    S    
C39   C49   A    
C13   C14   A    
C29   P6    S    
