data_mof_unit_42467.cif
_audit_creation_date              2012-12-10T19:00:42-0500
_audit_creation_method            fapswitch 2.2
_symmetry_space_group_name_H-M    P1
_symmetry_Int_Tables_number       1
_space_group_crystal_system       triclinic
_cell_length_a                    15.120051
_cell_length_b                    10.826228
_cell_length_c                    9.525461
_cell_angle_alpha                 89.930572
_cell_angle_beta                  89.275944
_cell_angle_gamma                 90.241729
_cell_volume                      1559.112799

loop_
_atom_site_label
_atom_site_type_symbol
_atom_type_description
_atom_site_fract_x
_atom_site_fract_y
_atom_site_fract_z
_atom_type_partial_charge
C1    C     C_R   0.501467 0.262233 0.500000 0.796265
C2    C     C_R   0.908366 0.516168 0.374497 0.110144
C3    C     C_R   0.948054 0.455476 0.753131 -0.215248
C4    C     C_R   0.039885 0.452844 0.755310 -0.218346
C5    C     C_R   0.090069 0.472747 0.631416 0.046603
C6    C     C_R   0.045682 0.494895 0.503973 0.022548
C7    C     C_R   0.093714 0.514672 0.378040 0.108306
C8    C     C_R   0.049046 0.534765 0.251894 -0.197485
C9    C     C_R   0.956897 0.535232 0.250070 -0.216116
C10   C     C_R   0.183329 0.469144 0.631249 0.204836
C11   C     C_R   0.231065 0.493037 0.504768 -0.117420
C12   C     C_R   0.328407 0.497193 0.501265 0.833154
C13   C     C_R   0.185667 0.514494 0.379718 -0.308528
C14   C     C_R   0.514249 0.063338 0.625260 0.138612
C15   C     C_R   0.510241 0.129180 0.499395 -0.096804
C16   C     C_R   0.519051 0.064632 0.371953 -0.218217
C17   C     C_R   0.519114 0.935887 0.371824 -0.219711
C18   C     C_R   0.510424 0.870809 0.499132 -0.096103
C19   C     C_R   0.514267 0.936190 0.625089 0.120832
C20   C     C_3   0.455999 0.928833 0.752659 -0.461122
C21   C     C_3   0.456128 0.069042 0.753072 -0.488341
C22   C     C_R   0.530745 0.600275 0.072909 0.258690
C23   C     C_R   0.501624 0.737733 0.499828 0.800066
C24   C     C_R   0.461409 0.406812 0.075344 -0.090013
C25   C     C_R   0.461652 0.406693 0.926418 -0.068841
C26   C     C_R   0.530768 0.600222 0.925391 0.257926
C27   C     C_3   0.621739 0.653561 0.917363 -0.503229
C28   C     C_3   0.621732 0.653583 0.076688 -0.512450
C29   C     C_R   0.671325 0.499782 0.499304 0.816385
C30   C     C_R   0.816090 0.516647 0.373773 -0.246764
C31   C     C_R   0.767923 0.498340 0.498904 -0.072971
C32   C     C_R   0.812290 0.478257 0.625085 -0.250703
C33   C     C_R   0.904203 0.476728 0.627347 0.113625
C34   C     C_R   0.952778 0.496132 0.501975 0.080219
Cu1   Cu    Cu3+1 0.500000 0.499980 0.640670 0.951135
Cu2   Cu    Cu3+1 0.500000 0.500020 0.359330 0.938382
H1    H     H_    0.782057 0.531846 0.276075 0.144600
H2    H     H_    0.521401 0.888072 0.272068 0.158824
H3    H     H_    0.390063 0.887835 0.730545 0.200306
H4    H     H_    0.490527 0.888444 0.844094 0.191384
H5    H     H_    0.390230 0.109392 0.731583 0.191616
H6    H     H_    0.490998 0.109077 0.844543 0.193238
H7    H     H_    0.431441 0.330302 0.131672 0.138614
H8    H     H_    0.432416 0.329964 0.871333 0.143577
H9    H     H_    0.670817 0.588843 0.870976 0.213871
H10   H     H_    0.622558 0.747867 0.871185 0.193246
H11   H     H_    0.670534 0.588570 0.121066 0.210702
H12   H     H_    0.775391 0.462636 0.721846 0.149988
H13   H     H_    0.622665 0.747914 0.122504 0.190349
H14   H     H_    0.911261 0.440187 0.850074 0.139220
H15   H     H_    0.070389 0.434712 0.855164 0.149626
H16   H     H_    0.222032 0.531865 0.282780 0.171258
H17   H     H_    0.085416 0.549820 0.154535 0.136185
H18   H     H_    0.923620 0.550594 0.151490 0.139699
H19   H     H_    0.521439 0.112836 0.272252 0.161755
N1    N     N_R   0.500570 0.500930 0.147930 -0.183853
N2    N     N_R   0.500570 0.500890 0.852020 -0.182921
O1    O     O_R   0.500000 0.319640 0.618810 -0.584868
O2    O     O_R   0.500010 0.319680 0.381230 -0.592229
O3    O     O_R   0.370250 0.499950 0.618800 -0.542589
O4    O     O_R   0.370260 0.499990 0.381220 -0.592203
O5    O     O_R   0.499990 0.680320 0.618770 -0.581718
O6    O     O_R   0.500000 0.680360 0.381190 -0.586394
O7    O     O_R   0.629740 0.500010 0.618780 -0.589296
O8    O     O_R   0.629750 0.500050 0.381200 -0.585252
N3    N     N_2   0.229408 0.438225 0.756082 -0.404462
H20   H     H_    0.210973 0.487271 0.844299 0.238941
C35   C     C_3   0.238791 0.306934 0.779629 -0.686956
H21   H     H_    0.172922 0.262058 0.791562 0.222069
H22   H     H_    0.276449 0.290921 0.877127 0.208859
H23   H     H_    0.275153 0.264152 0.690199 0.225497

loop_
_geom_bond_atom_site_label_1
_geom_bond_atom_site_label_2
_ccdc_geom_bond_type
C8    H17   S    
N3    C35   S    
C11   C12   S    
C28   H11   S    
C6    C7    A    
C1    C15   S    
C24   N1    A    
Cu2   O6    S    
C11   C13   A    
C28   H13   S    
C19   C20   S    
C2    C30   A    
C27   H10   S    
Cu1   N2    S    
Cu2   O2    S    
C32   C33   A    
C27   H9    S    
C23   O6    A    
C17   C18   A    
C16   H19   S    
C5    C10   A    
C29   C31   S    
C22   C28   S    
C1    O1    A    
C24   C25   A    
C12   O4    A    
C32   H12   S    
C2    C34   A    
C26   C27   S    
Cu1   O7    S    
C10   N3    S    
C25   N2    A    
C35   H23   S    
C29   O8    A    
C5    C6    A    
C14   C21   S    
Cu2   N1    S    
C9    H18   S    
C3    H14   S    
C33   C34   A    
Cu1   O5    S    
C17   H2    S    
C1    O2    A    
Cu2   O4    S    
C30   C31   A    
C20   H4    S    
C26   N2    A    
C21   H5    S    
C29   O7    A    
C7    C8    A    
C10   C11   A    
C3    C33   A    
C4    H15   S    
C18   C23   S    
C13   H16   S    
C22   N1    A    
C6    C34   A    
C7    C13   A    
N3    H20   S    
C20   C21   S    
C25   H8    S    
C30   H1    S    
C35   H22   S    
C18   C19   A    
C22   C26   A    
C27   C28   S    
C24   H7    S    
C20   H3    S    
Cu2   O8    S    
Cu1   O3    S    
Cu1   O1    S    
C21   H6    S    
C23   O5    A    
C14   C15   A    
C2    C9    A    
C4    C5    A    
C14   C19   A    
C35   H21   S    
C31   C32   A    
C3    C4    A    
C15   C16   A    
C16   C17   A    
C8    C9    A    
Cu1   Cu2   S    
C12   O3    A    
