data_mof_unit_65483.cif
_audit_creation_date              2012-12-10T16:58:20-0500
_audit_creation_method            fapswitch 2.2
_symmetry_space_group_name_H-M    P1
_symmetry_Int_Tables_number       1
_space_group_crystal_system       triclinic
_cell_length_a                    21.750851
_cell_length_b                    21.730612
_cell_length_c                    22.209089
_cell_angle_alpha                 60.412251
_cell_angle_beta                  119.097682
_cell_angle_gamma                 89.720373
_cell_volume                      7550.42006528

loop_
_atom_site_label
_atom_site_type_symbol
_atom_type_description
_atom_site_fract_x
_atom_site_fract_y
_atom_site_fract_z
_atom_type_partial_charge
C1    C     C_R   0.620349 0.498207 0.503161 0.779925
C2    C     C_R   0.805374 0.293254 0.673021 -0.132948
C3    C     C_R   0.863691 0.291019 0.663340 -0.132614
C4    C     C_R   0.419810 0.580396 0.339737 0.811157
C5    C     C_R   0.866723 0.356357 0.605879 -0.168287
C6    C     C_R   0.810926 0.425660 0.556759 0.097650
C7    C     C_R   0.748783 0.426923 0.562299 0.096576
C8    C     C_R   0.689518 0.495003 0.507654 -0.096937
C9    C     C_R   0.694198 0.560855 0.452402 -0.188854
C10   C     C_R   0.756265 0.560180 0.449374 -0.198575
C11   C     C_R   0.814816 0.493575 0.501318 -0.095113
C12   C     C_3   0.291567 0.709640 0.082810 0.163135
C13   C     C_3   0.722197 0.194184 0.028669 -0.153620
C14   C     C_3   0.680158 0.279205 0.972008 -0.147934
C15   C     C_1   0.625187 0.373954 0.750264 -0.162995
C16   C     C_R   0.379092 0.502358 0.495545 0.792975
C17   C     C_1   0.874982 0.124367 0.249808 -0.164581
C18   C     C_3   0.750187 0.205310 0.972904 -0.156967
C19   C     C_3   0.708856 0.289632 0.917658 0.178009
C20   C     C_3   0.819966 0.217749 0.028122 -0.152861
C21   C     C_3   0.791267 0.207342 0.082461 0.179203
C22   C     C_3   0.777932 0.302754 0.971483 -0.151796
C23   C     C_3   0.178125 0.768273 0.972106 -0.187567
C24   C     C_3   0.749923 0.291652 0.027199 -0.151425
C25   C     C_1   0.662946 0.335794 0.825788 -0.059700
C26   C     C_1   0.837213 0.161723 0.174306 -0.061129
C27   C     C_R   0.254474 0.475572 0.384781 -0.175685
C28   C     C_R   0.580189 0.419554 0.660335 0.815038
C29   C     C_R   0.201006 0.451723 0.341159 0.131345
C30   C     C_R   0.143453 0.438420 0.354059 0.007534
C31   C     C_R   0.139823 0.452733 0.407571 -0.179123
C32   C     C_R   0.192229 0.479256 0.449510 0.083227
C33   C     C_R   0.252874 0.486159 0.441878 0.056931
C34   C     C_3   0.208951 0.791749 0.917197 0.044011
C35   C     C_R   0.309469 0.505425 0.490051 -0.109095
C36   C     C_R   0.301503 0.525593 0.537131 -0.213995
C37   C     C_R   0.240232 0.523233 0.541864 -0.022573
C38   C     C_R   0.185673 0.498674 0.499208 -0.120937
C39   C     C_R   0.998545 0.882734 0.497025 0.782635
C40   C     C_3   0.263064 0.712026 0.973826 0.032306
C41   C     C_R   0.080065 0.919785 0.660221 0.806745
C42   C     C_R   0.999440 0.118945 0.499185 0.777520
C43   C     C_R   0.919888 0.079911 0.339704 0.802774
C44   C     C_R   0.997109 0.619244 0.499566 0.792496
C45   C     C_3   0.237607 0.789627 0.027267 -0.140793
C46   C     C_R   0.881108 0.497505 0.500175 0.779092
C47   C     C_R   0.006140 0.380443 0.500850 0.777102
C48   C     C_R   0.119018 0.500188 0.499967 0.825986
C49   C     C_R   0.863628 0.879337 0.372131 -0.165279
C50   C     C_R   0.796662 0.874614 0.319587 0.233189
C51   C     C_R   0.793793 0.806234 0.329711 -0.143329
C52   C     C_3   0.323068 0.732736 0.028648 -0.267568
C53   C     C_R   0.857668 0.743819 0.389299 -0.219757
C54   C     C_R   0.926496 0.748385 0.440416 0.097990
C55   C     C_R   0.928444 0.815938 0.435016 0.051521
C56   C     C_3   0.267863 0.812628 0.971737 -0.074757
C57   C     C_R   0.995586 0.818492 0.491902 -0.084929
C58   C     C_R   0.060263 0.756880 0.548929 -0.184117
C59   C     C_R   0.059171 0.691899 0.551705 -0.181796
C60   C     C_R   0.993276 0.687094 0.497849 -0.091558
C61   C     C_R   0.106906 0.104965 0.651068 -0.216763
C62   C     C_R   0.166883 0.097210 0.720961 -0.095237
C63   C     C_R   0.185429 0.159636 0.717514 0.127118
C64   C     C_1   0.374882 0.625850 0.249951 -0.163029
C65   C     C_R   0.138949 0.232285 0.643466 -0.113101
C66   C     C_R   0.070727 0.241321 0.574776 0.021478
C67   C     C_1   0.337218 0.663814 0.174515 -0.027466
C68   C     C_R   0.059931 0.176075 0.576877 0.092510
C69   C     C_R   0.002223 0.182827 0.504496 -0.054426
C70   C     C_R   0.950461 0.251969 0.433656 -0.216873
C71   C     C_R   0.954805 0.315304 0.433707 -0.145776
C72   C     C_R   0.013119 0.311636 0.503225 -0.066882
C73   C     C_1   0.124866 0.875325 0.749964 -0.125877
C74   C     C_3   0.232716 0.687470 0.029332 -0.176124
C75   C     C_2   0.278598 0.666914 0.946201 0.838976
C76   C     C_3   0.208289 0.439273 0.283499 -0.771614
C77   C     C_2   0.086068 0.409632 0.313591 0.848844
C78   C     C_1   0.162654 0.837812 0.825373 0.004091
C79   C     C_2   0.234452 0.550567 0.588954 0.815673
C80   C     C_3   0.727922 0.941925 0.253070 -0.874074
C81   C     C_2   0.287944 0.882595 0.938919 0.847178
C82   C     C_3   0.257606 0.146576 0.791914 -0.790242
C83   C     C_2   0.171155 0.293837 0.633233 0.895437
C84   C     C_R   0.748372 0.360353 0.623230 -0.167461
Cu1   Cu    Cu3+1 0.500040 0.438210 0.499990 0.970117
Cu2   Cu    Cu3+1 0.499960 0.561790 0.500010 0.978985
Cu3   Cu    Cu3+1 0.061810 0.999860 0.500010 0.995698
Cu4   Cu    Cu3+1 0.938190 0.999990 0.499990 0.967631
Cu5   Cu    Cu3+1 0.958570 0.541460 0.417120 0.966043
Cu6   Cu    Cu3+1 0.041430 0.458560 0.582880 1.020824
H1    H     H_    0.382793 0.718061 0.052232 0.159351
H2    H     H_    0.749821 0.170266 0.949620 0.138138
H3    H     H_    0.344544 0.541944 0.572264 0.180483
H4    H     H_    0.296563 0.487397 0.372004 0.156880
H5    H     H_    0.095523 0.442195 0.416599 0.198205
H6    H     H_    0.111698 0.758720 0.592482 0.161916
H7    H     H_    0.864675 0.933123 0.362398 0.145265
H8    H     H_    0.741953 0.801346 0.290788 0.144885
H9    H     H_    0.851934 0.692070 0.395325 0.153883
H10   H     H_    0.110359 0.645266 0.595617 0.174578
H11   H     H_    0.906132 0.256831 0.378139 0.140271
H12   H     H_    0.907093 0.238518 0.700956 0.140429
H13   H     H_    0.097253 0.054389 0.655994 0.132976
H14   H     H_    0.201418 0.041436 0.776808 0.194221
H15   H     H_    0.911297 0.367644 0.378794 0.166874
H16   H     H_    0.227695 0.821371 0.050164 0.159038
H17   H     H_    0.118374 0.783081 0.948336 0.154010
H18   H     H_    0.218757 0.635192 0.053878 0.149268
H19   H     H_    0.649001 0.613016 0.410468 0.157081
H20   H     H_    0.704906 0.359398 0.634032 0.146680
H21   H     H_    0.803993 0.242662 0.718912 0.138377
H22   H     H_    0.257490 0.661121 0.850453 0.338502
H23   H     H_    0.912589 0.351505 0.599822 0.149111
H24   H     H_    0.259079 0.448535 0.285040 0.213733
H25   H     H_    0.211935 0.380819 0.302711 0.252273
H26   H     H_    0.159825 0.478909 0.217990 0.256015
H27   H     H_    0.009413 0.358032 0.315670 0.337530
H28   H     H_    0.239867 0.632153 0.608735 0.329613
H29   H     H_    0.738488 0.992181 0.252340 0.232208
H30   H     H_    0.708216 0.954023 0.190709 0.234729
H31   H     H_    0.683608 0.930866 0.264562 0.240447
H32   H     H_    0.319125 0.857936 0.879386 0.302392
H33   H     H_    0.289220 0.086070 0.840580 0.261106
H34   H     H_    0.759067 0.612247 0.406979 0.145930
H35   H     H_    0.293739 0.173041 0.772118 0.246802
H36   H     H_    0.246327 0.169660 0.821583 0.226856
H37   H     H_    0.174979 0.292880 0.726387 0.289693
H38   H     H_    0.622173 0.304956 0.947986 0.144200
H39   H     H_    0.699789 0.149018 0.053202 0.139354
H40   H     H_    0.750288 0.326708 0.050468 0.140446
H41   H     H_    0.800405 0.347877 0.947033 0.142148
H42   H     H_    0.877952 0.191995 0.052151 0.141090
O1    O     O_R   0.590210 0.447820 0.500000 -0.585080
O2    O     O_R   0.034940 0.555150 0.570020 -0.563970
O3    O     O_R   0.874830 0.535020 0.430000 -0.590306
O4    O     O_R   0.590150 0.552170 0.500020 -0.581333
O5    O     O_R   0.944810 0.465010 0.569970 -0.588967
O6    O     O_R   0.965060 0.444870 0.429980 -0.581216
O7    O     O_R   0.035040 0.374860 0.569950 -0.612502
O8    O     O_R   0.055190 0.535000 0.430030 -0.609538
O9    O     O_R   0.125170 0.465000 0.570000 -0.486350
O10   O     O_R   0.439580 0.508290 0.379070 -0.582291
O11   O     O_R   0.439510 0.612640 0.379090 -0.575897
O12   O     O_R   0.947780 0.909820 0.499990 -0.584548
O13   O     O_R   0.409850 0.447830 0.499980 -0.583015
O14   O     O_R   0.409790 0.552180 0.500000 -0.579999
O15   O     O_R   0.560490 0.387360 0.620910 -0.583541
O16   O     O_R   0.560420 0.491710 0.620930 -0.574423
O17   O     O_R   0.052170 0.909710 0.500000 -0.577899
O18   O     O_2   0.323238 0.603708 0.998685 -0.581585
O19   O     O_R   0.242244 0.697056 0.860986 -0.765315
O20   O     O_2   0.071893 0.416527 0.249729 -0.598848
O21   O     O_R   0.046998 0.375130 0.348473 -0.762645
O22   O     O_2   0.225337 0.511888 0.644733 -0.554168
O23   O     O_R   0.112650 0.939420 0.620930 -0.569488
O24   O     O_R   0.243694 0.619642 0.572075 -0.762229
O25   O     O_2   0.280434 0.926539 0.955748 -0.567178
O26   O     O_R   0.315241 0.898139 0.889321 -0.741054
O27   O     O_2   0.181242 0.324422 0.577279 -0.580638
O28   O     O_R   0.193317 0.315336 0.688575 -0.690046
O29   O     O_R   0.008260 0.939530 0.620910 -0.578530
O30   O     O_R   0.052220 0.090030 0.500010 -0.569411
O31   O     O_R   0.947830 0.090140 0.500000 -0.585009
O32   O     O_R   0.991740 0.060320 0.379090 -0.572580
O33   O     O_R   0.887350 0.060430 0.379070 -0.589007
O34   O     O_R   0.964960 0.625150 0.430050 -0.590911

loop_
_geom_bond_atom_site_label_1
_geom_bond_atom_site_label_2
_ccdc_geom_bond_type
C66   C68   A    
Cu3   Cu4   S    
C80   H30   S    
C34   C56   S    
Cu5   O3    S    
C12   C74   S    
C22   H41   S    
C27   C29   A    
C1    C8    S    
C2    C84   A    
C35   C36   A    
C21   C26   S    
C4    O11   A    
C63   C65   A    
Cu6   O7    S    
C15   C28   S    
C70   H11   S    
C7    C8    A    
C29   C76   S    
C54   C60   A    
Cu1   Cu2   S    
C27   C33   A    
C37   C79   S    
C37   C38   A    
C13   C18   S    
C23   C45   S    
C17   C26   T    
C22   C24   S    
C36   C37   A    
C61   H13   S    
Cu1   O13   S    
C11   C46   S    
C10   H34   S    
C16   C35   S    
C4    O10   A    
C30   C31   A    
Cu6   O2    S    
C65   C83   S    
C75   O18   D    
Cu4   O29   S    
C39   C57   S    
C76   H25   S    
C14   H38   S    
C16   O14   A    
C18   C19   S    
C14   C24   S    
C58   H6    S    
C82   H36   S    
C77   O21   S    
C46   O3    A    
C30   C77   S    
C36   H3    S    
C66   C72   A    
C83   O28   S    
C45   C56   S    
C75   O19   S    
C8    C9    A    
C76   H24   S    
C73   C78   T    
H28   O24   S    
C70   C71   A    
C32   C38   A    
C1    O4    A    
C9    C10   A    
C38   C48   S    
C43   O32   A    
Cu5   O8    S    
C51   H8    S    
Cu3   O32   S    
C79   O24   S    
C80   H29   S    
C59   C60   A    
C13   C14   S    
C9    H19   S    
C59   H10   S    
C69   C70   A    
C20   H42   S    
C1    O1    A    
Cu2   O14   S    
C77   O20   D    
C12   C52   S    
Cu2   O11   S    
C62   H14   S    
C80   H31   S    
C43   O33   A    
C44   O2    A    
C47   C72   S    
C12   C67   S    
C2    H21   S    
C28   O16   A    
C81   O25   D    
C48   O8    A    
C63   C82   S    
Cu5   O6    S    
C64   C67   T    
C56   C81   S    
C19   C22   S    
C6    C11   A    
C42   O31   A    
C68   C69   A    
C58   C59   A    
C40   C52   S    
C41   C73   S    
C42   C69   S    
C53   H9    S    
Cu2   O16   S    
C16   O13   A    
C51   C53   A    
C17   C43   S    
C82   H35   S    
C62   C63   A    
C33   C35   A    
C31   C32   A    
C29   C30   A    
C23   C34   S    
C23   H17   S    
C50   C51   A    
H32   O26   S    
H22   O19   S    
C13   C21   S    
C44   O34   A    
C20   C21   S    
C41   O29   A    
C46   O5    A    
C3    H12   S    
Cu2   O4    S    
C20   C22   S    
Cu4   O33   S    
C55   C57   A    
H27   O21   S    
Cu3   O23   S    
C23   C74   S    
C82   H33   S    
Cu6   O5    S    
C45   H16   S    
C39   O17   A    
C54   C55   A    
C28   O15   A    
C81   O26   S    
C5    H23   S    
C14   C19   S    
Cu1   O15   S    
C12   C45   S    
C3    C5    A    
C50   C80   S    
Cu1   O10   S    
C42   O30   A    
C53   C54   A    
C6    C7    A    
Cu4   O31   S    
C4    C64   S    
C40   C75   S    
C18   H2    S    
C32   C33   A    
C71   H15   S    
C2    C3    A    
C27   H4    S    
C71   C72   A    
C49   C55   A    
C34   C78   S    
C79   O22   D    
C61   C68   A    
C57   C58   A    
C5    C6    A    
C44   C60   S    
C31   H5    S    
C47   O6    A    
C76   H26   S    
C40   C74   S    
C48   O9    A    
C7    C84   A    
C18   C20   S    
C65   C66   A    
C61   C62   A    
C19   C25   S    
C84   H20   S    
Cu5   O34   S    
Cu6   O9    S    
C15   C25   T    
C10   C11   A    
C74   H18   S    
C24   H40   S    
Cu3   O30   S    
C83   O27   D    
C39   O12   A    
C49   C50   A    
Cu3   O17   S    
C21   C24   S    
C47   O7    A    
C13   H39   S    
C34   C40   S    
C52   H1    S    
Cu5   Cu6   S    
H37   O28   S    
Cu4   O12   S    
C52   C56   S    
Cu1   O1    S    
C41   O23   A    
C49   H7    S    
