data_mof_unit_50114.cif
_audit_creation_date              2012-12-10T16:52:08-0500
_audit_creation_method            fapswitch 2.2
_symmetry_space_group_name_H-M    P1
_symmetry_Int_Tables_number       1
_space_group_crystal_system       triclinic
_cell_length_a                    7.777124
_cell_length_b                    8.698641
_cell_length_c                    14.819512
_cell_angle_alpha                 91.395988
_cell_angle_beta                  85.490111
_cell_angle_gamma                 93.539981
_cell_volume                      997.343248316

loop_
_atom_site_label
_atom_site_type_symbol
_atom_type_description
_atom_site_fract_x
_atom_site_fract_y
_atom_site_fract_z
_atom_type_partial_charge
Br1   Br    Br    0.755476 0.761116 0.243547 -0.383072
Br2   Br    Br    0.357425 0.188558 0.752802 -0.393442
Br3   Br    Br    0.638970 0.991217 0.099844 -0.368868
Br4   Br    Br    0.053278 0.203132 0.910448 -0.325711
C1    C     C_R   0.545145 0.793843 0.496594 0.881499
C2    C     C_R   0.567702 0.630013 0.810457 -0.218724
C3    C     C_R   0.492637 0.515620 0.231586 -0.110396
C4    C     C_R   0.499831 0.498591 0.768760 -0.126688
C5    C     C_R   0.577320 0.639673 0.184551 0.236805
C6    C     C_R   0.405043 0.381914 0.816905 0.254121
C7    C     C_R   0.546328 0.657130 0.093031 -0.011573
C8    C     C_R   0.370957 0.401888 0.910762 -0.007039
C9    C     C_R   0.453598 0.534484 0.049040 0.013697
C10   C     C_R   0.457430 0.528084 0.954735 0.004597
C11   C     C_R   0.363126 0.414399 0.099159 0.031898
C12   C     C_R   0.454994 0.206001 0.501841 0.902086
C13   C     C_R   0.551414 0.645791 0.904212 0.026769
C14   C     C_R   0.605667 0.789431 0.042983 0.257406
C15   C     C_R   0.252570 0.302945 0.962213 0.292347
C16   C     C_2   0.696806 0.912392 0.895197 1.009512
C17   C     C_2   0.140686 0.188653 0.109136 1.005872
C18   C     C_2   0.747394 0.013798 0.519389 1.092551
C19   C     C_2   0.255427 0.985579 0.473412 1.079854
C20   C     C_R   0.617153 0.780322 0.948048 -0.101867
C21   C     C_R   0.254758 0.303410 0.056528 -0.116490
C22   C     C_2   0.569505 0.955683 0.500325 -0.394882
C23   C     C_2   0.431981 0.044144 0.494427 -0.388367
C24   C     C_R   0.500936 0.498099 0.672898 0.921967
C25   C     C_R   0.498987 0.504388 0.327026 0.911712
C26   C     C_R   0.383209 0.408443 0.190919 -0.186608
H1    H     H_    0.320355 0.316341 0.231664 0.168038
H2    H     H_    0.630945 0.719834 0.768169 0.163330
H3    H     H_    0.014016 0.382346 0.432339 0.226555
H4    H     H_    0.985999 0.617740 0.567606 0.220835
H5    H     H_    0.681025 0.132088 0.857747 0.374706
H6    H     H_    0.062157 0.965167 0.126170 0.388093
H7    H     H_    0.694225 0.009254 0.654663 0.312311
H8    H     H_    0.321154 0.965710 0.339537 0.311468
N1    N     N_2   0.950330 0.457950 0.475660 -0.136166
N2    N     N_2   0.049670 0.542050 0.524340 -0.141637
O1    O     O_R   0.389250 0.738570 0.505970 -0.603642
O2    O     O_R   0.615234 0.051271 0.897250 -0.727861
O3    O     O_2   0.041094 0.231067 0.171500 -0.574199
O4    O     O_R   0.145574 0.032169 0.085821 -0.718322
O5    O     O_2   0.853805 0.042593 0.456165 -0.492544
O6    O     O_R   0.793210 0.037169 0.608208 -0.709305
O7    O     O_2   0.143323 0.967987 0.535227 -0.485435
O8    O     O_R   0.217556 0.947346 0.384717 -0.721057
O9    O     O_R   0.610750 0.261430 0.494030 -0.603727
O10   O     O_R   0.678390 0.711620 0.490370 -0.605296
O11   O     O_R   0.321610 0.288380 0.509630 -0.603728
O12   O     O_R   0.355420 0.513510 0.639950 -0.586794
O13   O     O_R   0.644580 0.486490 0.360050 -0.567383
O14   O     O_R   0.644560 0.486560 0.624350 -0.619402
O15   O     O_R   0.355440 0.513440 0.375650 -0.625888
O16   O     O_2   0.832696 0.898594 0.849168 -0.552089
Zn1   Zn    Zn3+2 0.306940 0.517990 0.510420 1.055663
Zn2   Zn    Zn3+2 0.693060 0.482010 0.489580 1.064512

loop_
_geom_bond_atom_site_label_1
_geom_bond_atom_site_label_2
_ccdc_geom_bond_type
C16   O2    S    
O13   Zn2   S    
C7    C14   A    
C3    C25   S    
C19   C23   S    
C17   O4    S    
C24   O12   A    
C2    H2    S    
Br4   C15   S    
C12   O11   A    
C16   O16   D    
C5    C7    A    
C12   C23   S    
C9    C11   A    
O1    Zn1   S    
C3    C26   A    
C9    C10   A    
C19   O8    S    
C17   C21   S    
C7    C9    A    
C10   C13   A    
C22   C23   D    
H3    N1    S    
C6    C8    A    
C11   C26   A    
H4    N2    S    
C2    C4    A    
C8    C15   A    
C18   O6    S    
C8    C10   A    
O15   Zn1   S    
O14   Zn2   S    
C26   H1    S    
C4    C24   S    
C14   C20   A    
C1    O10   A    
H6    O4    S    
C13   C20   A    
C11   C21   A    
O12   Zn1   S    
C19   O7    D    
C15   C21   A    
C1    C22   S    
Br2   C6    S    
O11   Zn1   S    
C18   O5    D    
Br1   C5    S    
C12   O9    A    
Br3   C14   S    
C4    C6    A    
H5    O2    S    
C18   C22   S    
N1    N2    D    
C3    C5    A    
C2    C13   A    
C24   O14   A    
C1    O1    A    
N2    Zn1   S    
C25   O15   A    
H7    O6    S    
C17   O3    D    
N1    Zn2   S    
H8    O8    S    
O9    Zn2   S    
C16   C20   S    
C25   O13   A    
O10   Zn2   S    
