data_mof_unit_48369.cif
_audit_creation_date              2012-12-10T19:08:06-0500
_audit_creation_method            fapswitch 2.2
_symmetry_space_group_name_H-M    P1
_symmetry_Int_Tables_number       1
_space_group_crystal_system       triclinic
_cell_length_a                    9.065716
_cell_length_b                    10.857372
_cell_length_c                    9.593584
_cell_angle_alpha                 90.352934
_cell_angle_beta                  90.480148
_cell_angle_gamma                 90.85282
_cell_volume                      944.138638086

loop_
_atom_site_label
_atom_site_type_symbol
_atom_type_description
_atom_site_fract_x
_atom_site_fract_y
_atom_site_fract_z
_atom_type_partial_charge
C1    C     C_R   0.500433 0.262851 0.499605 0.798027
C2    C     C_R   0.517312 0.934835 0.372020 -0.205691
C3    C     C_R   0.504365 0.869899 0.498677 -0.101765
C4    C     C_R   0.494195 0.938699 0.620329 0.117988
C5    C     C_3   0.473137 0.930638 0.773864 -0.463939
C6    C     C_3   0.472065 0.072465 0.773371 -0.406576
C7    C     C_R   0.564591 0.594828 0.075227 0.221889
C8    C     C_R   0.420879 0.413372 0.070925 0.067955
C9    C     C_R   0.421852 0.414782 0.922476 -0.010107
C10   C     C_R   0.568697 0.592590 0.928683 0.223499
C11   C     C_3   0.728650 0.632105 0.930222 -0.277728
C12   C     C_R   0.220839 0.499876 0.499627 0.836638
C13   C     C_3   0.719974 0.639910 0.088586 -0.491903
C14   C     C_R   0.501087 0.737169 0.500114 0.795006
C15   C     C_R   0.779150 0.500127 0.500364 0.843978
C16   C     C_1   0.065589 0.499944 0.499479 -0.183479
C17   C     C_1   0.934386 0.500036 0.500454 -0.192651
C18   C     C_R   0.493424 0.062699 0.619912 0.108842
C19   C     C_R   0.503366 0.130203 0.497931 -0.102326
C20   C     C_R   0.516891 0.064052 0.371677 -0.185500
Cu1   Cu    Cu3+1 0.499990 0.499980 0.640670 0.962448
Cu2   Cu    Cu3+1 0.500010 0.500020 0.359330 0.944170
H1    H     H_    0.526551 0.111309 0.273023 0.194123
H2    H     H_    0.747061 0.723155 0.880504 0.113169
H3    H     H_    0.792306 0.574799 0.144959 0.238854
H4    H     H_    0.726030 0.736096 0.128838 0.170934
H5    H     H_    0.526973 0.886579 0.273435 0.168809
H6    H     H_    0.365005 0.888107 0.801230 0.205080
H7    H     H_    0.570568 0.891979 0.828167 0.192924
H8    H     H_    0.363120 0.111367 0.800116 0.221805
H9    H     H_    0.568714 0.115802 0.827488 0.220494
H10   H     H_    0.359711 0.346339 0.863113 0.167122
N1    N     N_R   0.500920 0.500930 0.147930 -0.219648
N2    N     N_R   0.500930 0.500890 0.852020 -0.197323
O1    O     O_R   0.500000 0.319640 0.618810 -0.574891
O2    O     O_R   0.500020 0.319680 0.381230 -0.607688
O3    O     O_R   0.288380 0.499980 0.618770 -0.582602
O4    O     O_R   0.288400 0.500020 0.381190 -0.609199
O5    O     O_R   0.499980 0.680320 0.618770 -0.589656
O6    O     O_R   0.500000 0.680360 0.381190 -0.586096
O7    O     O_R   0.711600 0.499980 0.618810 -0.569071
O8    O     O_R   0.711620 0.500020 0.381230 -0.574523
C21   C     C_2   0.330580 0.315399 0.137035 0.357623
H11   H     H_    0.284077 0.326753 0.238838 0.137552
O9    O     O_2   0.303598 0.218780 0.075376 -0.590255
C22   C     C_2   0.835990 0.535747 0.883376 0.493493
H12   H     H_    0.931637 0.563508 0.823361 0.049043
O10   O     O_2   0.819163 0.427515 0.914560 -0.528848

loop_
_geom_bond_atom_site_label_1
_geom_bond_atom_site_label_2
_ccdc_geom_bond_type
C7    C10   A    
C21   H11   S    
C20   H1    S    
C2    H5    S    
Cu1   O1    S    
C5    H6    S    
C11   C13   S    
C1    O1    A    
C19   C20   A    
Cu1   O5    S    
C8    C21   S    
Cu2   O6    S    
C6    H9    S    
C4    C18   A    
C10   N2    A    
Cu1   Cu2   S    
C21   O9    D    
C13   H3    S    
Cu2   O8    S    
C3    C14   S    
Cu1   O7    S    
C5    C6    S    
C15   O8    A    
C6    H8    S    
C2    C3    A    
C5    H7    S    
C8    N1    A    
C12   O4    A    
C9    N2    A    
C6    C18   S    
C22   O10   D    
C13   H4    S    
C1    C19   S    
C16   C17   T    
C10   C11   S    
C7    N1    A    
C2    C20   A    
C3    C4    A    
Cu2   O4    S    
C11   H2    S    
C7    C13   S    
Cu1   O3    S    
C15   O7    A    
C18   C19   A    
C12   O3    A    
C15   C17   S    
Cu2   N1    S    
C22   H12   S    
C8    C9    A    
C11   C22   S    
Cu1   N2    S    
C9    H10   S    
C14   O5    A    
C14   O6    A    
Cu2   O2    S    
C12   C16   S    
C1    O2    A    
C4    C5    S    
