data_mof_unit_60256.cif
_audit_creation_date              2012-10-26T18:58:00-0400
_audit_creation_method            fapswitch 2.2
_symmetry_space_group_name_H-M    P1
_symmetry_Int_Tables_number       1
_space_group_crystal_system       monoclinic
_cell_length_a                    15.115631
_cell_length_b                    13.866764
_cell_length_c                    15.991295
_cell_angle_alpha                 90.0
_cell_angle_beta                  90.16781
_cell_angle_gamma                 90.0
_cell_volume                      3351.83921783

loop_
_atom_site_label
_atom_site_type_symbol
_atom_type_description
_atom_site_fract_x
_atom_site_fract_y
_atom_site_fract_z
_atom_type_partial_charge
C1    C     C_R   0.329879 0.500008 0.499963 0.559384
C2    C     C_R   0.432817 0.790643 0.462222 0.078495
C3    C     C_R   0.457786 0.209382 0.437804 0.073933
C4    C     C_R   0.567183 0.790643 0.537778 0.078494
C5    C     C_R   0.500000 0.054691 0.500000 0.025044
C6    C     C_R   0.500000 0.945333 0.500000 0.027146
C7    C     C_R   0.499923 0.499996 0.341189 0.551337
C8    C     C_R   0.500077 0.499996 0.658811 0.551337
C9    C     C_R   0.500010 0.587568 0.956337 0.379924
C10   C     C_R   0.499989 0.412341 0.043664 0.379090
C11   C     C_R   0.499948 0.587568 0.043663 0.379923
C12   C     C_R   0.670121 0.500008 0.500037 0.559384
C13   C     C_R   0.500052 0.412341 0.956336 0.379090
C14   C     C_R   0.500062 0.499956 0.912644 -0.076310
C15   C     C_R   0.499937 0.499956 0.087356 -0.076310
C16   C     C_1   0.500095 0.499963 0.823043 0.104988
C17   C     C_1   0.499905 0.499963 0.176957 0.104988
C18   C     C_1   0.499901 0.499980 0.252036 0.054944
C19   C     C_1   0.500099 0.499980 0.747963 0.054944
C20   C     C_R   0.094960 0.577537 0.464276 0.401643
C21   C     C_R   0.904867 0.422745 0.464278 0.400002
C22   C     C_R   0.905040 0.577537 0.535724 0.401643
C23   C     C_R   0.048501 0.500162 0.500008 0.092787
C24   C     C_R   0.095132 0.422744 0.535722 0.400002
C25   C     C_R   0.186974 0.577822 0.465145 -0.095450
C26   C     C_R   0.812866 0.422344 0.465212 -0.093516
C27   C     C_R   0.813025 0.577822 0.534855 -0.095451
C28   C     C_R   0.187134 0.422344 0.534788 -0.093518
C29   C     C_R   0.233391 0.500048 0.499950 -0.105364
C30   C     C_R   0.766608 0.500048 0.500050 -0.105364
C31   C     C_R   0.951499 0.500162 0.499992 0.092787
C32   C     C_R   0.542451 0.107926 0.563723 -0.110012
C33   C     C_R   0.431191 0.892098 0.462063 -0.108020
C34   C     C_R   0.457549 0.107926 0.436277 -0.110012
C35   C     C_R   0.568809 0.892098 0.537937 -0.108020
C36   C     C_R   0.542214 0.209382 0.562195 0.073933
Cu1   Cu    Cu3+1 0.500000 0.596430 0.500000 1.004832
Cu2   Cu    Cu3+1 0.500000 0.403570 0.500000 0.995988
F1    F     F_    0.499900 0.672742 0.085583 -0.535584
F2    F     F_    0.500100 0.327169 0.914413 -0.538851
F3    F     F_    0.500018 0.672742 0.914416 -0.535582
F4    F     F_    0.499981 0.327169 0.085587 -0.538849
F5    F     F_    0.051312 0.651782 0.427241 -0.554144
F6    F     F_    0.948329 0.348551 0.427209 -0.552965
F7    F     F_    0.948688 0.651782 0.572758 -0.554145
F8    F     F_    0.051671 0.348551 0.572791 -0.552965
H1    H     H_    0.221928 0.637909 0.437240 0.166284
H2    H     H_    0.379700 0.751456 0.432136 0.137495
H3    H     H_    0.424240 0.248636 0.388633 0.150799
H4    H     H_    0.620300 0.751456 0.567863 0.137493
H5    H     H_    0.777784 0.362224 0.437316 0.181570
H6    H     H_    0.778072 0.637909 0.562760 0.166283
H7    H     H_    0.222215 0.362224 0.562684 0.181568
H8    H     H_    0.574857 0.071986 0.615418 0.126872
H9    H     H_    0.375439 0.928038 0.433198 0.122546
H10   H     H_    0.425143 0.071986 0.384581 0.126871
H11   H     H_    0.624561 0.928038 0.566801 0.122545
H12   H     H_    0.575759 0.248636 0.611367 0.150803
N1    N     N_R   0.500000 0.258690 0.500000 -0.233400
N2    N     N_R   0.500000 0.741310 0.500000 -0.227896
O1    O     O_R   0.371460 0.581430 0.500010 -0.507033
O2    O     O_R   0.628540 0.418570 0.499990 -0.496820
O3    O     O_R   0.628540 0.581430 0.499990 -0.507035
O4    O     O_R   0.371460 0.418570 0.500010 -0.496822
O5    O     O_R   0.499980 0.581410 0.380310 -0.484101
O6    O     O_R   0.500020 0.418590 0.619690 -0.499778
O7    O     O_R   0.500020 0.581410 0.619690 -0.484101
O8    O     O_R   0.499980 0.418590 0.380310 -0.499777

loop_
_geom_bond_atom_site_label_1
_geom_bond_atom_site_label_2
_ccdc_geom_bond_type
C33   H9    S    
Cu1   O1    S    
C23   C24   A    
C6    C33   A    
C34   H10   S    
Cu1   Cu2   S    
C7    O5    A    
C21   F6    S    
C12   O2    A    
C25   H1    S    
C9    F3    S    
C3    N1    A    
C20   C23   A    
C35   H11   S    
C7    C18   S    
C24   F8    S    
C5    C34   A    
C21   C31   A    
C1    C29   S    
C17   C18   T    
C3    H3    S    
C4    C35   A    
C26   H5    S    
C27   H6    S    
C27   C30   A    
C8    O6    A    
C9    C11   A    
C4    N2    A    
C2    N2    A    
C11   C15   A    
C16   C19   T    
C32   C36   A    
C2    C33   A    
C32   H8    S    
C28   C29   A    
Cu1   O3    S    
C21   C26   A    
Cu2   O8    S    
C9    C14   A    
C26   C30   A    
C36   H12   S    
C22   C27   A    
C25   C29   A    
C5    C6    S    
C11   F1    S    
C14   C16   S    
Cu1   N2    S    
C10   F4    S    
C20   C25   A    
Cu2   N1    S    
C8    C19   S    
C1    O4    A    
Cu1   O7    S    
C20   F5    S    
C6    C35   A    
C8    O7    A    
C15   C17   S    
C22   F7    S    
C22   C31   A    
C4    H4    S    
C12   O3    A    
Cu2   O4    S    
Cu2   O6    S    
C13   F2    S    
C3    C34   A    
C2    H2    S    
C7    O8    A    
C13   C14   A    
C36   N1    A    
C12   C30   S    
C28   H7    S    
C5    C32   A    
C24   C28   A    
Cu1   O5    S    
C1    O1    A    
C10   C15   A    
Cu2   O2    S    
C10   C13   A    
C23   C31   S    
