data_mof_unit_11643.cif
_audit_creation_date              2012-12-10T16:58:24-0500
_audit_creation_method            fapswitch 2.2
_symmetry_space_group_name_H-M    P1
_symmetry_Int_Tables_number       1
_space_group_crystal_system       triclinic
_cell_length_a                    15.860729
_cell_length_b                    10.922744
_cell_length_c                    9.685585
_cell_angle_alpha                 90.972836
_cell_angle_beta                  90.106744
_cell_angle_gamma                 90.237968
_cell_volume                      1677.69725399

loop_
_atom_site_label
_atom_site_type_symbol
_atom_type_description
_atom_site_fract_x
_atom_site_fract_y
_atom_site_fract_z
_atom_type_partial_charge
C1    C     C_R   0.497202 0.265409 0.498781 0.763418
C2    C     C_3   0.082982 0.495694 0.498175 0.082413
C3    C     C_3   0.973379 0.605918 0.536206 0.411967
C4    C     C_3   0.917139 0.495507 0.499385 0.083060
C5    C     C_3   0.028308 0.579688 0.407954 -0.314712
C6    C     C_3   0.971417 0.467558 0.370909 -0.175349
C7    C     C_1   0.174626 0.496363 0.498968 -0.000923
C8    C     C_1   0.825468 0.497047 0.499770 -0.008755
C9    C     C_2   0.517590 0.932152 0.392946 -0.256637
C10   C     C_2   0.516367 0.865405 0.506965 -0.295746
C11   C     C_2   0.530608 0.065708 0.402088 0.358716
C12   C     C_R   0.339843 0.499278 0.499859 0.808159
C13   C     C_2   0.485678 0.132710 0.494802 0.204290
C14   C     C_2   0.442495 0.446031 0.921383 -0.190946
C15   C     C_2   0.450264 0.429563 0.076640 0.528018
C16   C     C_R   0.503690 0.734469 0.501340 0.851781
C17   C     C_R   0.660185 0.499675 0.500082 0.823286
C18   C     C_3   0.971814 0.410648 0.588631 -0.315191
C19   C     C_3   0.027790 0.383635 0.460099 -0.172526
C20   C     C_1   0.250165 0.497617 0.499503 -0.168060
C21   C     C_1   0.749910 0.498374 0.500080 -0.179201
C22   C     C_3   0.027719 0.522589 0.624784 0.412204
Cu1   Cu    Cu3+1 0.500020 0.500020 0.638630 0.945015
Cu2   Cu    Cu3+1 0.499980 0.499980 0.361370 0.996858
H1    H     H_    0.052048 0.292395 0.427752 0.147190
H2    H     H_    0.387491 0.407972 0.869485 0.169218
H3    H     H_    0.554038 0.526080 0.894797 0.187656
H4    H     H_    0.532301 0.567347 0.106226 0.143910
H5    H     H_    0.947372 0.341367 0.661089 0.144419
H6    H     H_    0.946427 0.443869 0.266659 0.147305
H7    H     H_    0.052792 0.647535 0.333831 0.147902
H8    H     H_    0.512046 0.889300 0.291278 0.166518
H9    H     H_    0.527990 0.907442 0.607735 0.190119
N1    N     N_2   0.499090 0.498660 0.846910 -0.296067
N2    N     N_2   0.499070 0.498630 0.153040 -0.303250
O1    O     O_R   0.500010 0.321960 0.617040 -0.589821
O2    O     O_R   0.499990 0.321920 0.382900 -0.509426
O3    O     O_R   0.379090 0.500010 0.617050 -0.578086
O4    O     O_R   0.379060 0.499970 0.382910 -0.528106
O5    O     O_R   0.500010 0.678080 0.617100 -0.568848
O6    O     O_R   0.499990 0.678040 0.382960 -0.586612
O7    O     O_R   0.620940 0.500030 0.617090 -0.576888
O8    O     O_R   0.620910 0.499990 0.382950 -0.572700
O9    O     O_3   0.431074 0.074936 0.586521 -0.606139
C23   C     C_3   0.356216 0.142316 0.609113 0.076144
H10   H     H_    0.331875 0.183309 0.512352 0.117699
H11   H     H_    0.367188 0.215714 0.687987 0.162785
C24   C     C_3   0.288579 0.056961 0.663917 -0.787408
H12   H     H_    0.309763 0.016560 0.762522 0.250200
H13   H     H_    0.229487 0.108802 0.682667 0.197245
H14   H     H_    0.275751 0.982174 0.587506 0.248962
O10   O     O_3   0.396679 0.348311 0.142001 -0.543122
C25   C     C_3   0.406682 0.229239 0.084984 0.069659
H15   H     H_    0.473509 0.199088 0.093208 0.183467
H16   H     H_    0.386389 0.224166 0.975130 0.120733
C26   C     C_3   0.351642 0.140154 0.163753 -0.763357
H17   H     H_    0.284266 0.165890 0.153691 0.238332
H18   H     H_    0.360318 0.045884 0.121557 0.200402
H19   H     H_    0.369172 0.141674 0.274447 0.243297
O11   O     O_3   0.939010 0.719537 0.578133 -0.590502
C27   C     C_3   0.003690 0.808385 0.586367 0.067118
H20   H     H_    0.027875 0.829027 0.481521 0.140377
H21   H     H_    0.056759 0.777886 0.652740 0.174787
C28   C     C_3   0.968371 0.925842 0.649336 -0.796694
H22   H     H_    0.944502 0.908508 0.754995 0.247347
H23   H     H_    0.018648 0.996823 0.655507 0.197370
H24   H     H_    0.915946 0.960120 0.584557 0.250188
O12   O     O_3   0.063295 0.553136 0.754620 -0.586041
C29   C     C_3   0.999301 0.557134 0.855503 0.068351
H25   H     H_    0.973061 0.463943 0.872183 0.139044
H26   H     H_    0.947505 0.619982 0.825742 0.174115
C30   C     C_3   0.036455 0.603920 0.991442 -0.791018
H27   H     H_    0.063225 0.697121 0.978330 0.248245
H28   H     H_    0.986441 0.608139 0.071443 0.195468
H29   H     H_    0.087018 0.541526 0.026436 0.257889
O13   O     O_3   0.581015 0.125377 0.306145 -0.594359
C31   C     C_3   0.655582 0.059385 0.277994 0.059896
H30   H     H_    0.641938 0.980721 0.206911 0.150118
H31   H     H_    0.685398 0.025815 0.374567 0.144422
C32   C     C_3   0.718291 0.143561 0.207761 -0.781616
H32   H     H_    0.733569 0.222904 0.276778 0.248285
H33   H     H_    0.777205 0.092821 0.184199 0.196491
H34   H     H_    0.691108 0.177596 0.109915 0.246254

loop_
_geom_bond_atom_site_label_1
_geom_bond_atom_site_label_2
_ccdc_geom_bond_type
C29   C30   S    
C25   H16   S    
C2    C7    S    
C4    C8    S    
C31   H30   S    
O9    C23   S    
C6    C19   S    
Cu1   O7    S    
C11   O13   S    
C32   H34   S    
C5    C6    S    
C31   C32   S    
Cu1   O5    S    
Cu2   O4    S    
C26   H17   S    
C29   H26   S    
C18   C19   S    
C27   H21   S    
C17   O7    A    
C9    H8    S    
C24   H14   S    
H4    N2    S    
O12   C29   S    
C2    C22   S    
Cu1   Cu2   S    
C9    C10   D    
C1    O2    A    
C4    C18   S    
C3    O11   S    
C31   H31   S    
Cu2   O6    S    
C29   H25   S    
C30   H29   S    
C15   N2    D    
Cu2   O2    S    
C23   H11   S    
H3    N1    S    
Cu2   N2    S    
C28   H24   S    
O13   C31   S    
C30   H28   S    
C30   H27   S    
C23   C24   S    
C23   H10   S    
C17   C21   S    
O11   C27   S    
C28   H23   S    
C27   C28   S    
C17   O8    A    
Cu1   N1    S    
C12   C20   S    
C8    C21   T    
C18   H5    S    
C15   O10   S    
C14   H2    S    
C9    C11   S    
C22   O12   S    
C16   O5    A    
C32   H33   S    
C24   H12   S    
C6    H6    S    
Cu1   O1    S    
C4    C6    S    
C1    C13   S    
C3    C4    S    
O10   C25   S    
C25   C26   S    
C2    C19   S    
C18   C22   S    
C32   H32   S    
C3    C5    S    
C14   N1    D    
C25   H15   S    
Cu1   O3    S    
C26   H19   S    
C28   H22   S    
C12   O4    A    
C10   C16   S    
C11   C13   D    
C24   H13   S    
C26   H18   S    
C10   H9    S    
C12   O3    A    
C27   H20   S    
C19   H1    S    
C2    C5    S    
C7    C20   T    
Cu2   O8    S    
C14   C15   S    
C3    C22   S    
C16   O6    A    
C13   O9    S    
C1    O1    A    
C5    H7    S    
