data_mof_unit_58204.cif
_audit_creation_date              2012-12-10T20:51:27-0500
_audit_creation_method            fapswitch 2.2
_symmetry_space_group_name_H-M    P1
_symmetry_Int_Tables_number       1
_space_group_crystal_system       triclinic
_cell_length_a                    17.43773
_cell_length_b                    8.891324
_cell_length_c                    8.118563
_cell_angle_alpha                 90.000141
_cell_angle_beta                  90.020418
_cell_angle_gamma                 90.000048
_cell_volume                      1258.73852002

loop_
_atom_site_label
_atom_site_type_symbol
_atom_type_description
_atom_site_fract_x
_atom_site_fract_y
_atom_site_fract_z
_atom_type_partial_charge
C1    C     C_R   0.500000 0.218099 0.500000 0.920677
C2    C     C_R   0.848074 0.596968 0.349086 0.261327
C3    C     C_R   0.772113 0.540939 0.647124 0.290902
C4    C     C_R   0.227887 0.540943 0.352876 0.290906
C5    C     C_R   0.231729 0.573864 0.652188 0.299046
C6    C     C_R   0.768272 0.573861 0.347812 0.299052
C7    C     C_R   0.730612 0.536944 0.497518 -0.342060
C8    C     C_R   0.269388 0.536947 0.502482 -0.342063
C9    C     C_R   0.885244 0.618971 0.498872 -0.108503
C10   C     C_R   0.114756 0.618975 0.501130 -0.108500
C11   C     C_1   0.965923 0.637304 0.499832 0.215464
C12   C     C_R   0.500000 0.781892 0.500000 0.898484
C13   C     C_1   0.034077 0.637305 0.500170 0.215466
C14   C     C_3   0.772576 0.350820 0.838544 0.128795
C15   C     C_3   0.733437 0.218252 0.751045 -0.370633
C16   C     C_3   0.775560 0.070753 0.784469 -0.952651
C17   C     C_3   0.227422 0.350831 0.161445 0.128793
C18   C     C_3   0.266545 0.218257 0.248967 -0.370658
C19   C     C_3   0.224421 0.070764 0.215514 -0.952616
C20   C     C_3   0.273813 0.727498 0.862864 0.092153
C21   C     C_3   0.346772 0.807435 0.806052 -0.316278
C22   C     C_3   0.352126 0.967251 0.873240 -0.967247
C23   C     C_1   0.500000 0.065275 0.500000 -0.209240
C24   C     C_3   0.726188 0.727493 0.137136 0.092156
C25   C     C_3   0.653231 0.807433 0.193954 -0.316287
C26   C     C_3   0.647877 0.967249 0.126766 -0.967244
C27   C     C_1   0.500000 0.934700 0.500000 -0.196197
C28   C     C_R   0.352406 0.505701 0.500487 0.948214
C29   C     C_R   0.647594 0.505700 0.499513 0.948205
C30   C     C_R   0.847167 0.599410 0.648032 0.263573
C31   C     C_R   0.152833 0.599414 0.351969 0.263568
C32   C     C_R   0.151926 0.596971 0.650915 0.261328
H1    H     H_    0.847112 0.647003 0.879449 0.356386
H2    H     H_    0.743147 0.975698 0.729344 0.263673
H3    H     H_    0.781375 0.051197 0.918898 0.268710
H4    H     H_    0.235734 0.336882 0.026652 0.182969
H5    H     H_    0.164217 0.347423 0.182061 0.157520
H6    H     H_    0.326826 0.208873 0.205664 0.240724
H7    H     H_    0.267278 0.237146 0.384135 0.211564
H8    H     H_    0.166320 0.073916 0.271471 0.280245
H9    H     H_    0.256820 0.975705 0.270668 0.263673
H10   H     H_    0.218627 0.051206 0.081080 0.268702
H11   H     H_    0.275127 0.720810 0.999313 0.192635
H12   H     H_    0.152888 0.647013 0.120553 0.356383
H13   H     H_    0.222557 0.796505 0.830635 0.148446
H14   H     H_    0.397054 0.742862 0.850835 0.263481
H15   H     H_    0.347865 0.811998 0.669336 0.205812
H16   H     H_    0.302381 0.035181 0.831198 0.264121
H17   H     H_    0.405489 0.021121 0.827603 0.284583
H18   H     H_    0.354066 0.965314 0.009903 0.274996
H19   H     H_    0.724872 0.720805 0.000687 0.192636
H20   H     H_    0.777446 0.796499 0.169361 0.148448
H21   H     H_    0.602947 0.742862 0.149175 0.263483
H22   H     H_    0.652140 0.811997 0.330669 0.205811
H23   H     H_    0.137313 0.538597 0.877400 0.358998
H24   H     H_    0.697625 0.035176 0.168799 0.264125
H25   H     H_    0.594517 0.021123 0.172412 0.284582
H26   H     H_    0.645932 0.965310 0.990103 0.274997
H27   H     H_    0.862688 0.538591 0.122602 0.359000
H28   H     H_    0.764277 0.336876 0.973341 0.182961
H29   H     H_    0.835779 0.347397 0.817900 0.157513
H30   H     H_    0.673162 0.208877 0.794384 0.240727
H31   H     H_    0.732686 0.237144 0.615879 0.211567
H32   H     H_    0.833650 0.073893 0.728465 0.280245
N1    N     N_1   0.500000 0.500000 0.073640 -0.026836
N2    N     N_1   0.500000 0.500000 0.926360 -0.026837
O1    O     O_R   0.500000 0.285350 0.636850 -0.622347
O2    O     O_3   0.114219 0.629660 0.207448 -0.715666
O3    O     O_3   0.109374 0.598673 0.794159 -0.716388
O4    O     O_3   0.890626 0.598669 0.205842 -0.716388
O5    O     O_3   0.738974 0.489898 0.792098 -0.617192
O6    O     O_3   0.261027 0.489904 0.207902 -0.617192
O7    O     O_3   0.271616 0.578239 0.800257 -0.610623
O8    O     O_3   0.728385 0.578235 0.199743 -0.610620
O9    O     O_R   0.500000 0.714650 0.363150 -0.638496
O10   O     O_R   0.500000 0.714650 0.636850 -0.638497
O11   O     O_R   0.500000 0.285350 0.363150 -0.622347
O12   O     O_R   0.389120 0.500000 0.636930 -0.579185
O13   O     O_R   0.610880 0.500000 0.363070 -0.579184
O14   O     O_R   0.610880 0.500000 0.636930 -0.569828
O15   O     O_R   0.389120 0.500000 0.363070 -0.569825
O16   O     O_3   0.885781 0.629651 0.792554 -0.715663
Zn1   Zn    Zn3+2 0.500000 0.500000 0.682780 0.992731
Zn2   Zn    Zn3+2 0.500000 0.500000 0.317220 0.992734

loop_
_geom_bond_atom_site_label_1
_geom_bond_atom_site_label_2
_ccdc_geom_bond_type
C24   H20   S    
C22   H16   S    
O1    Zn1   S    
C7    C29   S    
C1    O11   A    
C14   O5    S    
C4    C8    A    
C20   H11   S    
C25   H21   S    
C3    C7    A    
C16   H3    S    
O13   Zn2   S    
O9    Zn2   S    
C15   C16   S    
C18   C19   S    
C16   H2    S    
N2    Zn1   S    
C10   C31   A    
C17   H4    S    
C23   C27   T    
C28   O12   A    
H1    O16   S    
C20   H13   S    
C19   H10   S    
C22   H18   S    
C5    C32   A    
C24   H19   S    
C21   C22   S    
C2    C6    A    
O14   Zn1   S    
O12   Zn1   S    
O10   Zn1   S    
C6    O8    S    
C31   O2    S    
C12   C27   S    
C24   C25   S    
N1    Zn2   S    
O11   Zn2   S    
C25   C26   S    
C14   H29   S    
C30   O16   S    
C3    C30   A    
C3    O5    S    
C18   H7    S    
C9    C11   S    
C29   O13   A    
C17   C18   S    
C17   H5    S    
C25   H22   S    
C26   H26   S    
H23   O3    S    
C9    C30   A    
C22   H17   S    
C1    C23   S    
C12   O10   A    
C8    C28   S    
H12   O2    S    
C4    O6    S    
O15   Zn2   S    
C21   H14   S    
C28   O15   A    
C32   O3    S    
C10   C13   S    
C26   H24   S    
C5    C8    A    
C6    C7    A    
C14   H28   S    
C18   H6    S    
C11   C13   T    
C24   O8    S    
C29   O14   A    
C1    O1    A    
C15   H30   S    
C20   O7    S    
C5    O7    S    
C26   H25   S    
C4    C31   A    
C19   H8    S    
H27   O4    S    
C10   C32   A    
C20   C21   S    
C17   O6    S    
N1    N2    T    
C12   O9    A    
C15   H31   S    
C14   C15   S    
C16   H32   S    
C2    O4    S    
C2    C9    A    
C19   H9    S    
C21   H15   S    
