data_mof_unit_43303.cif
_audit_creation_date              2013-03-05T15:51:19-0500
_audit_creation_method            fapswitch 2.2
_symmetry_space_group_name_H-M    P1
_symmetry_Int_Tables_number       1
_space_group_crystal_system       triclinic
_cell_length_a                    12.065551
_cell_length_b                    12.860712
_cell_length_c                    15.718236
_cell_angle_alpha                 90.981718
_cell_angle_beta                  87.289424
_cell_angle_gamma                 94.144525
_cell_volume                      2429.69320627

loop_
_atom_site_label
_atom_site_type_symbol
_atom_site_description
_atom_site_fract_x
_atom_site_fract_y
_atom_site_fract_z
_atom_type_partial_charge
O1    O     O_R   0.421700 0.658830 0.504150 -0.618130
O2    O     O_R   0.578300 0.341170 0.495850 -0.609918
O3    O     O_R   0.609310 0.646410 0.494170 -0.650813
O4    O     O_R   0.390690 0.353590 0.505830 -0.644897
C1    C     C_R   0.522630 0.700309 0.500016 0.885357
C2    C     C_R   0.477393 0.299690 0.500089 0.884440
O5    O     O_R   0.406210 0.506220 0.628210 -0.593007
O6    O     O_R   0.593790 0.493780 0.371790 -0.599343
O7    O     O_R   0.593830 0.493800 0.618230 -0.632066
O8    O     O_R   0.406170 0.506200 0.381770 -0.640286
C3    C     C_R   0.501060 0.500144 0.661842 0.893817
C4    C     C_R   0.498953 0.499853 0.338158 0.896169
Zn1   Zn    Zn3+2 0.374730 0.508290 0.506660 0.970051
Zn2   Zn    Zn3+2 0.625270 0.491710 0.493340 0.971132
C5    C     C_3   0.477272 0.595142 0.030576 -0.240891
C6    C     C_3   0.523146 0.404817 0.969415 -0.238241
C7    C     C_3   0.578810 0.572120 0.970402 -0.225809
C8    C     C_3   0.421608 0.427840 0.029588 -0.229539
H1    H     H_    0.643465 0.630543 0.944648 0.170229
H2    H     H_    0.356952 0.369413 0.055335 0.168990
H3    H     H_    0.457814 0.672633 0.057127 0.160676
H4    H     H_    0.542604 0.327327 0.942862 0.161079
C9    C     C_1   0.503153 0.500131 0.750644 -0.113108
C10   C     C_1   0.496950 0.499861 0.249353 -0.128532
C11   C     C_3   0.401101 0.522969 0.975673 0.031556
C12   C     C_3   0.599316 0.476990 0.024328 0.031549
C13   C     C_3   0.501310 0.500254 0.916884 0.165015
C14   C     C_3   0.499099 0.499707 0.083108 0.166708
C15   C     C_1   0.503228 0.500173 0.825934 0.028566
C16   C     C_1   0.497039 0.499804 0.174058 0.022784
C17   C     C_R   0.463101 0.188011 0.500715 -0.074027
C18   C     C_R   0.537040 0.811993 0.499644 -0.070936
C19   C     C_R   0.645962 0.970514 0.463255 -0.035566
C20   C     C_R   0.354374 0.029527 0.537370 -0.045776
C21   C     C_R   0.636194 0.862648 0.468509 -0.264132
C22   C     C_R   0.364223 0.137389 0.532373 -0.244978
C23   C     C_R   0.447250 0.867379 0.527613 -0.206301
C24   C     C_R   0.552827 0.132608 0.472571 -0.205245
C25   C     C_R   0.449594 0.973751 0.516262 0.126191
C26   C     C_R   0.550638 0.026271 0.484136 0.126181
H5    H     H_    0.624575 0.173988 0.442036 0.206054
H6    H     H_    0.375336 0.825978 0.557895 0.199514
H7    H     H_    0.294291 0.181897 0.552263 0.190895
H8    H     H_    0.706382 0.818139 0.449181 0.174661
N1    N     N_R   0.207800 0.519340 0.515560 -0.173142
N2    N     N_R   0.792200 0.480660 0.484440 -0.171615
C27   C     C_R   0.949749 0.409766 0.412332 0.285668
C28   C     C_R   0.053134 0.612688 0.567772 0.280382
C29   C     C_R   0.834884 0.418593 0.422723 -0.020967
C30   C     C_R   0.167305 0.598845 0.562011 -0.015592
C31   C     C_R   0.860013 0.539800 0.537014 0.043306
C32   C     C_R   0.139010 0.451843 0.470085 0.044235
C33   C     C_R   0.978110 0.540550 0.525368 -0.099841
C34   C     C_R   0.022845 0.466105 0.468477 -0.091444
H9    H     H_    0.224958 0.653685 0.593177 0.180710
H10   H     H_    0.778864 0.377190 0.379942 0.181900
C35   C     C_2   0.712003 0.450840 0.049726 0.424165
H11   H     H_    0.775822 0.436525 0.000880 0.083002
O9    O     O_2   0.732722 0.445483 0.124683 -0.531010
C36   C     C_2   0.288397 0.549120 0.950325 0.422160
H12   H     H_    0.224605 0.563417 0.999197 0.081652
O10   O     O_2   0.267634 0.554496 0.875381 -0.531141
C37   C     C_2   0.757464 0.019363 0.437023 0.453935
H13   H     H_    0.811466 0.977874 0.393204 0.095849
O11   O     O_2   0.793363 0.101983 0.468059 -0.522377
C38   C     C_2   0.242886 0.980637 0.563489 0.465396
H14   H     H_    0.189132 0.021666 0.607822 0.098455
O12   O     O_2   0.206716 0.898549 0.531731 -0.521689
C39   C     C_2   0.186009 0.359182 0.430187 0.556471
H15   H     H_    0.258980 0.367075 0.387636 0.097201
O13   O     O_2   0.143468 0.272065 0.445510 -0.550464
C40   C     C_2   0.808262 0.593159 0.610901 0.562771
H16   H     H_    0.742454 0.644170 0.602783 0.093321
O14   O     O_2   0.838473 0.579210 0.682623 -0.551688
N3    N     N_R   0.989841 0.353963 0.338606 0.224183
O15   O     O_R   0.061872 0.400489 0.285086 -0.401640
O16   O     O_R   0.938740 0.265922 0.316069 -0.325121
N4    N     N_R   0.017975 0.706879 0.607595 0.231356
O17   O     O_R   0.959007 0.767906 0.565896 -0.383929
O18   O     O_R   0.062668 0.741763 0.677217 -0.334529

loop_
_geom_bond_atom_site_label_1
_geom_bond_atom_site_label_2
_geom_bond_distance
_ccdc_geom_bond_type
C38   O12   1.220698 D    
C37   O11   1.220784 D    
C13   C15   1.428650 S    
O7    Zn2   1.981771 S    
C20   C38   1.485847 S    
C35   H11   1.084444 S    
C27   C29   1.400355 A    
C33   C34   1.416791 A    
O5    C3    1.291057 A    
N2    C29   1.352436 A    
O1    C1    1.292896 A    
C7    C12   1.541291 S    
C9    C15   1.183452 T    
N4    O18   1.301391 A    
C35   O9    1.220032 D    
C23   H6    1.079718 S    
C36   O10   1.220003 D    
C28   N4    1.436086 S    
O4    Zn1   2.012417 S    
C39   O13   1.221127 D    
C32   C39   1.474244 S    
C7    H1    1.110316 S    
O6    Zn2   1.966476 S    
C11   C36   1.497649 S    
C20   C22   1.386926 A    
C19   C37   1.486218 S    
C1    C18   1.434362 S    
C6    C13   1.536140 S    
C28   C30   1.400219 A    
C2    C17   1.434304 S    
O2    C2    1.292669 A    
C8    C11   1.541189 S    
C32   C34   1.428083 A    
C6    C12   1.541243 S    
C28   C33   1.427887 A    
C19   C26   1.421322 A    
C20   C25   1.421071 A    
C7    C13   1.535931 S    
C18   C21   1.392139 A    
C8    C14   1.535886 S    
C24   H5    1.079738 S    
Zn2   N2    2.027416 S    
C25   C26   1.425473 A    
N4    O17   1.301635 A    
N1    C32   1.372603 A    
N2    C31   1.372332 A    
C36   H12   1.084448 S    
C31   C33   1.427358 A    
N3    O15   1.301530 A    
N3    O16   1.301414 A    
C5    H3    1.110308 S    
O6    C4    1.290901 A    
C18   C23   1.389284 A    
C21   H8    1.084847 S    
O7    C3    1.291573 A    
O3    Zn2   2.012417 S    
O8    C4    1.291707 A    
C27   C34   1.428629 A    
C40   O14   1.221145 D    
O4    C2    1.294902 A    
O1    Zn1   1.978113 S    
C31   C40   1.475006 S    
Zn1   N1    2.027416 S    
C5    C7    1.554478 S    
C6    H4    1.110307 S    
C40   H16   1.079292 S    
O3    C1    1.294699 A    
O8    Zn1   1.981774 S    
C11   C13   1.528795 S    
C29   H10   1.082251 S    
C4    C10   1.397216 S    
C12   C14   1.528796 S    
C30   H9    1.082017 S    
C17   C24   1.389525 A    
C14   C16   1.428604 S    
C27   N3    1.435487 S    
C23   C25   1.380728 A    
C24   C26   1.380890 A    
C5    C14   1.536096 S    
N1    C30   1.352841 A    
C3    C9    1.397236 S    
C19   C21   1.387269 A    
C38   H14   1.085711 S    
C8    H2    1.110318 S    
C39   H15   1.080058 S    
O2    Zn2   1.978111 S    
C12   C35   1.497706 S    
C10   C16   1.183439 T    
C5    C11   1.541157 S    
C37   H13   1.085747 S    
O5    Zn1   1.966473 S    
C6    C8    1.554462 S    
C17   C22   1.391920 A    
C22   H7    1.084477 S    
