data_mof_unit_5426.cif
_audit_creation_date              2012-12-11T14:13:26-0500
_audit_creation_method            fapswitch 2.2
_symmetry_space_group_name_H-M    P1
_symmetry_Int_Tables_number       1
_space_group_crystal_system       triclinic
_cell_length_a                    11.599269
_cell_length_b                    18.633996
_cell_length_c                    9.947786
_cell_angle_alpha                 90.000013
_cell_angle_beta                  110.66712
_cell_angle_gamma                 90.0
_cell_volume                      2011.75436957

loop_
_atom_site_label
_atom_site_type_symbol
_atom_type_description
_atom_site_fract_x
_atom_site_fract_y
_atom_site_fract_z
_atom_type_partial_charge
C1    C     C_R   0.074121 0.645845 0.140612 0.561705
C2    C     C_2   0.592059 0.076785 0.081001 -0.121928
C3    C     C_2   0.592059 0.423215 0.081001 -0.121928
C4    C     C_2   0.407941 0.576785 0.918999 -0.121929
C5    C     C_2   0.491338 0.963198 0.016175 -0.156937
C6    C     C_2   0.508662 0.036802 0.983826 -0.156937
C7    C     C_2   0.508662 0.463199 0.983826 -0.156937
C8    C     C_2   0.491338 0.536802 0.016174 -0.156937
C9    C     C_2   0.012492 0.922955 0.114471 -0.108113
C10   C     C_2   0.987508 0.077045 0.885529 -0.108113
C11   C     C_2   0.987508 0.422955 0.885529 -0.108113
C12   C     C_R   0.925879 0.354155 0.859387 0.561705
C13   C     C_2   0.012492 0.577045 0.114471 -0.108113
C14   C     C_2   0.021797 0.963467 0.008340 -0.154451
C15   C     C_2   0.978203 0.036533 0.991660 -0.154451
C16   C     C_2   0.978203 0.463467 0.991660 -0.154451
C17   C     C_2   0.021797 0.536533 0.008340 -0.154451
C18   C     C_R   0.469270 0.646862 0.443087 0.529747
C19   C     C_R   0.530729 0.353138 0.556913 0.529747
C20   C     C_R   0.530729 0.146862 0.556913 0.529748
C21   C     C_R   0.469270 0.853138 0.443087 0.529747
C22   C     C_R   0.376687 0.645629 0.962790 0.550722
C23   C     C_R   0.925879 0.145845 0.859387 0.561705
C24   C     C_R   0.623313 0.354371 0.037210 0.550722
C25   C     C_R   0.623313 0.145629 0.037210 0.550722
C26   C     C_R   0.376687 0.854371 0.962790 0.550722
C27   C     C_R   0.506584 0.424940 0.489911 -0.038410
C28   C     C_R   0.493416 0.575060 0.510089 -0.038410
C29   C     C_R   0.493416 0.924940 0.510089 -0.038410
C30   C     C_R   0.506584 0.075060 0.489911 -0.038410
C31   C     C_R   0.284210 0.416762 0.442922 -0.077725
C32   C     C_R   0.715790 0.583238 0.557078 -0.077725
C33   C     C_R   0.715790 0.916762 0.557078 -0.077725
C34   C     C_R   0.074121 0.854155 0.140612 0.561705
C35   C     C_R   0.284210 0.083238 0.442922 -0.077725
C36   C     C_R   0.177033 0.447032 0.450784 -0.124355
C37   C     C_R   0.822967 0.552967 0.549216 -0.124356
C38   C     C_R   0.822967 0.947032 0.549216 -0.124356
C39   C     C_R   0.177033 0.052968 0.450784 -0.124356
C40   C     C_R   0.178142 0.517620 0.495989 -0.125564
C41   C     C_R   0.821858 0.482380 0.504011 -0.125564
C42   C     C_R   0.821858 0.017620 0.504011 -0.125564
C43   C     C_R   0.178142 0.982379 0.495989 -0.125564
C44   C     C_R   0.283779 0.559381 0.523749 -0.073042
C45   C     C_R   0.393760 0.457534 0.477334 0.012080
C46   C     C_R   0.716221 0.440619 0.476251 -0.073042
C47   C     C_R   0.716221 0.059381 0.476251 -0.073042
C48   C     C_R   0.283779 0.940619 0.523749 -0.073042
C49   C     C_R   0.390637 0.531535 0.504280 0.008386
C50   C     C_R   0.609363 0.468465 0.495720 0.008386
C51   C     C_R   0.609363 0.031535 0.495720 0.008386
C52   C     C_R   0.390637 0.968465 0.504280 0.008386
C53   C     C_R   0.606240 0.542466 0.522666 0.012080
C54   C     C_R   0.606239 0.957534 0.522666 0.012080
C55   C     C_R   0.393760 0.042466 0.477334 0.012080
C56   C     C_2   0.407941 0.923215 0.918999 -0.121929
Cr1   Cr    Cr6+3 0.187610 0.750000 0.979860 1.006233
Cr2   Cr    Cr6+3 0.812390 0.250000 0.020140 1.006233
Cr3   Cr    Cr6+3 0.245810 0.750000 0.341640 1.007020
Cr4   Cr    Cr6+3 0.754190 0.250000 0.658360 1.007020
Cr5   Cr    Cr6+3 0.485760 0.750000 0.219910 1.018720
Cr6   Cr    Cr6+3 0.514240 0.250000 0.780090 1.018720
H1    H     H_    0.094241 0.415027 0.426016 0.104254
H2    H     H_    0.718444 0.638876 0.589604 0.118123
H3    H     H_    0.718444 0.861124 0.589604 0.118123
H4    H     H_    0.281556 0.138876 0.410396 0.118123
H5    H     H_    0.456796 0.057270 0.876961 0.170640
H6    H     H_    0.543203 0.942730 0.123039 0.170640
H7    H     H_    0.543204 0.557270 0.123039 0.170640
H8    H     H_    0.456797 0.442729 0.876961 0.170640
H9    H     H_    0.648326 0.054567 0.184120 0.100744
H10   H     H_    0.351674 0.945433 0.815880 0.100744
H11   H     H_    0.351674 0.554567 0.815880 0.100744
H12   H     H_    0.905759 0.584972 0.573984 0.104254
H13   H     H_    0.648326 0.445433 0.184120 0.100744
H14   H     H_    0.933271 0.056339 0.063721 0.162146
H15   H     H_    0.066729 0.943661 0.936279 0.162146
H16   H     H_    0.066729 0.556339 0.936279 0.162146
H17   H     H_    0.933271 0.443661 0.063721 0.162146
H18   H     H_    0.026937 0.056012 0.809272 0.099098
H19   H     H_    0.973063 0.943988 0.190728 0.099098
H20   H     H_    0.973063 0.556012 0.190728 0.099098
H21   H     H_    0.026937 0.443987 0.809272 0.099098
H22   H     H_    0.281725 0.612577 0.566025 0.139761
H23   H     H_    0.905759 0.915028 0.573984 0.104254
H24   H     H_    0.718275 0.387423 0.433975 0.139761
H25   H     H_    0.718275 0.112577 0.433975 0.139761
H26   H     H_    0.281725 0.887423 0.566025 0.139761
H27   H     H_    0.094241 0.084972 0.426016 0.104254
H28   H     H_    0.096876 0.540293 0.509121 0.102983
H29   H     H_    0.903124 0.459707 0.490879 0.102983
H30   H     H_    0.903124 0.040293 0.490879 0.102983
H31   H     H_    0.096876 0.959707 0.509120 0.102983
H32   H     H_    0.281556 0.361124 0.410396 0.118123
O1    O     O_R   0.267710 0.668200 0.902110 -0.529262
O2    O     O_R   0.883280 0.330790 0.732340 -0.518077
O3    O     O_R   0.883280 0.169210 0.732340 -0.518077
O4    O     O_R   0.116720 0.830790 0.267660 -0.518077
O5    O     O_R   0.366710 0.675440 0.427590 -0.511424
O6    O     O_R   0.633290 0.324560 0.572410 -0.511424
O7    O     O_R   0.633290 0.175440 0.572410 -0.511424
O8    O     O_R   0.366710 0.824560 0.427590 -0.511424
O9    O     O_R   0.534870 0.669390 0.371760 -0.517032
O10   O     O_R   0.465130 0.330610 0.628240 -0.517032
O11   O     O_R   0.465130 0.169390 0.628240 -0.517032
O12   O     O_R   0.732290 0.331800 0.097890 -0.529262
O13   O     O_R   0.534870 0.830610 0.371760 -0.517032
O14   O     O_R   0.453080 0.674480 0.075160 -0.497058
O15   O     O_R   0.546920 0.325520 0.924840 -0.497058
O16   O     O_R   0.546920 0.174480 0.924840 -0.497058
O17   O     O_R   0.453080 0.825520 0.075160 -0.497058
O18   O     O_3   0.306390 0.750000 0.180470 -0.239405
O19   O     O_3   0.693610 0.250000 0.819530 -0.239405
O20   O     O_R   0.732290 0.168200 0.097890 -0.529262
O21   O     O_R   0.267710 0.831800 0.902110 -0.529262
O22   O     O_R   0.099480 0.674460 0.038850 -0.503293
O23   O     O_R   0.900520 0.325540 0.961150 -0.503293
O24   O     O_R   0.900520 0.174460 0.961150 -0.503293
O25   O     O_R   0.099480 0.825540 0.038850 -0.503293
O26   O     O_R   0.116720 0.669210 0.267660 -0.518077

loop_
_geom_bond_atom_site_label_1
_geom_bond_atom_site_label_2
_ccdc_geom_bond_type
C44   C49   A    
C37   H12   S    
Cr3   O26   S    
Cr3   O5    S    
C22   O1    A    
C5    C56   D    
C4    C8    D    
C23   O24   A    
C3    C24   S    
C33   H3    S    
C7    C8    S    
Cr1   O21   S    
Cr6   O11   S    
C20   C30   S    
C8    H7    S    
Cr5   O9    S    
C30   C51   A    
C38   C42   A    
C48   C52   A    
C3    C7    D    
C10   C15   D    
C5    C6    S    
Cr1   O18   S    
C29   C54   A    
Cr2   O24   S    
C11   C16   D    
C14   H15   S    
Cr5   O14   S    
C26   O21   A    
C34   O4    A    
C16   C17   S    
C56   H10   S    
Cr2   O19   S    
C41   C46   A    
C48   H26   S    
C1    O22   A    
C36   H1    S    
C3    H13   S    
C43   C48   A    
C27   C50   A    
Cr1   O25   S    
C27   C45   A    
C15   H14   S    
Cr4   O19   S    
C2    C6    D    
C7    H8    S    
C5    H6    S    
Cr1   O22   S    
Cr6   O10   S    
C50   C53   A    
C38   H23   S    
C35   C55   A    
C36   C40   A    
C18   C28   S    
C32   H2    S    
Cr6   O19   S    
Cr4   O3    S    
C10   H18   S    
C39   C43   A    
C20   O7    A    
C35   H4    S    
C11   H21   S    
C21   C29   S    
C13   H20   S    
Cr2   O23   S    
Cr2   O12   S    
C1    O26   A    
C47   H25   S    
C35   C39   A    
C9    C14   D    
C4    C22   S    
C19   O10   A    
Cr6   O16   S    
C45   C49   A    
C28   C53   A    
Cr3   O18   S    
C32   C37   A    
C4    H11   S    
C21   O13   A    
C25   O16   A    
C21   O8    A    
Cr4   O2    S    
C6    H5    S    
C23   O3    A    
Cr1   O1    S    
C9    C34   S    
C24   O12   A    
C18   O5    A    
C2    H9    S    
Cr5   O17   S    
C32   C53   A    
C19   C27   S    
C20   O11   A    
C34   O25   A    
C41   H29   S    
C14   C15   S    
Cr3   O8    S    
C24   O15   A    
Cr4   O6    S    
C26   C56   S    
C47   C51   A    
C19   O6    A    
C52   C55   A    
C13   C17   D    
C10   C23   S    
C31   H32   S    
C30   C55   A    
C46   C50   A    
C33   C38   A    
C44   H22   S    
C16   H17   S    
C51   C54   A    
C25   O20   A    
C18   O9    A    
Cr6   O15   S    
C33   C54   A    
C22   O14   A    
C17   H16   S    
C43   H31   S    
C28   C49   A    
C2    C25   S    
C42   H30   S    
C42   C47   A    
C37   C41   A    
Cr5   O13   S    
C12   O23   A    
C40   C44   A    
C1    C13   S    
C31   C45   A    
Cr2   O20   S    
Cr3   O4    S    
C31   C36   A    
C12   O2    A    
C40   H28   S    
Cr5   O18   S    
C26   O17   A    
C39   H27   S    
Cr4   O7    S    
C11   C12   S    
C9    H19   S    
C46   H24   S    
C29   C52   A    
