data_mof_unit_28970.cif
_audit_creation_date              2012-12-10T16:35:50-0500
_audit_creation_method            fapswitch 2.2
_symmetry_space_group_name_H-M    P1
_symmetry_Int_Tables_number       1
_space_group_crystal_system       triclinic
_cell_length_a                    14.230894
_cell_length_b                    16.425681
_cell_length_c                    13.072704
_cell_angle_alpha                 89.950539
_cell_angle_beta                  107.171379
_cell_angle_gamma                 90.033132
_cell_volume                      2919.56296268

loop_
_atom_site_label
_atom_site_type_symbol
_atom_type_description
_atom_site_fract_x
_atom_site_fract_y
_atom_site_fract_z
_atom_type_partial_charge
C1    C     C_R   0.314964 0.844435 0.475671 0.528432
C2    C     C_R   0.685975 0.844085 0.522366 0.526030
C3    C     C_R   0.185595 0.656481 0.523297 0.534328
C4    C     C_R   0.185450 0.343416 0.523501 0.531026
C5    C     C_R   0.546735 0.997594 0.785859 0.525195
C6    C     C_R   0.046666 0.497799 0.786272 0.529591
C7    C     C_R   0.453942 0.000183 0.214885 0.501552
C8    C     C_R   0.956356 0.500155 0.214604 0.509630
C9    C     C_2   0.445434 0.001566 0.101516 -0.063193
C10   C     C_2   0.953315 0.501603 0.101210 -0.071868
C11   C     C_2   0.513029 0.966830 0.061990 0.228619
C12   C     C_R   0.314813 0.155532 0.475386 0.528260
C13   C     C_2   0.013664 0.455518 0.062580 0.219979
C14   C     C_2   0.565244 0.988217 0.902013 -0.066807
C15   C     C_2   0.064312 0.490077 0.903290 -0.077331
C16   C     C_2   0.493497 0.966067 0.944680 0.239394
C17   C     C_2   0.997952 0.454435 0.944987 0.250178
C18   C     C_2   0.758682 0.220608 0.532659 0.258093
C19   C     C_2   0.762285 0.783948 0.524394 0.265141
C20   C     C_2   0.256901 0.722518 0.535481 0.251582
C21   C     C_2   0.256120 0.276875 0.536380 0.260560
C22   C     C_3   0.367796 0.873589 0.894250 0.014883
C23   C     C_R   0.814818 0.344646 0.475793 0.533876
C24   C     C_3   0.269156 0.856612 0.810677 -0.238706
C25   C     C_3   0.231273 0.771453 0.823878 -0.456664
C26   C     C_3   0.889758 0.344820 0.907178 0.028990
C27   C     C_3   0.962167 0.281465 0.887813 -0.251820
C28   C     C_3   0.931519 0.195102 0.906936 -0.462481
C29   C     C_3   0.665428 0.981123 0.184498 -0.126272
C30   C     C_3   0.166146 0.432416 0.177198 -0.108886
C31   C     C_3   0.411961 0.678207 0.618863 -0.127110
C32   C     C_3   0.411557 0.317298 0.625155 -0.125924
C33   C     C_3   0.912715 0.169005 0.601181 -0.142220
C34   C     C_R   0.814736 0.655256 0.476284 0.544320
C35   C     C_3   0.901458 0.859784 0.547512 -0.131655
C36   C     C_3   0.612427 0.353211 0.341524 0.013702
C37   C     C_3   0.540270 0.363712 0.407573 -0.265300
C38   C     C_3   0.480255 0.441726 0.377328 -0.491579
C39   C     C_3   0.626340 0.666123 0.310817 -0.013538
C40   C     C_3   0.622118 0.737776 0.234107 -0.234033
C41   C     C_3   0.598726 0.708877 0.118377 -0.469249
C42   C     C_3   0.128163 0.841808 0.312271 0.015856
C43   C     C_3   0.045588 0.865562 0.359624 -0.267593
C44   C     C_3   0.986816 0.937955 0.300424 -0.499389
C45   C     C_2   0.240979 0.781845 0.460838 0.269213
C46   C     C_3   0.135454 0.158956 0.305258 0.017305
C47   C     C_3   0.171202 0.149458 0.206344 -0.257400
C48   C     C_3   0.130219 0.072391 0.143954 -0.497047
C49   C     C_2   0.240986 0.218428 0.460645 0.261833
C50   C     C_2   0.739992 0.283157 0.462499 0.273968
C51   C     C_2   0.738739 0.715312 0.465741 0.272882
C52   C     C_R   0.685845 0.156126 0.522689 0.523494
H1    H     H_    0.639531 0.998617 0.953393 0.072135
H2    H     H_    0.161194 0.760325 0.760002 0.158828
H3    H     H_    0.217606 0.765754 0.902959 0.138188
H4    H     H_    0.814656 0.328617 0.856447 0.160703
H5    H     H_    0.887059 0.342528 0.991322 0.148183
H6    H     H_    0.965249 0.286874 0.804170 0.206269
H7    H     H_    0.037104 0.292879 0.942604 0.173459
H8    H     H_    0.929167 0.188404 0.990719 0.144927
H9    H     H_    0.985672 0.151010 0.893207 0.147460
H10   H     H_    0.857969 0.180780 0.850956 0.187040
H11   H     H_    0.671899 0.036478 0.137687 0.102691
H12   H     H_    0.133219 0.513017 0.955844 0.042660
H13   H     H_    0.738138 0.950507 0.207499 0.123225
H14   H     H_    0.649823 0.998982 0.259693 0.133182
H15   H     H_    0.159305 0.488590 0.222107 0.109432
H16   H     H_    0.207209 0.445426 0.118778 0.095930
H17   H     H_    0.210203 0.388079 0.236139 0.166027
H18   H     H_    0.437093 0.696760 0.549289 0.143149
H19   H     H_    0.390857 0.612799 0.612241 0.136042
H20   H     H_    0.475298 0.685287 0.691953 0.142755
H21   H     H_    0.391672 0.382742 0.611470 0.128090
H22   H     H_    0.441868 0.294279 0.561485 0.107026
H23   H     H_    0.385186 0.036337 0.049258 0.087280
H24   H     H_    0.470757 0.312685 0.702271 0.146194
H25   H     H_    0.932397 0.187611 0.528189 0.124426
H26   H     H_    0.887691 0.104557 0.594139 0.130326
H27   H     H_    0.980596 0.172623 0.669835 0.137214
H28   H     H_    0.875624 0.919955 0.566992 0.139004
H29   H     H_    0.887506 0.853968 0.459458 0.088688
H30   H     H_    0.982213 0.857335 0.585181 0.136674
H31   H     H_    0.569301 0.350977 0.255543 0.154511
H32   H     H_    0.661649 0.407041 0.350047 0.112123
H33   H     H_    0.489322 0.310815 0.393303 0.195873
H34   H     H_    0.906044 0.546328 0.049411 0.073219
H35   H     H_    0.581370 0.365883 0.494207 0.153343
H36   H     H_    0.529618 0.495640 0.392764 0.165081
H37   H     H_    0.428647 0.447208 0.426227 0.137024
H38   H     H_    0.436839 0.440521 0.291401 0.137596
H39   H     H_    0.554298 0.634227 0.285671 0.149103
H40   H     H_    0.681893 0.620353 0.304201 0.110175
H41   H     H_    0.564328 0.781292 0.240422 0.229205
H42   H     H_    0.693899 0.770169 0.256387 0.162771
H43   H     H_    0.656267 0.666011 0.109783 0.145688
H44   H     H_    0.596382 0.761901 0.064940 0.186592
H45   H     H_    0.358209 0.866824 0.975324 0.130487
H46   H     H_    0.526001 0.678074 0.093170 0.135707
H47   H     H_    0.094984 0.829635 0.225477 0.157900
H48   H     H_    0.180160 0.893237 0.317171 0.108241
H49   H     H_    0.995303 0.812817 0.353699 0.197115
H50   H     H_    0.077506 0.881669 0.445449 0.144094
H51   H     H_    0.035475 0.991555 0.306211 0.140314
H52   H     H_    0.927996 0.954047 0.336781 0.126304
H53   H     H_    0.952174 0.922734 0.214766 0.151304
H54   H     H_    0.054024 0.164614 0.278112 0.158782
H55   H     H_    0.151753 0.103120 0.355884 0.098444
H56   H     H_    0.422469 0.828005 0.884074 0.143291
H57   H     H_    0.147375 0.203186 0.153194 0.193212
H58   H     H_    0.252766 0.146753 0.230900 0.190068
H59   H     H_    0.156909 0.017694 0.194052 0.135022
H60   H     H_    0.155417 0.068664 0.071393 0.151681
H61   H     H_    0.048529 0.073269 0.118679 0.146470
H62   H     H_    0.214149 0.902290 0.818683 0.161517
H63   H     H_    0.277773 0.862390 0.729241 0.221898
H64   H     H_    0.285510 0.724597 0.817545 0.193095
O1    O     O_3   0.500010 0.000000 0.500000 -0.450125
O2    O     O_R   0.103010 0.337110 0.452470 -0.507608
O3    O     O_R   0.316670 0.095240 0.537470 -0.538459
O4    O     O_R   0.316670 0.904760 0.537470 -0.561836
O5    O     O_R   0.816670 0.595240 0.537470 -0.529063
O6    O     O_R   0.816670 0.404760 0.537470 -0.544835
O7    O     O_R   0.703490 0.904800 0.585920 -0.540519
O8    O     O_R   0.703490 0.095200 0.585920 -0.545028
O9    O     O_R   0.203490 0.404800 0.585920 -0.543054
O10   O     O_R   0.203490 0.595200 0.585920 -0.546172
O11   O     O_R   0.458050 0.000000 0.725250 -0.464891
O12   O     O_3   0.000010 0.500000 0.500000 -0.457147
O13   O     O_R   0.958050 0.500000 0.725250 -0.471024
O14   O     O_R   0.461630 0.932310 0.264690 -0.527251
O15   O     O_R   0.461630 0.067690 0.264690 -0.550952
O16   O     O_R   0.961630 0.432310 0.264690 -0.491960
O17   O     O_R   0.961630 0.567690 0.264690 -0.551990
O18   O     O_R   0.618750 0.000000 0.745380 -0.551512
O19   O     O_R   0.118750 0.500000 0.745380 -0.549816
O20   O     O_3   0.398032 0.953524 0.879225 -0.556847
O21   O     O_3   0.910563 0.423948 0.876403 -0.551288
O22   O     O_3   0.594225 0.925255 0.125961 -0.594613
O23   O     O_R   0.376880 0.837120 0.424150 -0.542256
O24   O     O_3   0.073991 0.397128 0.125911 -0.557479
O25   O     O_3   0.334486 0.727951 0.629050 -0.620982
O26   O     O_3   0.331114 0.269708 0.631944 -0.582086
O27   O     O_3   0.841634 0.221423 0.621161 -0.608479
O28   O     O_3   0.857876 0.795910 0.589659 -0.587392
O29   O     O_3   0.664159 0.278598 0.366457 -0.583148
O30   O     O_3   0.640894 0.693939 0.416927 -0.586111
O31   O     O_3   0.174699 0.769017 0.359483 -0.581336
O32   O     O_3   0.173913 0.231790 0.359735 -0.577907
O33   O     O_R   0.376880 0.162880 0.424150 -0.570164
O34   O     O_R   0.876880 0.337120 0.424150 -0.553623
O35   O     O_R   0.876880 0.662880 0.424150 -0.572497
O36   O     O_R   0.603010 0.162890 0.452470 -0.519174
O37   O     O_R   0.603010 0.837110 0.452470 -0.520582
O38   O     O_R   0.103010 0.662890 0.452470 -0.514097
Zn1   Zn    Zn3+2 0.485630 0.096680 0.411850 0.915757
Zn2   Zn    Zn3+2 0.485630 0.903320 0.411850 0.935386
Zn3   Zn    Zn3+2 0.985630 0.596680 0.411850 0.927735
Zn4   Zn    Zn3+2 0.985630 0.403320 0.411850 0.958758
Zn5   Zn    Zn3+2 0.399590 0.000000 0.573760 0.961252
Zn6   Zn    Zn3+2 0.899590 0.500000 0.573760 0.974374
Zn7   Zn    Zn3+2 0.629190 0.000000 0.602520 0.929892
Zn8   Zn    Zn3+2 0.129190 0.500000 0.602520 0.933841

loop_
_geom_bond_atom_site_label_1
_geom_bond_atom_site_label_2
_ccdc_geom_bond_type
C29   H11   S    
C24   H62   S    
C19   O28   S    
O1    Zn5   S    
O9    Zn8   S    
C40   H41   S    
C26   O21   S    
C1    C45   S    
C21   C49   D    
C12   C49   S    
C44   H52   S    
C3    O10   A    
C18   C52   S    
C44   H53   S    
C33   O27   S    
C29   O22   S    
C14   H1    S    
C38   H37   S    
O12   Zn6   S    
C34   C51   S    
C37   C38   S    
C4    O9    A    
O35   Zn3   S    
C37   H33   S    
C36   C37   S    
C11   O22   S    
C21   O26   S    
C32   H22   S    
O7    Zn7   S    
C33   H26   S    
C41   H44   S    
C36   H31   S    
C35   H28   S    
C15   C17   D    
C7    O14   A    
C6    C15   S    
C44   H51   S    
C31   H18   S    
C46   O32   S    
O5    Zn6   S    
O1    Zn1   S    
O4    Zn5   S    
C15   H12   S    
C7    O15   A    
C30   H15   S    
C1    O23   A    
C35   O28   S    
C28   H9    S    
C31   H19   S    
C2    C19   S    
C22   H45   S    
C4    O2    A    
C6    O13   A    
C42   O31   S    
C12   O33   A    
C39   H39   S    
C35   H30   S    
O12   Zn3   S    
C23   O6    A    
C28   H8    S    
C35   H29   S    
C5    O18   A    
C30   O24   S    
O12   Zn4   S    
C13   O24   S    
C25   H2    S    
O38   Zn3   S    
C18   O27   S    
C25   H64   S    
C32   H21   S    
C33   H27   S    
C23   C50   S    
C51   O30   S    
O1    Zn7   S    
C47   H57   S    
C10   C13   D    
C3    O38   A    
O16   Zn4   S    
O17   Zn3   S    
C49   O32   S    
C22   O20   S    
C1    O4    A    
C31   O25   S    
C43   C44   S    
C43   H49   S    
C8    O16   A    
C6    O19   A    
C42   H48   S    
C12   O3    A    
C11   C16   S    
C47   C48   S    
O36   Zn1   S    
C52   O36   A    
C46   H55   S    
C5    O11   A    
O1    Zn2   S    
O12   Zn8   S    
C26   C27   S    
C3    C20   S    
C24   C25   S    
O37   Zn2   S    
C9    C11   D    
C5    C14   S    
C29   H13   S    
C50   O29   S    
C8    C10   S    
C40   C41   S    
C48   H60   S    
C23   O34   A    
C34   O5    A    
O19   Zn8   S    
C22   C24   S    
O2    Zn4   S    
C42   C43   S    
C16   O20   S    
O11   Zn5   S    
C39   H40   S    
C39   C40   S    
C30   H17   S    
C18   C50   D    
O8    Zn7   S    
C7    C9    S    
C46   C47   S    
C31   H20   S    
O34   Zn4   S    
C8    O17   A    
C45   O31   S    
C32   O26   S    
C20   O25   S    
C37   H35   S    
C25   H3    S    
C40   H42   S    
C27   H6    S    
C26   H4    S    
C32   H24   S    
O14   Zn2   S    
C34   O35   A    
C10   H34   S    
C2    O37   A    
C47   H58   S    
C38   H38   S    
O18   Zn7   S    
C13   C17   S    
O15   Zn1   S    
O33   Zn1   S    
C43   H50   S    
C27   H7    S    
C42   H47   S    
C20   C45   D    
C4    C21   S    
C52   O8    A    
C33   H25   S    
C41   H43   S    
O23   Zn2   S    
C36   H32   S    
C22   H56   S    
C46   H54   S    
C39   O30   S    
C14   C16   D    
C26   H5    S    
C30   H16   S    
C29   H14   S    
C19   C51   D    
C36   O29   S    
C48   H59   S    
C24   H63   S    
O3    Zn5   S    
C38   H36   S    
C27   C28   S    
O6    Zn6   S    
C41   H46   S    
C17   O21   S    
C9    H23   S    
O10   Zn8   S    
O13   Zn6   S    
C2    O7    A    
C48   H61   S    
C28   H10   S    
