data_mof_unit_43375.cif
_audit_creation_date              2012-12-10T19:27:34-0500
_audit_creation_method            fapswitch 2.2
_symmetry_space_group_name_H-M    P1
_symmetry_Int_Tables_number       1
_space_group_crystal_system       triclinic
_cell_length_a                    18.933645
_cell_length_b                    18.643946
_cell_length_c                    18.843457
_cell_angle_alpha                 109.577016
_cell_angle_beta                  109.99342
_cell_angle_gamma                 109.816958
_cell_volume                      5057.96167071

loop_
_atom_site_label
_atom_site_type_symbol
_atom_type_description
_atom_site_fract_x
_atom_site_fract_y
_atom_site_fract_z
_atom_type_partial_charge
C1    C     C_R   0.380060 0.379133 0.499349 0.921099
C2    C     C_R   0.595319 0.339039 0.619503 -0.321237
C3    C     C_R   0.243896 0.239936 0.422102 0.118459
C4    C     C_R   0.618425 0.498798 0.619965 0.846961
C5    C     C_R   0.318472 0.310879 0.500993 -0.244257
C6    C     C_R   0.335714 0.311975 0.580200 0.550469
C7    C     C_R   0.268823 0.248296 0.579563 -0.310433
C8    C     C_R   0.188449 0.184909 0.500896 -0.156016
C9    C     C_R   0.179127 0.177823 0.422043 0.060334
C10   C     C_3   0.108083 0.171513 0.349162 -0.532811
C11   C     C_3   0.180105 0.240487 0.349215 0.313496
C12   C     C_R   0.763121 0.583246 0.751876 -0.080984
C13   C     C_R   0.327825 0.520948 0.256316 -0.082432
C14   C     C_R   0.311273 0.496514 0.313611 -0.113093
C15   C     C_R   0.235605 0.486925 0.316937 0.444840
C16   C     C_R   0.617228 0.621238 0.498487 0.962660
C17   C     C_R   0.171421 0.487110 0.251669 -0.251941
C18   C     C_R   0.187240 0.505322 0.190357 -0.158475
C19   C     C_R   0.269393 0.530907 0.199451 0.044470
C20   C     C_3   0.296260 0.505601 0.133233 0.151933
C21   C     C_3   0.360773 0.492964 0.196139 0.175674
C22   C     C_R   0.762288 0.695119 0.523820 -0.018256
C23   C     C_R   0.815598 0.506203 0.817387 -0.128749
C24   C     C_R   0.683289 0.691940 0.503566 -0.276503
C25   C     C_R   0.674801 0.763734 0.500096 0.314856
C26   C     C_R   0.736838 0.822256 0.491405 0.368012
C27   C     C_R   0.813431 0.818690 0.504328 -0.335369
C28   C     C_R   0.378457 0.498063 0.379535 0.962530
C29   C     C_R   0.828098 0.759541 0.527587 0.094914
C30   C     C_3   0.854717 0.696078 0.489642 0.310504
C31   C     C_3   0.781626 0.625164 0.486328 -0.454395
C32   C     C_R   0.995343 0.379500 0.875678 0.985147
C33   C     C_R   0.880444 0.504648 0.884090 0.964592
C34   C     C_R   0.743527 0.422912 0.743304 0.020401
C35   C     C_R   0.001327 0.621013 0.121224 0.937469
C36   C     C_R   0.120350 0.500399 0.120487 0.912838
C37   C     C_R   0.000288 0.119862 0.620575 0.953434
C38   C     C_R   0.120470 0.120969 0.500993 0.893130
C39   C     C_R   0.000738 0.881453 0.379847 0.864152
C40   C     C_R   0.777780 0.660166 0.745832 -0.203562
C41   C     C_R   0.879608 0.879649 0.499692 0.934473
C42   C     C_R   0.005599 0.248836 0.820184 -0.082584
C43   C     C_R   0.994000 0.314140 0.807195 -0.236749
C44   C     C_R   0.000941 0.325650 0.738224 0.340902
C45   C     C_R   0.674258 0.421111 0.683137 0.011663
C46   C     C_R   0.009863 0.264048 0.679394 0.421325
C47   C     C_R   0.007658 0.191386 0.687985 -0.242777
C48   C     C_R   0.016306 0.191034 0.763928 -0.212708
C49   C     C_3   0.973135 0.118399 0.779475 0.223004
C50   C     C_3   0.960350 0.184522 0.842978 0.911261
C51   C     C_R   0.933321 0.665565 0.204506 0.029976
C52   C     C_R   0.842512 0.744080 0.816297 0.558634
C53   C     C_R   0.999843 0.688435 0.184936 -0.087192
C54   C     C_R   0.061100 0.778519 0.223098 -0.134893
C55   C     C_R   0.061566 0.843185 0.287692 -0.193489
C56   C     C_R   0.686064 0.500984 0.686467 -0.060594
C57   C     C_R   0.000020 0.817384 0.312498 -0.011869
C58   C     C_R   0.932520 0.730168 0.265977 -0.002615
C59   C     C_3   0.897506 0.673605 0.299462 -0.576055
C60   C     C_3   0.898621 0.600831 0.232354 0.721583
C61   C     C_R   0.899382 0.751782 0.892523 -0.369549
C62   C     C_R   0.895909 0.676221 0.896423 0.490159
C63   C     C_R   0.825817 0.588724 0.823854 -0.035429
C64   C     C_3   0.131437 0.215509 0.208840 -0.179536
C65   C     C_3   0.204439 0.526149 0.426451 -0.184493
C66   C     C_3   0.667159 0.839735 0.379146 -0.044309
C67   C     C_R   0.739693 0.341062 0.726120 -0.255858
C68   C     C_3   0.103530 0.313505 0.634664 -0.184727
C69   C     C_3   0.865331 0.886213 0.878547 -0.257038
C70   C     C_3   0.116451 0.145187 0.863294 -0.062983
C71   C     C_3   0.809623 0.079679 0.774537 -0.227021
C72   C     C_3   0.975716 0.162078 0.961087 -0.236401
C73   C     C_3   0.043560 0.752097 0.000481 -0.195509
C74   C     C_3   0.452155 0.348642 0.707567 -0.256395
C75   C     C_R   0.664914 0.259479 0.657310 0.307725
C76   C     C_R   0.589377 0.258411 0.606850 0.382542
H1    H     H_    0.277155 0.251162 0.640413 0.166587
H2    H     H_    0.728330 0.571515 0.418188 0.198715
H3    H     H_    0.803820 0.602019 0.532260 0.246790
H4    H     H_    0.912434 0.061597 0.717642 0.102599
H5    H     H_    0.110663 0.798711 0.206056 0.172045
H6    H     H_    0.111066 0.912288 0.319970 0.154047
H7    H     H_    0.944902 0.699886 0.369222 0.243732
H8    H     H_    0.831123 0.660622 0.285793 0.217592
H9    H     H_    0.949556 0.817161 0.948262 0.158585
H10   H     H_    0.795935 0.339313 0.763933 0.223856
H11   H     H_    0.537530 0.336887 0.578469 0.210697
H12   H     H_    0.069045 0.104934 0.288876 0.228407
H13   H     H_    0.412551 0.033033 0.510959 0.393977
H14   H     H_    0.156751 0.286761 0.229872 0.189950
H15   H     H_    0.062366 0.182552 0.192750 0.125230
H16   H     H_    0.132157 0.183382 0.147989 0.209994
H17   H     H_    0.253371 0.596156 0.452456 0.180259
H18   H     H_    0.210004 0.518657 0.483773 0.193559
H19   H     H_    0.136892 0.511753 0.388174 0.206581
H20   H     H_    0.242032 0.546826 0.993697 0.356450
H21   H     H_    0.468035 0.413065 0.215193 0.347822
H22   H     H_    0.446954 0.703238 0.424018 0.391784
H23   H     H_    0.068921 0.196427 0.370348 0.191601
H24   H     H_    0.693117 0.808149 0.341794 0.122450
H25   H     H_    0.661104 0.889660 0.362105 0.198892
H26   H     H_    0.600425 0.788780 0.357150 0.199230
H27   H     H_    0.035739 0.775073 0.704933 0.387478
H28   H     H_    0.916670 0.473717 0.726062 0.387111
H29   H     H_    0.134029 0.274513 0.648483 0.103221
H30   H     H_    0.141253 0.381776 0.692464 0.186569
H31   H     H_    0.107574 0.319070 0.579203 0.191907
H32   H     H_    0.935863 0.928039 0.930013 0.163406
H33   H     H_    0.824656 0.862450 0.905732 0.151951
H34   H     H_    0.184468 0.306123 0.370424 0.114517
H35   H     H_    0.846350 0.928900 0.857373 0.186052
H36   H     H_    0.138481 0.213688 0.911621 0.203815
H37   H     H_    0.136595 0.145349 0.814476 0.165950
H38   H     H_    0.150170 0.119865 0.899994 0.191697
H39   H     H_    0.756260 0.076002 0.787991 0.220593
H40   H     H_    0.833752 0.040195 0.796959 0.108825
H41   H     H_    0.780912 0.049174 0.702423 0.238174
H42   H     H_    0.022460 0.189498 0.031094 0.175605
H43   H     H_    0.963501 0.094490 0.923810 0.169621
H44   H     H_    0.914985 0.159965 0.956824 0.179482
H45   H     H_    0.108888 0.470526 0.247160 0.218210
H46   H     H_    0.915106 0.428443 0.202416 0.384526
H47   H     H_    0.669129 0.490441 0.060522 0.392366
H48   H     H_    0.062210 0.819089 0.048826 0.150441
H49   H     H_    0.051969 0.753097 0.944973 0.151068
H50   H     H_    0.091066 0.735800 0.033626 0.206857
H51   H     H_    0.669942 0.164983 0.753801 0.345585
H52   H     H_    0.522918 0.398732 0.752806 0.198090
H53   H     H_    0.446904 0.285853 0.666483 0.195450
H54   H     H_    0.423279 0.340063 0.748541 0.176429
H55   H     H_    0.241932 0.444483 0.069739 0.116940
H56   H     H_    0.737434 0.656542 0.686460 0.175726
H57   H     H_    0.431003 0.540554 0.224651 0.137158
H58   H     H_    0.844308 0.682924 0.423960 0.055796
O1    O     O_R   0.408400 0.356680 0.448290 -0.586734
O2    O     O_R   0.948300 0.091670 0.539990 -0.558755
O3    O     O_R   0.143340 0.091640 0.551750 -0.623600
O4    O     O_R   0.408370 0.460100 0.551700 -0.592430
O5    O     O_R   0.039900 0.091690 0.448360 -0.618217
O6    O     O_R   0.051700 0.908430 0.460110 -0.582425
O7    O     O_R   0.948260 0.908480 0.356720 -0.628912
O8    O     O_R   0.960100 0.908410 0.551740 -0.565180
O9    O     O_R   0.856660 0.908460 0.448350 -0.606568
O10   O     O_R   0.591630 0.448290 0.539910 -0.616328
O11   O     O_R   0.591590 0.551710 0.643320 -0.618424
O12   O     O_R   0.051700 0.460090 0.908430 -0.594246
O13   O     O_R   0.591630 0.539900 0.448300 -0.636779
O14   O     O_R   0.591600 0.643320 0.551710 -0.562858
O15   O     O_R   0.408410 0.448290 0.356680 -0.562832
O16   O     O_R   0.408370 0.551710 0.460090 -0.598073
O17   O     O_R   0.948260 0.356680 0.908450 -0.580955
O18   O     O_2   0.414706 0.179219 0.504057 -0.339426
O19   O     O_2   0.490279 0.118194 0.443885 -0.218397
O20   O     O_3   0.467240 0.087841 0.561673 -0.470730
O21   O     O_3   0.185230 0.205477 0.273335 -0.548124
O22   O     O_3   0.220525 0.465313 0.376033 -0.659923
O23   O     O_R   0.856640 0.448300 0.908430 -0.638434
O24   O     O_2   0.405072 0.681479 0.207827 -0.240173
O25   O     O_2   0.408062 0.580846 0.087150 -0.277471
O26   O     O_3   0.275558 0.604547 0.049080 -0.480819
O27   O     O_2   0.251102 0.323496 0.144823 -0.294583
O28   O     O_2   0.318617 0.345047 0.058161 -0.304477
O29   O     O_3   0.415353 0.370750 0.210326 -0.473683
O30   O     O_2   0.591632 0.791656 0.588081 -0.268196
O31   O     O_2   0.593594 0.860350 0.499036 -0.201246
O32   O     O_3   0.492029 0.690194 0.418621 -0.603386
O33   O     O_3   0.723649 0.883116 0.471012 -0.558499
O34   O     O_R   0.960090 0.551710 0.908400 -0.565784
O35   O     O_2   0.969445 0.643408 0.538906 -0.222997
O36   O     O_2   0.029431 0.794682 0.564839 -0.267669
O37   O     O_3   0.976534 0.762491 0.667311 -0.525120
O38   O     O_2   0.082000 0.496494 0.784129 -0.288572
O39   O     O_2   0.969769 0.391100 0.629163 -0.203221
O40   O     O_3   0.918843 0.427613 0.740200 -0.588126
O41   O     O_3   0.014684 0.271111 0.610182 -0.541267
O42   O     O_3   0.851191 0.816032 0.805140 -0.567557
O43   O     O_3   0.025091 0.088149 0.820991 -0.604907
O44   O     O_3   0.874262 0.169926 0.817138 -0.612490
O45   O     O_R   0.948250 0.539920 0.091630 -0.550160
O46   O     O_3   0.013603 0.218563 0.933991 -0.612475
O47   O     O_2   0.065881 0.644877 0.332475 -0.304695
O48   O     O_2   0.954115 0.549963 0.348641 -0.243743
O49   O     O_3   0.961792 0.479695 0.209098 -0.540090
O50   O     O_2   0.793087 0.442188 0.079420 -0.283108
O51   O     O_2   0.751345 0.464094 0.191192 -0.271326
O52   O     O_3   0.727864 0.544170 0.103483 -0.569558
O53   O     O_3   0.957503 0.688904 0.973005 -0.610729
O54   O     O_2   0.619014 0.094633 0.542443 -0.140110
O55   O     O_2   0.764347 0.184945 0.673606 -0.289909
O56   O     O_R   0.051690 0.643330 0.091610 -0.638819
O57   O     O_3   0.630858 0.118710 0.690795 -0.475217
O58   O     O_3   0.413684 0.380763 0.657213 -0.604193
O59   O     O_R   0.039870 0.448310 0.091660 -0.590039
O60   O     O_R   0.143310 0.551720 0.091640 -0.589015
O61   O     O_R   0.051740 0.091620 0.643380 -0.639591
S1    S     S_3+6 0.487450 0.159426 0.525656 0.073275
S2    S     S_3+6 0.350094 0.596307 0.120831 0.058097
S3    S     S_3+6 0.333247 0.379172 0.149402 0.037637
S4    S     S_3+6 0.587905 0.779807 0.503708 0.057359
S5    S     S_3+6 0.961408 0.724460 0.565671 0.072110
S6    S     S_3+6 0.994461 0.412385 0.721525 0.073834
S7    S     S_3+6 0.973018 0.569901 0.283998 0.049443
S8    S     S_3+6 0.790373 0.508143 0.149424 0.040529
S9    S     S_3+6 0.670795 0.162382 0.638687 0.119733
Zn1   Zn    Zn3+2 0.500020 0.430950 0.430950 1.109354
Zn2   Zn    Zn3+2 0.499980 0.569050 0.569050 1.084279
Zn3   Zn    Zn3+2 0.930910 0.430960 0.000050 1.115631
Zn4   Zn    Zn3+2 0.069050 0.569060 0.000020 1.087241
Zn5   Zn    Zn3+2 0.069070 0.000020 0.569080 1.071278
Zn6   Zn    Zn3+2 0.930930 0.000080 0.431020 1.033196

loop_
_geom_bond_atom_site_label_1
_geom_bond_atom_site_label_2
_ccdc_geom_bond_type
C30   S5    S    
C28   O16   A    
C42   C43   A    
O59   Zn3   S    
C22   C29   A    
C35   C53   S    
C66   H26   S    
O47   S7    D    
O23   Zn3   S    
C64   H14   S    
C21   S3    S    
C75   C76   A    
O36   S5    D    
O4    Zn2   S    
C7    C8    A    
C69   O42   S    
C53   C54   A    
C70   H38   S    
C32   O17   A    
C64   O21   S    
C10   H12   S    
C26   C27   A    
C29   C30   S    
C8    C38   S    
O27   S3    D    
C16   O13   A    
C1    C5    S    
C37   O61   A    
C71   O44   S    
C50   O44   S    
C59   H7    S    
C41   O9    A    
C65   O22   S    
O29   S3    S    
C52   C61   A    
O31   S4    D    
C30   C31   S    
C73   H49   S    
C27   C29   A    
C73   H50   S    
C39   C57   S    
O24   S2    D    
O39   S6    D    
C18   C19   A    
C46   C47   A    
C66   H24   S    
O13   Zn1   S    
O32   S4    S    
C76   S1    S    
C36   O59   A    
C69   H33   S    
C68   O41   S    
C74   H52   S    
C39   O7    A    
C45   C56   A    
C44   C46   A    
C8    C9    A    
C30   H58   S    
C39   O6    A    
C38   O5    A    
O34   Zn4   S    
C68   H31   S    
C37   C47   S    
C9    C10   S    
C52   O42   S    
O30   S4    D    
O14   Zn2   S    
O1    Zn1   S    
O20   S1    S    
C23   C34   A    
C23   C63   A    
C40   H56   S    
C28   O15   A    
C70   H37   S    
O50   S8    D    
C13   C14   A    
C4    C56   S    
C11   H34   S    
H27   O37   S    
C66   H25   S    
O38   S6    D    
C68   H30   S    
C21   H57   S    
O11   Zn2   S    
C73   O53   S    
C69   H32   S    
C33   O23   A    
O6    Zn5   S    
O9    Zn6   S    
C49   O43   S    
O5    Zn6   S    
C35   O45   A    
O45   Zn3   S    
C26   O33   S    
C22   C31   S    
O18   S1    D    
C71   H39   S    
C17   H45   S    
C24   C25   A    
O16   Zn2   S    
O12   Zn4   S    
C10   C11   S    
O15   Zn1   S    
C51   C58   A    
C12   C63   A    
C71   H41   S    
C13   C19   A    
H28   O40   S    
C23   C33   S    
C25   C26   A    
C40   C52   A    
O54   S9    D    
O40   S6    S    
H51   O57   S    
O3    Zn5   S    
C51   C53   A    
C12   C40   A    
C50   O46   S    
C43   C44   A    
C59   C60   S    
O37   S5    S    
C25   S4    S    
H21   O29   S    
C27   C41   S    
C60   S8    S    
C47   C48   A    
C14   C15   A    
C65   H19   S    
C73   H48   S    
C72   H44   S    
C62   C63   A    
C17   C18   A    
C37   O2    A    
C13   C21   S    
C2    H11   S    
C34   C45   A    
C42   C48   A    
C59   H8    S    
C55   H6    S    
C31   H3    S    
C3    C9    A    
C15   O22   S    
H22   O32   S    
C61   H9    S    
C42   C50   S    
O35   S5    D    
O2    Zn6   S    
C66   O33   S    
O56   Zn4   S    
C65   H18   S    
H20   O26   S    
C49   C50   S    
C35   O56   A    
C74   H54   S    
C44   S6    S    
C74   O58   S    
C33   O34   A    
C67   C75   A    
O57   S9    S    
C64   H16   S    
C20   H55   S    
C72   H42   S    
C2    C76   A    
C31   H2    S    
O10   Zn1   S    
C60   S7    S    
C15   C17   A    
C54   C55   A    
H46   O49   S    
C67   H10   S    
O48   S7    D    
O49   S7    S    
C3    C5    A    
C34   C67   A    
C4    O10   A    
C75   S9    S    
C38   O3    A    
C70   O43   S    
O61   Zn5   S    
C6    C7    A    
C11   O21   S    
O60   Zn4   S    
O28   S3    D    
O8    Zn5   S    
C49   H4    S    
C7    H1    S    
C16   O14   A    
O17   Zn3   S    
O51   S8    D    
C19   C20   S    
C55   C57   A    
C58   C59   S    
C41   O8    A    
C69   H35   S    
H13   O20   S    
C5    C6    A    
O19   S1    D    
H47   O52   S    
C48   C49   S    
C4    O11   A    
C72   H43   S    
C65   H17   S    
C12   C56   A    
C32   C43   S    
C71   H40   S    
C10   H23   S    
C22   C24   A    
C61   C62   A    
C70   H36   S    
C36   O60   A    
C20   S2    S    
C3    C11   S    
C2    C45   A    
O25   S2    D    
C32   O12   A    
C20   C21   S    
C16   C24   S    
O55   S9    D    
C68   H29   S    
C74   H53   S    
C6    O58   S    
O52   S8    S    
C72   O46   S    
C46   O41   S    
C51   C60   S    
C64   H15   S    
C14   C28   S    
C57   C58   A    
C1    O1    A    
C18   C36   S    
O7    Zn6   S    
C54   H5    S    
C1    O4    A    
C62   O53   S    
O26   S2    S    
