data_mof_unit_28795.cif
_audit_creation_date              2012-12-10T16:37:55-0500
_audit_creation_method            fapswitch 2.2
_symmetry_space_group_name_H-M    P1
_symmetry_Int_Tables_number       1
_space_group_crystal_system       triclinic
_cell_length_a                    28.252749
_cell_length_b                    18.670101
_cell_length_c                    16.692339
_cell_angle_alpha                 89.776086
_cell_angle_beta                  60.704819
_cell_angle_gamma                 89.951108
_cell_volume                      7678.78342096

loop_
_atom_site_label
_atom_site_type_symbol
_atom_type_description
_atom_site_fract_x
_atom_site_fract_y
_atom_site_fract_z
_atom_type_partial_charge
C1    C     C_R   0.701959 0.269424 0.676917 0.923976
C2    C     C_R   0.301192 0.738274 0.322431 0.916209
C3    C     C_R   0.300725 0.262777 0.322095 0.924236
C4    C     C_R   0.699238 0.737637 0.677736 0.925886
C5    C     C_R   0.202149 0.770452 0.676794 0.921861
C6    C     C_R   0.801046 0.237742 0.322408 0.918623
C7    C     C_R   0.800884 0.762436 0.321972 0.921108
C8    C     C_R   0.199257 0.237222 0.677909 0.929489
C9    C     C_R   0.899313 0.499876 0.506067 -0.003180
C10   C     C_R   0.100814 0.500138 0.493531 -0.001654
C11   C     C_R   0.399449 0.999897 0.505694 -0.003018
C12   C     C_R   0.600944 0.000120 0.493183 -0.001488
C13   C     C_R   0.108187 0.373361 0.465633 0.312514
C14   C     C_R   0.891978 0.626657 0.533979 0.313726
C15   C     C_R   0.892713 0.372725 0.532339 0.312966
C16   C     C_R   0.107564 0.627257 0.466921 0.308795
C17   C     C_R   0.608198 0.873289 0.465642 0.311336
C18   C     C_R   0.392241 0.126716 0.533314 0.314260
C19   C     C_R   0.392716 0.872797 0.532371 0.312207
C20   C     C_R   0.607799 0.127210 0.466348 0.308937
C21   C     C_R   0.719377 0.271902 0.959708 0.039880
C22   C     C_R   0.277862 0.739598 0.052594 0.042719
C23   C     C_R   0.282680 0.260760 0.042193 0.039358
C24   C     C_R   0.725369 0.725767 0.946877 0.043822
C25   C     C_R   0.220920 0.779185 0.957627 0.039689
C26   C     C_R   0.776749 0.233886 0.054027 0.043211
C27   C     C_R   0.786168 0.753947 0.038077 0.042255
C28   C     C_R   0.216901 0.239686 0.958151 0.040710
C29   C     C_R   0.749068 0.207185 0.937319 0.007182
C30   C     C_R   0.247808 0.804329 0.075358 0.011176
C31   C     C_R   0.237023 0.215243 0.084089 0.006633
C32   C     C_R   0.762498 0.782960 0.917432 0.008821
C33   C     C_R   0.248916 0.713038 0.937589 0.009096
C34   C     C_R   0.746109 0.297750 0.077198 0.012478
C35   C     C_R   0.747551 0.698127 0.070121 0.002644
C36   C     C_R   0.262530 0.285245 0.916286 0.005916
C37   C     C_R   0.777340 0.187345 0.986053 0.074985
C38   C     C_R   0.218859 0.823966 0.028183 0.074979
C39   C     C_R   0.202793 0.207265 0.043998 0.070326
C40   C     C_R   0.796380 0.792201 0.957519 0.075749
C41   C     C_R   0.277891 0.693252 0.985044 0.075689
C42   C     C_R   0.715562 0.314974 0.032750 0.079506
C43   C     C_R   0.720129 0.680538 0.019665 0.076527
C44   C     C_R   0.296751 0.293232 0.956387 0.071347
C45   C     C_R   0.658940 0.354657 0.937389 0.058708
C46   C     C_R   0.341662 0.659454 0.071888 0.036264
C47   C     C_R   0.361008 0.318014 0.043662 0.036782
C48   C     C_R   0.658844 0.653535 0.927815 0.036166
C49   C     C_R   0.162771 0.863607 0.931410 0.053169
C50   C     C_R   0.840734 0.155519 0.073786 0.032793
C51   C     C_R   0.860098 0.819118 0.044735 0.037352
C52   C     C_R   0.138650 0.182339 0.956584 0.033781
C53   C     C_R   0.632470 0.375192 0.886865 -0.199352
C54   C     C_R   0.378570 0.649242 0.107519 -0.213991
C55   C     C_R   0.389454 0.336508 0.092739 -0.205697
C56   C     C_R   0.621913 0.647266 0.892172 -0.192527
C57   C     C_R   0.135026 0.882400 0.882710 -0.203854
C58   C     C_R   0.878038 0.147119 0.108608 -0.207664
C59   C     C_R   0.888704 0.837508 0.093604 -0.206192
C60   C     C_R   0.110311 0.163700 0.907403 -0.187355
C61   C     C_R   0.654051 0.354603 0.797802 0.176429
C62   C     C_R   0.374288 0.693079 0.178313 0.191262
C63   C     C_R   0.376563 0.302130 0.174955 0.175978
C64   C     C_R   0.626682 0.693012 0.822541 0.193500
C65   C     C_R   0.154722 0.858708 0.795090 0.183717
C66   C     C_R   0.873912 0.191575 0.178792 0.191630
C67   C     C_R   0.876598 0.802312 0.175045 0.175420
C68   C     C_R   0.123315 0.197886 0.825017 0.186552
C69   C     C_R   0.681877 0.289596 0.772195 -0.181245
C70   C     C_R   0.329692 0.737119 0.221304 -0.194617
C71   C     C_R   0.328220 0.264153 0.220483 -0.197661
C72   C     C_R   0.672486 0.734999 0.778889 -0.201431
C73   C     C_R   0.182189 0.793098 0.771341 -0.182184
C74   C     C_R   0.829268 0.235392 0.221457 -0.192446
C75   C     C_R   0.828975 0.762933 0.219971 -0.196762
C76   C     C_R   0.171653 0.235901 0.779539 -0.202899
C77   C     C_R   0.698029 0.254644 0.832948 0.031791
C78   C     C_R   0.304825 0.763270 0.170530 0.044435
C79   C     C_R   0.301363 0.240476 0.170840 0.036064
C80   C     C_R   0.699906 0.756316 0.828166 0.044728
C81   C     C_R   0.197986 0.759525 0.833077 0.032233
C82   C     C_R   0.804098 0.260106 0.170785 0.043497
C83   C     C_R   0.803813 0.736492 0.168656 0.040746
C84   C     C_R   0.198367 0.259757 0.829320 0.036653
C85   C     C_R   0.695734 0.128362 0.519609 0.892029
C86   C     C_R   0.304284 0.871641 0.480337 0.897987
C87   C     C_R   0.304245 0.128367 0.480453 0.898658
C88   C     C_R   0.695761 0.871633 0.519524 0.893442
C89   C     C_R   0.195707 0.628366 0.519688 0.894126
C90   C     C_R   0.804285 0.371637 0.480328 0.901121
C91   C     C_R   0.804210 0.628363 0.480562 0.896985
C92   C     C_R   0.195758 0.371636 0.519526 0.893927
C93   C     C_R   0.692702 0.293897 0.909482 0.045334
C94   C     C_R   0.308234 0.721045 0.097864 0.047598
C95   C     C_R   0.314808 0.273434 0.085911 0.034728
C96   C     C_R   0.694414 0.712399 0.901561 0.043300
C97   C     C_R   0.194433 0.800889 0.906955 0.047884
C98   C     C_R   0.807213 0.216656 0.099189 0.046615
C99   C     C_R   0.816264 0.770351 0.084485 0.036024
C100  C     C_R   0.184847 0.226910 0.914342 0.035258
C101  C     C_R   0.653451 0.393506 0.013381 -0.146488
C102  C     C_R   0.337525 0.611712 0.010543 -0.141979
C103  C     C_R   0.378948 0.338123 0.951247 -0.154100
C104  C     C_R   0.661126 0.603754 0.989403 -0.133503
C105  C     C_R   0.160754 0.906762 0.001456 -0.134108
C106  C     C_R   0.836566 0.106663 0.013352 -0.139501
C107  C     C_R   0.875878 0.843224 0.954296 -0.157124
C108  C     C_R   0.120606 0.162372 0.049073 -0.141715
C109  C     C_R   0.680487 0.374127 0.059976 -0.195206
C110  C     C_R   0.307116 0.628388 0.967666 -0.178839
C111  C     C_R   0.346950 0.328374 0.910120 -0.211541
C112  C     C_R   0.689513 0.617532 0.036147 -0.184100
C113  C     C_R   0.187872 0.887545 0.048692 -0.184157
C114  C     C_R   0.806319 0.122463 0.969858 -0.179125
C115  C     C_R   0.843231 0.834081 0.914737 -0.216973
C116  C     C_R   0.152569 0.172158 0.090269 -0.211785
C117  C     C_R   0.720443 0.184648 0.820837 0.232188
C118  C     C_R   0.278029 0.830120 0.188302 0.231369
C119  C     C_R   0.263958 0.182334 0.198925 0.244889
C120  C     C_R   0.731531 0.819656 0.808651 0.241030
C121  C     C_R   0.218341 0.688695 0.824140 0.231946
C122  C     C_R   0.777900 0.327154 0.186819 0.235276
C123  C     C_R   0.769437 0.675127 0.194191 0.235277
C124  C     C_R   0.235665 0.318009 0.801311 0.244626
C125  C     C_R   0.747353 0.163533 0.869468 -0.176413
C126  C     C_R   0.249516 0.848864 0.142400 -0.181465
C127  C     C_R   0.230120 0.173880 0.159951 -0.175874
C128  C     C_R   0.763614 0.830585 0.850533 -0.184746
C129  C     C_R   0.245054 0.667833 0.872970 -0.176199
C130  C     C_R   0.749170 0.344549 0.141092 -0.183195
C131  C     C_R   0.740073 0.659442 0.148393 -0.180874
C132  C     C_R   0.269424 0.326605 0.840413 -0.177196
C133  C     C_R   0.071357 0.103830 0.936893 0.938447
C134  C     C_R   0.927696 0.897180 0.064066 0.958888
C135  C     C_R   0.922077 0.095209 0.070389 0.952389
C136  C     C_R   0.084659 0.923292 0.923391 0.953782
C137  C     C_R   0.577394 0.596031 0.930117 0.944936
C138  C     C_R   0.428428 0.396384 0.063307 0.952927
C139  C     C_R   0.422194 0.595881 0.070133 0.962181
C140  C     C_R   0.583344 0.418030 0.925117 0.930572
C141  C     C_R   0.553555 0.130493 0.485428 -0.098571
C142  C     C_R   0.447024 0.869542 0.512872 -0.097860
C143  C     C_R   0.446514 0.130270 0.513951 -0.096310
C144  C     C_R   0.554005 0.869746 0.484572 -0.096295
C145  C     C_R   0.053286 0.630508 0.486190 -0.098804
C146  C     C_R   0.947025 0.369515 0.512794 -0.097843
C147  C     C_R   0.946227 0.630242 0.514778 -0.096728
C148  C     C_R   0.054004 0.369772 0.484500 -0.095009
C149  C     C_R   0.526690 0.196130 0.492715 0.253818
C150  C     C_R   0.473912 0.803910 0.505416 0.260931
C151  C     C_R   0.473159 0.196018 0.506965 0.260428
C152  C     C_R   0.527392 0.804001 0.491379 0.261160
C153  C     C_R   0.026364 0.696130 0.493687 0.253926
C154  C     C_R   0.974001 0.303899 0.504986 0.259933
C155  C     C_R   0.972826 0.695999 0.507966 0.260624
C156  C     C_R   0.027486 0.304011 0.490925 0.259371
C157  C     C_R   0.474175 0.065405 0.504023 -0.018198
C158  C     C_R   0.526370 0.934622 0.494358 -0.018073
C159  C     C_R   0.526137 0.065491 0.494819 -0.018087
C160  C     C_R   0.474423 0.934541 0.503509 -0.017354
C161  C     C_R   0.973944 0.565393 0.504691 -0.018190
C162  C     C_R   0.026286 0.434627 0.494571 -0.018356
C163  C     C_R   0.025913 0.565494 0.495463 -0.017964
C164  C     C_R   0.974340 0.434532 0.503719 -0.017800
C165  C     C_R   0.948721 0.499920 0.506935 0.030293
C166  C     C_R   0.051484 0.500101 0.492414 0.029174
C167  C     C_R   0.448879 0.999936 0.506490 0.030431
C168  C     C_R   0.551637 0.000090 0.491987 0.029460
C169  C     C_R   0.873936 0.435005 0.507972 -0.009845
C170  C     C_R   0.126188 0.565005 0.491658 -0.011767
C171  C     C_R   0.126424 0.435331 0.491146 -0.006373
C172  C     C_R   0.873641 0.564674 0.508664 -0.006655
C173  C     C_R   0.374002 0.935033 0.507809 -0.009076
C174  C     C_R   0.626334 0.064980 0.491279 -0.011898
C175  C     C_R   0.626498 0.935304 0.490966 -0.007257
C176  C     C_R   0.373807 0.064704 0.508223 -0.006560
C177  C     C_R   0.829761 0.436037 0.489191 -0.075625
C178  C     C_R   0.170220 0.563967 0.510819 -0.084631
C179  C     C_R   0.170325 0.436157 0.510572 -0.080125
C180  C     C_R   0.829620 0.563841 0.489545 -0.081201
C181  C     C_R   0.329793 0.936050 0.489109 -0.075644
C182  C     C_R   0.670294 0.063956 0.510624 -0.083949
C183  C     C_R   0.670362 0.936145 0.510481 -0.080324
C184  C     C_R   0.329707 0.063854 0.489305 -0.081788
C185  C     C_R   0.809978 0.500004 0.476753 -0.268040
C186  C     C_R   0.189862 0.499995 0.523593 -0.291799
C187  C     C_R   0.310014 0.000010 0.476646 -0.268629
C188  C     C_R   0.689895 0.999989 0.523503 -0.291260
H1    H     H_    0.777582 0.500089 0.459570 0.199884
H2    H     H_    0.222117 0.499905 0.541117 0.195895
H3    H     H_    0.277571 0.000085 0.459579 0.200230
H4    H     H_    0.722103 0.999905 0.541139 0.195980
H5    H     H_    0.629956 0.441484 0.037378 0.157255
H6    H     H_    0.356598 0.559736 0.995709 0.169645
H7    H     H_    0.419207 0.357801 0.905802 0.188629
H8    H     H_    0.641962 0.552561 0.001419 0.146162
H9    H     H_    0.140137 0.957920 0.017901 0.161490
H10   H     H_    0.855669 0.054687 0.999619 0.168473
H11   H     H_    0.914859 0.865754 0.907971 0.192952
H12   H     H_    0.080311 0.142738 0.094444 0.203564
H13   H     H_    0.671927 0.406550 0.118762 0.145275
H14   H     H_    0.308096 0.588993 0.919990 0.139903
H15   H     H_    0.363868 0.345505 0.839462 0.165633
H16   H     H_    0.688168 0.576310 0.082635 0.132023
H17   H     H_    0.183250 0.924400 0.101365 0.140943
H18   H     H_    0.806818 0.082357 0.923301 0.138303
H19   H     H_    0.857890 0.855566 0.846346 0.164699
H20   H     H_    0.135616 0.155085 0.160953 0.168361
H21   H     H_    0.765119 0.110850 0.854609 0.144484
H22   H     H_    0.230585 0.900729 0.158931 0.144524
H23   H     H_    0.201623 0.129815 0.184753 0.149033
H24   H     H_    0.786880 0.879679 0.834200 0.147354
H25   H     H_    0.260633 0.613985 0.861282 0.143809
H26   H     H_    0.731928 0.397528 0.153611 0.141912
H27   H     H_    0.712423 0.614704 0.174457 0.152074
H28   H     H_    0.297862 0.370732 0.815662 0.149907
O1    O     O_R   0.746490 0.236330 0.638080 -0.590472
O2    O     O_R   0.253510 0.763670 0.361920 -0.588290
O3    O     O_R   0.253510 0.236330 0.361920 -0.596861
O4    O     O_R   0.746490 0.763670 0.638080 -0.594413
O5    O     O_R   0.246490 0.736330 0.638080 -0.589294
O6    O     O_R   0.753510 0.263670 0.361920 -0.588495
O7    O     O_R   0.753510 0.736330 0.361920 -0.594919
O8    O     O_R   0.246490 0.263670 0.638080 -0.597165
O9    O     O_R   0.674170 0.186160 0.516270 -0.592538
O10   O     O_R   0.325830 0.813840 0.483730 -0.590291
O11   O     O_R   0.325830 0.186160 0.483730 -0.583525
O12   O     O_R   0.674170 0.813840 0.516270 -0.584704
O13   O     O_R   0.174170 0.686160 0.516270 -0.591742
O14   O     O_R   0.825830 0.313840 0.483730 -0.589875
O15   O     O_R   0.825830 0.686160 0.483730 -0.583970
O16   O     O_R   0.174170 0.313840 0.516270 -0.583235
O17   O     O_R   0.739960 0.127620 0.525000 -0.638733
O18   O     O_R   0.260040 0.872380 0.475000 -0.627710
O19   O     O_R   0.260040 0.127620 0.475000 -0.638503
O20   O     O_R   0.739960 0.872380 0.525000 -0.644229
O21   O     O_R   0.239960 0.627620 0.525000 -0.637618
O22   O     O_R   0.760040 0.372380 0.475000 -0.626728
O23   O     O_R   0.760040 0.627620 0.475000 -0.639410
O24   O     O_R   0.239960 0.372380 0.525000 -0.645470
O25   O     O_R   0.680700 0.294870 0.629350 -0.570064
O26   O     O_R   0.319300 0.705130 0.370650 -0.570789
O27   O     O_R   0.319300 0.294870 0.370650 -0.564982
O28   O     O_R   0.680700 0.705130 0.629350 -0.561357
O29   O     O_R   0.180700 0.794870 0.629350 -0.570848
O30   O     O_R   0.819300 0.205130 0.370650 -0.569890
O31   O     O_R   0.819300 0.794870 0.370650 -0.565186
O32   O     O_R   0.180700 0.205130 0.629350 -0.558128
O33   O     O_R   0.062020 0.072840 0.007170 -0.675995
O34   O     O_R   0.937980 0.927160 0.992830 -0.665998
O35   O     O_R   0.937980 0.072840 0.992830 -0.629886
O36   O     O_R   0.062020 0.927160 0.007170 -0.623341
O37   O     O_R   0.562020 0.572840 0.007170 -0.646046
O38   O     O_R   0.437980 0.427160 0.992830 -0.663677
O39   O     O_R   0.437980 0.572840 0.992830 -0.626462
O40   O     O_R   0.562020 0.427160 0.007170 -0.640737
O41   O     O_R   0.947860 0.073950 0.109290 -0.573809
O42   O     O_R   0.052140 0.926050 0.890710 -0.574938
O43   O     O_R   0.052140 0.073950 0.890710 -0.560285
O44   O     O_R   0.947860 0.926050 0.109290 -0.558210
O45   O     O_R   0.447860 0.573950 0.109290 -0.561958
O46   O     O_R   0.552140 0.426050 0.890710 -0.578760
O47   O     O_R   0.552140 0.573950 0.890710 -0.559814
O48   O     O_R   0.447860 0.426050 0.109290 -0.559494
Zn1   Zn    Zn3+2 0.792340 0.208750 0.507670 1.095150
Zn2   Zn    Zn3+2 0.207660 0.791250 0.492330 1.099825
Zn3   Zn    Zn3+2 0.207660 0.208750 0.492330 1.098475
Zn4   Zn    Zn3+2 0.792340 0.791250 0.507670 1.091431
Zn5   Zn    Zn3+2 0.292340 0.708750 0.507670 1.096946
Zn6   Zn    Zn3+2 0.707660 0.291250 0.492330 1.099630
Zn7   Zn    Zn3+2 0.707660 0.708750 0.492330 1.097964
Zn8   Zn    Zn3+2 0.292340 0.291250 0.507670 1.087126
Zn9   Zn    Zn3+2 0.505960 0.500000 0.080520 1.067391
Zn10  Zn    Zn3+2 0.494040 0.500000 0.919480 1.052199
Zn11  Zn    Zn3+2 0.005960 1.000000 0.080520 1.049962
Zn12  Zn    Zn3+2 0.994040 1.000000 0.919480 1.051500
Br1   Br    Br    0.060551 0.214097 0.493967 -0.360481
Br2   Br    Br    0.939758 0.785846 0.504691 -0.361299
Br3   Br    Br    0.941448 0.214148 0.500200 -0.357815
Br4   Br    Br    0.059035 0.785989 0.497738 -0.374505
Br5   Br    Br    0.560310 0.714137 0.495065 -0.352706
Br6   Br    Br    0.440128 0.285856 0.503526 -0.364504
Br7   Br    Br    0.441262 0.714115 0.501079 -0.350456
Br8   Br    Br    0.559397 0.286006 0.496590 -0.377089
Br9   Br    Br    0.160751 0.325489 0.355138 -0.452831
Br10  Br    Br    0.839556 0.674660 0.644528 -0.447575
Br11  Br    Br    0.840883 0.323561 0.642903 -0.430922
Br12  Br    Br    0.159665 0.676372 0.356488 -0.434972
Br13  Br    Br    0.660688 0.825121 0.355307 -0.441813
Br14  Br    Br    0.339977 0.174796 0.643923 -0.449838
Br15  Br    Br    0.340803 0.823823 0.643032 -0.434117
Br16  Br    Br    0.660034 0.176234 0.355969 -0.436431
Br17  Br    Br    0.655430 0.427621 0.712400 -0.439792
Br18  Br    Br    0.430052 0.700949 0.213825 -0.413071
Br19  Br    Br    0.428574 0.298066 0.219260 -0.420160
Br20  Br    Br    0.570422 0.704575 0.788704 -0.409559
Br21  Br    Br    0.153180 0.928369 0.708749 -0.430296
Br22  Br    Br    0.930052 0.201026 0.213275 -0.445095
Br23  Br    Br    0.928679 0.798754 0.219240 -0.417109
Br24  Br    Br    0.071418 0.201687 0.780457 -0.408991
C189  C     C_3   0.710232 0.126676 0.768189 -0.847086
H29   H     H_    0.694958 0.077703 0.811471 0.220279
H30   H     H_    0.748575 0.112861 0.705191 0.264013
H31   H     H_    0.678542 0.141820 0.750417 0.217444
C190  C     C_3   0.284206 0.887470 0.246368 -0.835480
H32   H     H_    0.244594 0.897010 0.308970 0.260425
H33   H     H_    0.297744 0.938224 0.206530 0.217576
H34   H     H_    0.315219 0.874120 0.266427 0.224810
C191  C     C_3   0.265495 0.120433 0.256309 -0.819272
H35   H     H_    0.299901 0.124424 0.270441 0.225505
H36   H     H_    0.226562 0.116906 0.321865 0.265727
H37   H     H_    0.271209 0.069577 0.218352 0.208119
C192  C     C_3   0.727341 0.881336 0.753547 -0.827480
H38   H     H_    0.766529 0.888536 0.689198 0.261088
H39   H     H_    0.694221 0.873981 0.736785 0.226274
H40   H     H_    0.718079 0.931456 0.794140 0.214321
C193  C     C_3   0.206209 0.630090 0.774574 -0.853221
H41   H     H_    0.189817 0.582425 0.820086 0.223411
H42   H     H_    0.243970 0.613920 0.711947 0.263013
H43   H     H_    0.174709 0.645859 0.756628 0.218060
C194  C     C_3   0.785076 0.385800 0.242296 -0.840123
H44   H     H_    0.745671 0.397111 0.304540 0.259483
H45   H     H_    0.799383 0.435404 0.200200 0.217131
H46   H     H_    0.815910 0.372741 0.262869 0.225771
C195  C     C_3   0.770047 0.617101 0.257141 -0.816488
H47   H     H_    0.803005 0.624588 0.274276 0.224739
H48   H     H_    0.730105 0.614395 0.320897 0.266168
H49   H     H_    0.777707 0.564467 0.222247 0.207565
C196  C     C_3   0.234088 0.379818 0.743815 -0.818785
H50   H     H_    0.273079 0.383425 0.678372 0.264283
H51   H     H_    0.199799 0.375559 0.729415 0.225410
H52   H     H_    0.228140 0.430776 0.781750 0.211142

loop_
_geom_bond_atom_site_label_1
_geom_bond_atom_site_label_2
_ccdc_geom_bond_type
C85   C182  S    
C196  H51   S    
C9    C169  A    
C34   C42   A    
O38   Zn10  S    
C189  H29   S    
C27   C99   A    
C170  C178  A    
C85   O17   A    
C12   C174  A    
C42   C109  A    
C155  Br2   S    
C24   C96   A    
C92   O16   A    
C87   O19   A    
O25   Zn6   S    
C62   C70   A    
O22   Zn6   S    
O44   Zn11  S    
C65   Br21  S    
O33   Zn11  S    
C15   Br11  S    
C132  H28   S    
O34   Zn12  S    
O30   Zn1   S    
C147  C155  A    
C105  H9    S    
C90   C177  S    
O15   Zn4   S    
C11   C167  A    
C82   C98   A    
C76   C84   A    
C102  H6    S    
C73   C81   A    
C161  C163  A    
C162  C164  A    
C181  C187  A    
O46   Zn10  S    
O41   Zn11  S    
C90   O22   A    
O42   Zn12  S    
C84   C100  A    
C5    O29   A    
C111  H15   S    
C37   C114  A    
C27   C35   A    
C10   C171  A    
C21   C29   A    
C81   C121  A    
C23   C31   A    
C186  H2    S    
C193  H43   S    
C24   C32   A    
O7    Zn7   S    
O8    Zn8   S    
C7    O7    A    
C146  C154  A    
O47   Zn10  S    
C63   Br19  S    
O43   Zn12  S    
C64   Br20  S    
C13   Br9   S    
C63   C71   A    
C36   C44   A    
C112  H16   S    
C175  C183  A    
C189  H31   S    
C176  C184  A    
C48   C96   A    
C6    O30   A    
C88   C183  S    
C110  H14   S    
C60   C68   A    
C148  C162  A    
C183  C188  A    
C108  C116  A    
C21   C93   A    
C78   C94   A    
C109  H13   S    
C62   Br18  S    
C52   C100  A    
C130  H26   S    
C150  Br7   S    
O9    Zn6   S    
C49   C97   A    
C21   C42   A    
C22   C41   A    
C51   C107  A    
C194  H44   S    
C2    O2    A    
C24   C43   A    
C136  O36   A    
C82   C122  A    
C161  C165  A    
C17   C175  A    
C113  H17   S    
C6    O6    A    
C18   C176  A    
C29   C125  A    
C69   C77   A    
C31   C127  A    
C45   C93   A    
C174  C182  A    
C71   C79   A    
C179  C186  A    
C18   Br14  S    
C30   C38   A    
C11   C176  A    
C17   C144  A    
C105  C113  A    
C154  Br3   S    
C78   C118  A    
C149  C151  A    
C192  H39   S    
C66   C74   A    
C7    O31   A    
C8    C76   S    
C49   C57   A    
C124  C132  A    
C195  H48   S    
O27   Zn8   S    
C52   C60   A    
C59   C67   A    
C53   C61   A    
C141  C159  A    
C20   C174  A    
C23   C95   A    
C190  H33   S    
C55   C63   A    
C86   C181  S    
C56   C64   A    
C35   C43   A    
C45   C53   A    
C140  O46   A    
C22   C94   A    
C171  C179  A    
C169  C177  A    
C51   C59   A    
C191  H36   S    
O19   Zn3   S    
C50   C98   A    
O39   Zn10  S    
C20   Br16  S    
O26   Zn5   S    
O35   Zn12  S    
C104  C112  A    
C125  H21   S    
C145  C163  A    
C146  C164  A    
C14   C147  A    
C66   Br22  S    
C91   O15   A    
C16   C145  A    
C178  C186  A    
C25   C38   A    
C54   C139  S    
C46   C94   A    
C27   C40   A    
C10   C166  A    
C194  H46   S    
C57   C65   A    
C91   C180  S    
C182  C188  A    
C89   C178  S    
C2    O26   A    
C28   C36   A    
C116  H20   S    
C25   C97   A    
C138  O48   A    
C190  H32   S    
C139  O45   A    
C67   C75   A    
C117  C189  S    
C133  O33   A    
C50   C106  A    
C92   O24   A    
C22   C30   A    
C67   Br23  S    
C20   C141  A    
C135  O35   A    
O1    Zn1   S    
C15   C146  A    
O21   Zn5   S    
C185  H1    S    
C58   C135  S    
C68   C76   A    
C59   C134  S    
C184  C187  A    
C188  H4    S    
C32   C128  A    
C72   C80   A    
C138  O38   A    
C107  H11   S    
C56   C137  S    
C88   O12   A    
C14   Br10  S    
C143  C151  A    
C129  H25   S    
C122  C194  S    
O17   Zn1   S    
O11   Zn8   S    
C13   C171  A    
C85   O9    A    
C90   O14   A    
C19   Br15  S    
C117  C125  A    
C4    O28   A    
C25   C33   A    
C119  C127  A    
C157  C167  A    
C80   C120  A    
C158  C168  A    
O32   Zn3   S    
C86   O18   A    
O3    Zn3   S    
C164  C165  A    
C40   C115  A    
C101  C109  A    
O28   Zn7   S    
C118  C190  S    
C177  C185  A    
C103  C111  A    
C193  H42   S    
C162  C166  A    
C4    O4    A    
C79   C119  A    
C153  C155  A    
C154  C156  A    
C8    O8    A    
C106  H10   S    
C172  C180  A    
C173  C181  A    
C157  C159  A    
C83   C99   A    
C158  C160  A    
C103  H7    S    
C74   C82   A    
O2    Zn2   S    
C101  H5    S    
C6    C74   S    
C189  H30   S    
C135  O41   A    
C47   C103  A    
C50   C58   A    
C89   O21   A    
C163  C166  A    
C147  C161  A    
C151  Br6   S    
C38   C113  A    
C49   C105  A    
C54   C62   A    
C28   C39   A    
C131  H27   S    
C1    C69   S    
C23   C44   A    
C139  O39   A    
C19   C173  A    
C79   C95   A    
C92   C179  S    
C68   Br24  S    
C124  C196  S    
C46   C54   A    
C104  H8    S    
C45   C101  A    
C137  O47   A    
C19   C142  A    
C61   Br17  S    
C153  Br4   S    
O40   Zn9   S    
C102  C110  A    
C35   C131  A    
C4    C72   S    
C33   C129  A    
C18   C143  A    
C36   C132  A    
C123  C131  A    
C121  C129  A    
C120  C128  A    
C26   C37   A    
C10   C170  A    
O48   Zn9   S    
O16   Zn3   S    
C33   C41   A    
C120  C192  S    
C142  C150  A    
C9    C165  A    
O37   Zn9   S    
C128  H24   S    
C75   C83   A    
C192  H38   S    
C77   C93   A    
C195  H47   S    
C44   C111  A    
C16   C170  A    
C133  O43   A    
C8    O32   A    
C3    O3    A    
C39   C116  A    
C119  C191  S    
C29   C37   A    
O20   Zn4   S    
C9    C172  A    
C1    O1    A    
C148  C156  A    
C83   C123  A    
C2    C70   S    
C60   C133  S    
C144  C152  A    
C5    O5    A    
C30   C126  A    
C115  H19   S    
C70   C78   A    
C53   C140  S    
C196  H50   S    
C3    C71   S    
O29   Zn2   S    
C141  C149  A    
C191  H35   S    
C46   C102  A    
C55   C138  S    
C81   C97   A    
C106  C114  A    
C77   C117  A    
O10   Zn5   S    
O18   Zn2   S    
O45   Zn9   S    
C48   C104  A    
C65   C73   A    
C159  C168  A    
C15   C169  A    
C160  C167  A    
C58   C66   A    
C194  H45   S    
C57   C136  S    
C140  O40   A    
C16   Br12  S    
C187  H3    S    
C145  C153  A    
C28   C100  A    
C121  C193  S    
C32   C40   A    
C52   C108  A    
C5    C73   S    
C26   C34   A    
C143  C157  A    
C51   C99   A    
C88   O20   A    
C11   C173  A    
C14   C172  A    
C126  H22   S    
C87   C184  S    
C192  H40   S    
C7    C75   S    
C123  C195  S    
C114  H18   S    
C108  H12   S    
C195  H49   S    
C190  H34   S    
C3    O27   A    
C107  C115  A    
C1    O25   A    
C26   C98   A    
C12   C175  A    
O31   Zn4   S    
C127  H23   S    
C41   C110  A    
C136  O42   A    
C86   O10   A    
C196  H52   S    
C150  C152  A    
C80   C96   A    
C43   C112  A    
C144  C158  A    
O4    Zn4   S    
O5    Zn5   S    
C152  Br5   S    
C47   C55   A    
C191  H37   S    
C61   C69   A    
C48   C56   A    
C47   C95   A    
C142  C160  A    
O12   Zn7   S    
C12   C168  A    
O13   Zn2   S    
C84   C124  A    
C87   O11   A    
O23   Zn7   S    
O24   Zn8   S    
C156  Br1   S    
C17   Br13  S    
C149  Br8   S    
C31   C39   A    
C64   C72   A    
C193  H41   S    
O36   Zn11  S    
C180  C185  A    
O6    Zn6   S    
C34   C130  A    
C134  O44   A    
C91   O23   A    
C134  O34   A    
C118  C126  A    
C13   C148  A    
C89   O13   A    
C122  C130  A    
C137  O37   A    
O14   Zn1   S    
