data_mof_unit_29140.cif
_audit_creation_date              2013-03-05T15:50:44-0500
_audit_creation_method            fapswitch 2.2
_symmetry_space_group_name_H-M    P1
_symmetry_Int_Tables_number       1
_space_group_crystal_system       triclinic
_cell_length_a                    10.796477
_cell_length_b                    12.092279
_cell_length_c                    12.932766
_cell_angle_alpha                 93.917081
_cell_angle_beta                  92.674066
_cell_angle_gamma                 86.123905
_cell_volume                      1679.12776062

loop_
_atom_site_label
_atom_site_type_symbol
_atom_site_description
_atom_site_fract_x
_atom_site_fract_y
_atom_site_fract_z
_atom_type_partial_charge
O1    O     O_R   0.506240 0.421700 0.658830 -0.664955
O2    O     O_R   0.491240 0.609310 0.646410 -0.579669
C1    C     C_R   0.498740 0.522525 0.700102 0.964232
O3    O     O_R   0.692710 0.406190 0.506230 -0.560658
O4    O     O_R   0.677700 0.593810 0.493810 -0.627849
C2    C     C_R   0.741805 0.500369 0.506335 1.005898
Zn1   Zn    Zn3+2 0.510020 0.374730 0.508290 1.085997
Zn2   Zn    Zn3+2 0.489980 0.625270 0.491710 1.098626
O5    O     O_R   0.508760 0.390690 0.353590 -0.597876
O6    O     O_R   0.493760 0.578300 0.341170 -0.528501
O7    O     O_R   0.322300 0.406190 0.506190 -0.561740
O8    O     O_R   0.307290 0.593810 0.493770 -0.567649
C3    C     C_R   0.500274 0.478127 0.299485 0.991025
C4    C     C_R   0.257748 0.498850 0.496390 1.089841
C5    C     C_3   0.941984 0.394888 0.562403 -0.007305
H1    H     H_    0.919785 0.410674 0.644945 0.161323
C6    C     C_3   0.085795 0.394681 0.558904 0.692188
C7    C     C_3   0.916008 0.502457 0.389206 -0.010790
C8    C     C_3   0.925826 0.606084 0.572127 0.502970
C9    C     C_3   0.877942 0.498142 0.505853 -0.424354
C10   C     C_3   0.120703 0.496786 0.496798 -0.293111
C11   C     C_3   0.061632 0.493766 0.380398 0.229529
C12   C     C_3   0.069611 0.607863 0.556037 0.076090
H2    H     H_    0.085805 0.676138 0.505649 0.153120
H3    H     H_    0.877824 0.585489 0.370218 0.167538
C13   C     C_R   0.501550 0.466587 0.187431 -0.108779
C14   C     C_R   0.496001 0.537845 0.811244 -0.059907
C15   C     C_R   0.438852 0.645027 0.967075 -0.261572
C16   C     C_R   0.449191 0.638566 0.860098 0.517920
C17   C     C_R   0.537147 0.447689 0.868642 -0.257176
C18   C     C_R   0.524929 0.453747 0.974442 0.105068
C19   C     C_R   0.471089 0.551774 0.023844 -0.000728
C20   C     C_R   0.453664 0.555870 0.129882 0.445380
C21   C     C_R   0.556558 0.370438 0.137915 -0.127681
C22   C     C_R   0.566194 0.363167 0.031299 -0.109892
H4    H     H_    0.595218 0.302355 0.181713 0.247940
H5    H     H_    0.405614 0.723328 0.004799 0.171263
H6    H     H_    0.608814 0.288144 0.993710 0.191772
H7    H     H_    0.577372 0.371687 0.830746 0.182608
N1    N     N_R   0.523380 0.207800 0.519350 -0.188138
N2    N     N_R   0.476620 0.792180 0.480650 -0.203225
C23   C     C_R   0.398856 0.950905 0.387900 0.310175
C24   C     C_R   0.398978 0.836444 0.406466 0.423912
C25   C     C_R   0.540394 0.861432 0.550649 0.504358
C26   C     C_R   0.528011 0.978792 0.545500 -0.186655
C27   C     C_R   0.465627 0.022958 0.457783 -0.214251
C28   C     C_R   0.470779 0.138593 0.443945 0.474040
C29   C     C_R   0.575604 0.167249 0.607461 -0.082167
C30   C     C_R   0.580167 0.053415 0.623136 0.313646
H8    H     H_    0.611753 0.224390 0.667562 0.194337
N3    N     N_R   0.893270 0.284349 0.537118 0.253483
O9    O     O_R   0.909199 0.229054 0.448768 -0.209066
O10   O     O_R   0.847271 0.233540 0.610676 -0.381075
N4    N     N_R   0.101251 0.590059 0.326929 0.191193
O11   O     O_R   0.215074 0.589508 0.298955 -0.303294
O12   O     O_R   0.023926 0.669332 0.295359 -0.379699
O13   O     O_3   0.392764 0.647302 0.178775 -0.666925
H9    H     H_    0.316746 0.667220 0.136269 0.366722
O14   O     O_3   0.411252 0.727937 0.802427 -0.682445
H10   H     H_    0.380147 0.791102 0.849212 0.360233
N5    N     N_R   0.425673 0.183391 0.349353 0.261958
O15   O     O_R   0.482708 0.155115 0.264224 -0.347384
O16   O     O_R   0.317302 0.236467 0.344811 -0.247320
O17   O     O_3   0.330249 0.993131 0.305078 -0.651212
H11   H     H_    0.327097 0.934647 0.247637 0.364245
N6    N     N_R   0.628044 0.017967 0.721711 0.265064
O18   O     O_R   0.729861 0.056743 0.762918 -0.303963
O19   O     O_R   0.557413 0.967150 0.779358 -0.305364
O20   O     O_3   0.319190 0.768102 0.352638 -0.631704
H12   H     H_    0.242915 0.812704 0.331655 0.362656
O21   O     O_3   0.621058 0.818670 0.625094 -0.619761
H13   H     H_    0.627951 0.738162 0.612429 0.416105
O22   O     O_3   0.138782 0.408070 0.660875 -0.692025
H14   H     H_    0.114604 0.346467 0.701149 0.343464
O23   O     O_3   0.135689 0.293490 0.512226 -0.652331
H15   H     H_    0.130274 0.233993 0.560738 0.356422
N7    N     N_R   0.853333 0.431918 0.307727 0.251485
O24   O     O_R   0.862943 0.453344 0.211249 -0.303576
O25   O     O_R   0.781600 0.354879 0.327629 -0.318509
N8    N     N_R   0.103483 0.390831 0.317421 0.286275
O26   O     O_R   0.056166 0.296537 0.327054 -0.186418
O27   O     O_R   0.169673 0.396452 0.236492 -0.265474
O28   O     O_3   0.865654 0.706206 0.538762 -0.704132
H16   H     H_    0.897752 0.726687 0.472769 0.340097
N9    N     N_R   0.895353 0.602785 0.683080 0.255888
O29   O     O_R   0.780623 0.621587 0.709234 -0.369775
O30   O     O_R   0.976534 0.572612 0.755093 -0.285521
O31   O     O_3   0.139540 0.631053 0.648739 -0.625119
H17   H     H_    0.121159 0.710832 0.669728 0.380629

loop_
_geom_bond_atom_site_label_1
_geom_bond_atom_site_label_2
_geom_bond_distance
_ccdc_geom_bond_type
N1    C28   1.369291 A    
N6    O19   1.301509 A    
C14   C16   1.406922 A    
O22   H14   0.993128 S    
C8    C9    1.613271 S    
C11   N4    1.490614 S    
N7    O24   1.301771 A    
Zn1   O7    2.035944 S    
O28   H16   0.988900 S    
C4    C10   1.481751 S    
C15   C16   1.389648 A    
N9    O29   1.300360 A    
O4    C2    1.300301 A    
O7    C4    1.289507 A    
C5    H1    1.106013 S    
C25   O21   1.371739 S    
N1    C29   1.354940 A    
C21   C22   1.383952 A    
C23   C27   1.418513 A    
N5    O16   1.296748 A    
O5    C3    1.303037 A    
C27   C28   1.426874 A    
C13   C21   1.398207 A    
C16   O14   1.383383 S    
Zn1   N1    2.028306 S    
C5    N3    1.479694 S    
C7    C9    1.587109 S    
C29   H8    1.081054 S    
N6    O18   1.301202 A    
O14   H10   0.991668 S    
C24   O20   1.367956 S    
O1    Zn1   1.991951 S    
C10   C11   1.606326 S    
C14   C17   1.396858 A    
C6    O22   1.416187 S    
N2    C24   1.357972 A    
N5    O15   1.300592 A    
C7    H3    1.098469 S    
O3    Zn1   2.035573 S    
C8    O28   1.418764 S    
N7    O25   1.297222 A    
C5    C9    1.591469 S    
N4    O12   1.302314 A    
C30   N6    1.435052 S    
N9    O30   1.302206 A    
N3    O9    1.296387 A    
C15   C19   1.402838 A    
C22   H6    1.084087 S    
Zn2   N2    2.028065 S    
N8    O27   1.302622 A    
C26   C27   1.410186 A    
C6    C10   1.593189 S    
O1    C1    1.296035 A    
C8    C12   1.577625 S    
O23   H15   0.992685 S    
C13   C20   1.408992 A    
C18   C19   1.410390 A    
C26   C30   1.425356 A    
Zn2   O8    2.035574 S    
O3    C2    1.288121 A    
C29   C30   1.402264 A    
O8    C4    1.302245 A    
C12   O31   1.408619 S    
C10   C12   1.579245 S    
N2    C25   1.382426 A    
C18   C22   1.397290 A    
C3    C13   1.446978 S    
C23   C24   1.420736 A    
C23   O17   1.380664 S    
C25   C26   1.422221 A    
C5    C6    1.555246 S    
N4    O11   1.296591 A    
C20   O13   1.378241 S    
C7    C11   1.577552 S    
O2    Zn2   2.022398 S    
N8    O26   1.296420 A    
C8    N9    1.490808 S    
O6    C3    1.290612 A    
C28   N5    1.423534 S    
O4    Zn2   2.035943 S    
C2    C9    1.468512 S    
O17   H11   0.991101 S    
C1    C14   1.438087 S    
O2    C1    1.293384 A    
C11   N8    1.495544 S    
O21   H13   0.974504 S    
C19   C20   1.389964 A    
O13   H9    0.991492 S    
C17   C18   1.377247 A    
C15   H5    1.081935 S    
C7    N7    1.478017 S    
C17   H7    1.085261 S    
C21   H4    1.080759 S    
O20   H12   0.990853 S    
C12   H2    1.113769 S    
Zn1   O5    2.022396 S    
O31   H17   0.993532 S    
Zn2   O6    1.991952 S    
C6    O23   1.411453 S    
N3    O10   1.301654 A    
