data_mof_unit_49710.cif
_audit_creation_date              2012-12-10T20:31:50-0500
_audit_creation_method            fapswitch 2.2
_symmetry_space_group_name_H-M    P1
_symmetry_Int_Tables_number       1
_space_group_crystal_system       triclinic
_cell_length_a                    10.008883
_cell_length_b                    10.663637
_cell_length_c                    15.162273
_cell_angle_alpha                 91.922085
_cell_angle_beta                  67.335814
_cell_angle_gamma                 90.953079
_cell_volume                      1492.46827394

loop_
_atom_site_label
_atom_site_type_symbol
_atom_type_description
_atom_site_fract_x
_atom_site_fract_y
_atom_site_fract_z
_atom_type_partial_charge
C1    C     C_R   0.501419 0.738996 0.499660 0.856632
C2    C     C_R   0.378755 0.566290 0.927467 0.132733
C3    C     C_R   0.257150 0.490534 0.979235 0.153404
C4    C     C_R   0.469471 0.613704 0.973455 0.011881
C5    C     C_R   0.449062 0.567021 0.063664 0.034857
C6    C     C_R   0.315219 0.512310 0.118600 -0.152116
C7    C     C_R   0.219541 0.474152 0.076740 -0.209158
C8    C     C_R   0.583705 0.699659 0.931622 -0.342303
C9    C     C_R   0.677793 0.734278 0.976947 0.504061
C10   C     C_R   0.669586 0.671358 0.059037 0.004666
C11   C     C_R   0.561278 0.579515 0.097987 -0.049892
C12   C     C_R   0.408305 0.500354 0.676755 0.831387
C13   C     C_R   0.768030 0.697722 0.102602 -0.134320
C14   C     C_R   0.755666 0.638222 0.186702 -0.102343
C15   C     C_R   0.572723 0.499471 0.167056 -0.043479
C16   C     C_R   0.453724 0.933012 0.440133 0.005491
C17   C     C_R   0.507211 0.870615 0.498037 -0.097652
C18   C     C_R   0.565440 0.936322 0.556271 -0.173984
C19   C     C_R   0.554055 0.066330 0.565271 -0.091885
C20   C     C_R   0.490670 0.128387 0.510022 -0.116562
C21   C     C_R   0.442787 0.060664 0.447397 0.132459
C22   C     C_3   0.299681 0.056376 0.435190 -0.341696
C23   C     C_R   0.496268 0.260896 0.504298 0.872834
C24   C     C_3   0.315883 0.914155 0.424972 -0.255271
C25   C     C_R   0.897368 0.580788 0.558099 0.105593
C26   C     C_R   0.960701 0.423451 0.438743 0.554161
C27   C     C_R   0.106434 0.425882 0.436243 -0.078641
C28   C     C_R   0.038907 0.583138 0.556628 0.166885
C29   C     C_3   0.984651 0.606123 0.662915 -0.313146
C30   C     C_3   0.830256 0.595613 0.665209 -0.311028
C31   C     C_R   0.592314 0.507197 0.323371 0.933837
C32   C     C_R   0.347799 0.503742 0.781078 -0.062738
C33   C     C_R   0.651137 0.540965 0.221744 -0.133026
C34   C     C_R   0.180785 0.425452 0.931668 -0.188464
C35   C     C_R   0.230862 0.426947 0.832454 -0.211482
C36   C     C_R   0.415222 0.578477 0.829072 -0.258976
H1    H     H_    0.122065 0.423611 0.118810 0.184169
H2    H     H_    0.851239 0.768364 0.073351 0.221272
H3    H     H_    0.608145 0.885522 0.600436 0.184853
H4    H     H_    0.306167 0.101210 0.368643 0.154862
H5    H     H_    0.232207 0.861401 0.483007 0.195655
H6    H     H_    0.011721 0.702687 0.680906 0.147266
H7    H     H_    0.768171 0.684356 0.688604 0.129950
H8    H     H_    0.089851 0.365512 0.970289 0.155569
H9    H     H_    0.181652 0.364700 0.795842 0.201177
H10   H     H_    0.503932 0.636987 0.786510 0.120175
H11   H     H_    0.287008 0.495939 0.193460 0.209616
H12   H     H_    0.599446 0.744732 0.865701 0.162784
N1    N     N_R   0.856900 0.500860 0.500610 -0.137764
N2    N     N_R   0.142540 0.500820 0.500610 -0.128232
O1    O     O_R   0.385310 0.683210 0.499990 -0.614432
O2    O     O_R   0.614650 0.683240 0.500000 -0.628469
O3    O     O_R   0.319830 0.499970 0.632240 -0.585814
O4    O     O_R   0.549170 0.500000 0.632250 -0.599722
O5    O     O_R   0.385350 0.316760 0.500000 -0.590710
O6    O     O_R   0.614690 0.316790 0.500010 -0.606534
O7    O     O_R   0.450830 0.500000 0.367750 -0.611852
O8    O     O_R   0.680170 0.500030 0.367760 -0.604931
Zn1   Zn    Zn3+2 0.346870 0.499980 0.499990 1.005883
Zn2   Zn    Zn3+2 0.653130 0.500020 0.500010 0.999131
C37   C     C_2   0.593393 0.133332 0.639393 0.447919
H13   H     H_    0.554003 0.227450 0.663675 0.111351
O9    O     O_2   0.668373 0.083390 0.675344 -0.560442
C38   C     C_2   0.167033 0.094633 0.521739 0.481426
H14   H     H_    0.061385 0.085714 0.517937 0.059784
O10   O     O_2   0.175140 0.132443 0.596420 -0.505946
C39   C     C_2   0.343371 0.862231 0.326092 0.459678
H15   H     H_    0.423122 0.905702 0.263815 0.081158
O11   O     O_2   0.276784 0.770053 0.315226 -0.561807
O12   O     O_3   0.921722 0.342672 0.379249 -0.566333
C40   C     C_3   0.903401 0.220082 0.415310 -0.138770
H16   H     H_    0.855415 0.218649 0.494917 0.160546
H17   H     H_    0.007153 0.168395 0.388254 0.158091
H18   H     H_    0.829322 0.167278 0.388721 0.190016
C41   C     C_2   0.217194 0.346084 0.363993 0.371202
H19   H     H_    0.312410 0.318535 0.373905 0.166449
O13   O     O_2   0.203569 0.308999 0.290868 -0.596660
C42   C     C_2   0.022259 0.508362 0.718893 0.499347
H20   H     H_    0.022042 0.534880 0.788544 0.045772
O14   O     O_2   0.043199 0.399124 0.690156 -0.506133
C43   C     C_2   0.527609 0.364839 0.169568 0.390087
H21   H     H_    0.477141 0.328272 0.122317 0.108836
O15   O     O_2   0.554774 0.290728 0.220045 -0.599868
C44   C     C_2   0.748046 0.481977 0.717756 0.550626
H22   H     H_    0.688550 0.489506 0.794343 0.035256
O16   O     O_2   0.755614 0.379953 0.677120 -0.535141
C45   C     C_2   0.854502 0.678971 0.234451 0.413754
H23   H     H_    0.885158 0.615647 0.277617 0.119961
O17   O     O_2   0.906744 0.784433 0.223820 -0.555333
O18   O     O_3   0.787718 0.819785 0.934948 -0.627170
C46   C     C_3   0.728665 0.941545 0.954465 -0.248154
H24   H     H_    0.674877 0.961426 0.032863 0.160938
H25   H     H_    0.651635 0.956026 0.918940 0.181225
H26   H     H_    0.818047 0.010454 0.925379 0.211716

loop_
_geom_bond_atom_site_label_1
_geom_bond_atom_site_label_2
_ccdc_geom_bond_type
C45   H23   S    
C16   C21   A    
O5    Zn1   S    
C29   H6    S    
C19   C20   A    
C4    C8    A    
C14   C33   A    
C43   H21   S    
O3    Zn1   S    
C23   O6    A    
C15   C43   S    
O4    Zn2   S    
C25   C28   A    
C26   C27   A    
N1    Zn2   S    
N2    Zn1   S    
C32   C36   A    
C31   O8    A    
C28   C29   S    
C44   O16   D    
C14   C45   S    
C5    C11   A    
C3    C7    A    
C5    C6    A    
C42   O14   D    
O7    Zn1   S    
O8    Zn2   S    
C34   C35   A    
C37   O9    D    
C18   H3    S    
O2    Zn2   S    
C24   C39   S    
C11   C15   A    
C29   C42   S    
C8    C9    A    
C31   C33   S    
C36   H10   S    
O12   C40   S    
C9    C10   A    
C12   O3    A    
C27   N2    A    
C16   C24   S    
C21   C22   S    
C12   C32   S    
C24   H5    S    
C28   N2    A    
C27   C41   S    
C43   O15   D    
C6    H11   S    
C39   H15   S    
C32   C35   A    
C34   H8    S    
C44   H22   S    
C26   N1    A    
C46   H24   S    
C40   H17   S    
C42   H20   S    
C18   C19   A    
C3    C34   A    
O6    Zn2   S    
C39   O11   D    
C38   O10   D    
C2    C4    A    
C41   H19   S    
C8    H12   S    
C29   C30   S    
C46   H25   S    
C41   O13   D    
C20   C23   S    
C22   H4    S    
C17   C18   A    
C7    H1    S    
C1    O1    A    
C13   H2    S    
C45   O17   D    
C26   O12   S    
C22   C24   S    
C30   H7    S    
O1    Zn1   S    
C35   H9    S    
C2    C36   A    
C25   C30   S    
C4    C5    A    
C10   C13   A    
C9    O18   S    
C40   H18   S    
C23   O5    A    
C6    C7    A    
C1    C17   S    
C38   H14   S    
C31   O7    A    
C2    C3    A    
C40   H16   S    
C46   H26   S    
O18   C46   S    
C16   C17   A    
C19   C37   S    
C30   C44   S    
C37   H13   S    
C1    O2    A    
C25   N1    A    
C10   C11   A    
C22   C38   S    
C20   C21   A    
C13   C14   A    
C15   C33   A    
C12   O4    A    
