data_mof_unit_55233.cif
_audit_creation_date              2012-12-11T14:08:14-0500
_audit_creation_method            fapswitch 2.2
_symmetry_space_group_name_H-M    P1
_symmetry_Int_Tables_number       1
_space_group_crystal_system       triclinic
_cell_length_a                    10.907791
_cell_length_b                    10.930918
_cell_length_c                    18.63624
_cell_angle_alpha                 90.184816
_cell_angle_beta                  89.623643
_cell_angle_gamma                 60.30902
_cell_volume                      1930.2113352

loop_
_atom_site_label
_atom_site_type_symbol
_atom_type_description
_atom_site_fract_x
_atom_site_fract_y
_atom_site_fract_z
_atom_type_partial_charge
C1    C     C_R   0.235973 0.645687 0.608799 0.556697
C2    C     C_2   0.783552 0.152538 0.706239 -0.178706
C3    C     C_2   0.180807 0.662474 0.681663 -0.123430
C4    C     C_R   0.654032 0.622959 0.601074 0.544552
C5    C     C_2   0.196408 0.661693 0.839509 -0.120014
C6    C     C_2   0.193777 0.560147 0.800196 -0.177330
C7    C     C_2   0.221603 0.548168 0.722921 -0.179155
C8    C     C_2   0.651671 0.646368 0.317234 -0.107481
C9    C     C_2   0.632236 0.664816 0.159431 -0.111719
C10   C     C_2   0.706190 0.545125 0.195295 -0.151525
C11   C     C_2   0.688129 0.536876 0.272094 -0.153934
C12   C     C_3   0.670046 0.553418 0.801018 -0.253746
C13   C     C_2   0.680056 0.124581 0.337817 -0.108112
C14   C     C_2   0.682162 0.082130 0.185814 -0.086640
C15   C     C_2   0.632344 0.023899 0.232055 -0.169777
C16   C     C_R   0.628359 0.227131 0.601872 0.547184
C17   C     C_2   0.605938 0.071289 0.306734 -0.154153
C18   C     C_2   0.258753 0.624627 0.318762 -0.092297
C19   C     C_2   0.198443 0.640597 0.168313 -0.101330
C20   C     C_2   0.260542 0.707355 0.198330 -0.148868
C21   C     C_2   0.309172 0.681449 0.272143 -0.165948
C22   C     C_R   0.703395 0.102481 0.897562 0.556256
C23   C     C_3   0.700081 0.675394 0.812216 0.054301
C24   C     C_R   0.724089 0.688613 0.888207 0.546583
C25   C     C_R   0.119931 0.705925 0.907575 0.547245
C26   C     C_R   0.702072 0.041217 0.111666 0.573132
C27   C     C_R   0.691794 0.688417 0.094614 0.547895
C28   C     C_R   0.292620 0.618275 0.393162 0.574496
C29   C     C_R   0.102312 0.704675 0.109553 0.552175
C30   C     C_R   0.642166 0.621649 0.392810 0.543912
C31   C     C_R   0.621852 0.221088 0.397989 0.546056
C32   C     C_3   0.573980 0.813654 0.782527 -0.232182
C33   C     C_3   0.554474 0.796988 0.702378 -0.242727
C34   C     C_3   0.669869 0.649044 0.676338 0.057993
C35   C     C_3   0.835806 0.645525 0.769673 -0.220659
C36   C     C_3   0.816297 0.634246 0.689085 -0.247476
C37   C     C_3   0.655270 0.535700 0.720624 -0.214453
C38   C     C_2   0.676042 0.154680 0.670397 -0.122051
C39   C     C_2   0.689931 0.166899 0.827618 -0.122464
C40   C     C_2   0.802108 0.120593 0.783302 -0.178369
Cr1   Cr    Cr6+3 0.393010 0.398050 0.501480 1.018151
Cr2   Cr    Cr6+3 0.398820 0.707980 0.501630 1.011712
Cr3   Cr    Cr6+3 0.708140 0.393940 0.496850 1.012777
Cr4   Cr    Cr6+3 0.937950 0.938450 0.008940 1.018393
Cr5   Cr    Cr6+3 0.626180 0.937030 0.994750 1.011421
Cr6   Cr    Cr6+3 0.937790 0.625760 0.001410 1.014394
H1    H     H_    0.593863 0.903491 0.789918 0.142038
H2    H     H_    0.276492 0.442728 0.699924 0.157396
H3    H     H_    0.234264 0.728088 0.816219 0.102210
H4    H     H_    0.475021 0.839457 0.812201 0.123824
H5    H     H_    0.123762 0.767919 0.704581 0.103872
H6    H     H_    0.793023 0.453224 0.169765 0.158310
H7    H     H_    0.718010 0.432909 0.292714 0.154055
H8    H     H_    0.540026 0.753687 0.183566 0.090135
H9    H     H_    0.620069 0.751756 0.298582 0.086097
H10   H     H_    0.598773 0.950919 0.213452 0.125006
H11   H     H_    0.513864 0.077279 0.332972 0.156723
H12   H     H_    0.738524 0.428474 0.704110 0.143016
H13   H     H_    0.710393 0.160320 0.202308 0.106231
H14   H     H_    0.778093 0.109283 0.314270 0.105581
H15   H     H_    0.259561 0.796504 0.172132 0.153539
H16   H     H_    0.447331 0.810690 0.694298 0.145068
H17   H     H_    0.372847 0.726109 0.290641 0.140099
H18   H     H_    0.208890 0.544054 0.190197 0.105850
H19   H     H_    0.189681 0.584294 0.303282 0.112466
H20   H     H_    0.561184 0.880359 0.671337 0.116219
H21   H     H_    0.861441 0.730867 0.779672 0.125619
H22   H     H_    0.825326 0.718255 0.659975 0.117657
H23   H     H_    0.927258 0.544849 0.787626 0.136776
H24   H     H_    0.757293 0.453681 0.822875 0.136910
H25   H     H_    0.571123 0.575863 0.829714 0.114744
H26   H     H_    0.551292 0.543031 0.710444 0.124419
H27   H     H_    0.902020 0.530973 0.668737 0.140238
H28   H     H_    0.908562 0.054562 0.802950 0.151749
H29   H     H_    0.856147 0.179143 0.679774 0.147189
H30   H     H_    0.583991 0.233887 0.807459 0.107776
H31   H     H_    0.609287 0.119887 0.696504 0.102607
H32   H     H_    0.163344 0.488395 0.823905 0.149206
O1    O     O_R   0.507110 0.256280 0.580300 -0.522452
O2    O     O_R   0.837080 0.593860 0.915300 -0.526536
O3    O     O_R   0.064770 0.636080 0.932550 -0.499198
O4    O     O_R   0.280830 0.527190 0.577940 -0.493336
O5    O     O_R   0.068250 0.829200 0.092940 -0.521497
O6    O     O_R   0.799650 0.057040 0.080330 -0.498429
O7    O     O_R   0.586130 0.079760 0.077080 -0.501708
O8    O     O_R   0.627700 0.809630 0.066580 -0.517755
O9    O     O_R   0.816140 0.597180 0.075920 -0.506194
O10   O     O_R   0.045360 0.639170 0.081440 -0.497603
O11   O     O_3   0.833980 0.833750 0.001700 -0.268978
O12   O     O_R   0.524640 0.695370 0.425100 -0.518210
O13   O     O_R   0.261360 0.738990 0.584270 -0.514702
O14   O     O_R   0.532590 0.694780 0.574370 -0.507230
O15   O     O_R   0.744470 0.503750 0.577000 -0.526287
O16   O     O_R   0.698520 0.277230 0.571620 -0.496723
O17   O     O_R   0.498530 0.256920 0.419280 -0.518765
O18   O     O_R   0.272880 0.527780 0.428680 -0.495959
O19   O     O_R   0.252780 0.739630 0.423250 -0.501597
O20   O     O_R   0.735890 0.504390 0.415980 -0.504087
O21   O     O_R   0.690560 0.277820 0.422350 -0.506209
O22   O     O_3   0.499990 0.499990 0.499980 -0.271959
O23   O     O_R   0.089190 0.825870 0.932320 -0.521274
O24   O     O_R   0.819070 0.053960 0.931440 -0.489790
O25   O     O_R   0.607070 0.076440 0.916460 -0.517037
O26   O     O_R   0.647110 0.806550 0.917690 -0.509891

loop_
_geom_bond_atom_site_label_1
_geom_bond_atom_site_label_2
_ccdc_geom_bond_type
C28   O19   A    
C18   C21   D    
C35   C36   S    
Cr3   O20   S    
C30   O12   A    
Cr4   O5    S    
C10   H6    S    
C24   O26   A    
Cr6   O11   S    
C18   H19   S    
C14   H13   S    
C12   C23   S    
Cr3   O21   S    
C29   O5    A    
C3    C7    D    
C26   O7    A    
C5    C6    D    
C6    H32   S    
Cr1   O18   S    
Cr1   O4    S    
C34   C37   S    
C12   C37   S    
Cr3   O16   S    
Cr2   O13   S    
C20   H15   S    
C29   O10   A    
Cr5   O25   S    
C24   O2    A    
C19   C20   D    
C33   H16   S    
C26   O6    A    
C23   C24   S    
C31   O21   A    
Cr5   O11   S    
C9    C10   D    
Cr2   O14   S    
C37   H12   S    
C11   H7    S    
C1    O13   A    
C25   O3    A    
C5    H3    S    
C8    H9    S    
C33   H20   S    
Cr6   O10   S    
C4    C34   S    
C18   C28   S    
Cr3   O22   S    
C10   C11   S    
Cr2   O19   S    
C39   C40   D    
C13   H14   S    
Cr4   O24   S    
C1    O4    A    
C22   O25   A    
C1    C3    S    
C27   O8    A    
Cr5   O7    S    
Cr5   O26   S    
Cr2   O22   S    
Cr6   O3    S    
C2    C38   D    
C35   H21   S    
C19   H18   S    
C33   C34   S    
Cr1   O22   S    
C39   H30   S    
C14   C26   S    
C27   O9    A    
C32   H4    S    
C5    C25   S    
C12   H25   S    
C23   C35   S    
C32   H1    S    
C19   C29   S    
C9    C27   S    
Cr6   O9    S    
C15   C17   S    
C12   H24   S    
C3    H5    S    
C13   C31   S    
C23   C32   S    
Cr4   O6    S    
Cr1   O1    S    
Cr4   O23   S    
C36   H22   S    
C6    C7    S    
C38   H31   S    
C30   O20   A    
C16   O16   A    
C22   O24   A    
C13   C17   D    
C28   O18   A    
C16   O1    A    
C8    C30   S    
C7    H2    S    
Cr5   O8    S    
C32   C33   S    
Cr6   O2    S    
C25   O23   A    
Cr1   O17   S    
C8    C11   D    
C31   O17   A    
C22   C39   S    
Cr3   O15   S    
C40   H28   S    
C34   C36   S    
C15   H10   S    
C21   H17   S    
C36   H27   S    
C2    H29   S    
C4    O15   A    
C2    C40   S    
C20   C21   S    
C35   H23   S    
C37   H26   S    
C17   H11   S    
C14   C15   D    
C9    H8    S    
Cr2   O12   S    
Cr4   O11   S    
C16   C38   S    
C4    O14   A    
