data_mof_unit_61523.cif
_audit_creation_date              2012-12-10T17:31:40-0500
_audit_creation_method            fapswitch 2.2
_symmetry_space_group_name_H-M    P1
_symmetry_Int_Tables_number       1
_space_group_crystal_system       triclinic
_cell_length_a                    21.540737
_cell_length_b                    21.54085
_cell_length_c                    47.236641
_cell_angle_alpha                 90.004332
_cell_angle_beta                  90.007761
_cell_angle_gamma                 90.00123
_cell_volume                      21918.0744006

loop_
_atom_site_label
_atom_site_type_symbol
_atom_type_description
_atom_site_fract_x
_atom_site_fract_y
_atom_site_fract_z
_atom_type_partial_charge
C1    C     C_R   0.999136 0.120317 0.000155 0.757999
C2    C     C_R   0.879683 0.999151 0.000152 0.757969
C3    C     C_R   0.000861 0.879683 0.000153 0.757953
C4    C     C_R   0.120317 0.000854 0.000155 0.758007
C5    C     C_R   0.499125 0.620317 0.500155 0.758194
C6    C     C_R   0.379684 0.499025 0.500151 0.757942
C7    C     C_R   0.500864 0.379683 0.500153 0.757749
C8    C     C_R   0.620317 0.500829 0.500156 0.758019
C9    C     C_3   0.189229 0.000858 0.000062 0.156553
C10   C     C_3   0.999131 0.189230 0.000060 0.156549
C11   C     C_3   0.810770 0.999148 0.000055 0.156701
C12   C     C_3   0.000866 0.810770 0.000056 0.156834
C13   C     C_3   0.689230 0.500832 0.500061 0.156544
C14   C     C_3   0.499120 0.689230 0.500059 0.156478
C15   C     C_3   0.310769 0.499019 0.500053 0.156770
C16   C     C_3   0.500868 0.310770 0.500056 0.156928
C17   C     C_3   0.310868 0.000123 0.999135 0.156900
C18   C     C_3   0.999874 0.310868 0.999135 0.156954
C19   C     C_3   0.689131 0.999879 0.999129 0.157101
C20   C     C_3   0.000125 0.689131 0.999132 0.157232
C21   C     C_3   0.810868 0.500120 0.499130 0.156911
C22   C     C_3   0.499873 0.810868 0.499137 0.156963
C23   C     C_3   0.189130 0.499867 0.499151 0.157074
C24   C     C_3   0.500125 0.189131 0.499132 0.157228
C25   C     C_3   0.284527 0.938342 0.986995 -0.370536
C26   C     C_3   0.061702 0.284527 0.987050 -0.370391
C27   C     C_3   0.715463 0.061639 0.986969 -0.370524
C28   C     C_3   0.938310 0.715467 0.987025 -0.370480
C29   C     C_3   0.784537 0.438450 0.486870 -0.370715
C30   C     C_3   0.561746 0.784524 0.487101 -0.370290
C31   C     C_3   0.215508 0.562206 0.487634 -0.369343
C32   C     C_3   0.438302 0.215468 0.487035 -0.370440
C33   C     C_3   0.285337 0.054520 0.980926 -0.368749
C34   C     C_3   0.945546 0.285343 0.980877 -0.368999
C35   C     C_3   0.714653 0.945447 0.980936 -0.368895
C36   C     C_3   0.054474 0.714652 0.980892 -0.368999
C37   C     C_3   0.785324 0.554687 0.481029 -0.368549
C38   C     C_3   0.445613 0.785348 0.480834 -0.369091
C39   C     C_3   0.214582 0.446351 0.480390 -0.369970
C40   C     C_3   0.554460 0.214651 0.480884 -0.369029
C41   C     C_R   0.499993 0.000008 0.145648 0.390991
C42   C     C_R   0.000115 0.499848 0.145659 0.390866
C43   C     C_R   0.999992 0.500011 0.645648 0.390994
C44   C     C_R   0.500062 0.999847 0.645658 0.390881
C45   C     C_R   0.999982 0.499994 0.854692 0.316175
C46   C     C_R   0.500086 0.999766 0.854679 0.305862
C47   C     C_R   0.499982 0.999976 0.354692 0.316177
C48   C     C_R   0.000344 0.499740 0.354681 0.305897
C49   C     C_R   0.390095 0.975949 0.234920 -0.129532
C50   C     C_R   0.023909 0.389456 0.234869 -0.127457
C51   C     C_R   0.609881 0.024042 0.234939 -0.129874
C52   C     C_R   0.976825 0.609551 0.235087 -0.226023
C53   C     C_R   0.890093 0.475963 0.734920 -0.129535
C54   C     C_R   0.523647 0.889440 0.734874 -0.127459
C55   C     C_R   0.109880 0.524053 0.734938 -0.129873
C56   C     C_R   0.476712 0.109567 0.735078 -0.226024
C57   C     C_R   0.967683 0.545821 0.869547 -0.138444
C58   C     C_R   0.454237 0.967519 0.869542 -0.134902
C59   C     C_R   0.032283 0.454166 0.869547 -0.138454
C60   C     C_R   0.545868 0.032150 0.869533 -0.139149
C61   C     C_R   0.467681 0.045804 0.369546 -0.138448
C62   C     C_R   0.954476 0.467476 0.369524 -0.134968
C63   C     C_R   0.532284 0.954152 0.369549 -0.138453
C64   C     C_R   0.046074 0.532155 0.369555 -0.139119
C65   C     C_R   0.445926 0.988306 0.190325 0.584950
C66   C     C_R   0.011675 0.445536 0.190288 0.582809
C67   C     C_R   0.554054 0.011705 0.190334 0.584790
C68   C     C_R   0.988752 0.553802 0.190393 0.586324
C69   C     C_R   0.945925 0.488313 0.690325 0.584950
C70   C     C_R   0.511535 0.945530 0.690290 0.582808
C71   C     C_R   0.054052 0.511712 0.690334 0.584790
C72   C     C_R   0.488684 0.053813 0.690388 0.586325
C73   C     C_R   0.967341 0.546703 0.899236 0.024905
C74   C     C_R   0.453306 0.967279 0.899231 0.025263
C75   C     C_R   0.032631 0.453284 0.899236 0.024957
C76   C     C_R   0.546707 0.032590 0.899224 0.026459
C77   C     C_R   0.467339 0.046691 0.399235 0.024903
C78   C     C_R   0.953470 0.467252 0.399212 0.025308
C79   C     C_R   0.532633 0.953276 0.399238 0.024944
C80   C     C_R   0.046838 0.532614 0.399247 0.026309
C81   C     C_R   0.499988 0.999996 0.235187 -0.019405
C82   C     C_R   0.000387 0.499458 0.235175 -0.018789
C83   C     C_R   0.999986 0.500008 0.735187 -0.019406
C84   C     C_R   0.500203 0.999459 0.735174 -0.018788
C85   C     C_R   0.999988 0.499995 0.914406 -0.077331
C86   C     C_R   0.499991 0.999975 0.914400 -0.077133
C87   C     C_R   0.499988 0.999987 0.414406 -0.077332
C88   C     C_R   0.000101 0.499977 0.414401 -0.077148
C89   C     C_R   0.500000 0.000002 0.054631 0.826710
C90   C     C_R   0.000006 0.499999 0.054633 0.826660
C91   C     C_R   0.999999 0.500002 0.554631 0.826658
C92   C     C_R   0.500004 0.999998 0.554633 0.826661
C93   C     C_R   0.379852 0.000017 0.999126 0.746616
C94   C     C_R   0.999982 0.379852 0.999127 0.746629
C95   C     C_R   0.620147 0.999983 0.999121 0.746577
C96   C     C_R   0.000018 0.620147 0.999124 0.746543
C97   C     C_R   0.879853 0.500018 0.499119 0.746671
C98   C     C_R   0.499982 0.879852 0.499129 0.746626
C99   C     C_R   0.120148 0.499986 0.499151 0.746578
C100  C     C_R   0.500018 0.120147 0.499125 0.746548
C101  C     C_R   0.499994 0.999996 0.945675 0.778361
C102  C     C_R   0.999996 0.499998 0.945677 0.778667
C103  C     C_R   0.000031 0.499997 0.445676 0.778452
C104  C     C_R   0.499996 0.999996 0.445677 0.778678
C105  C     C_R   0.497925 0.056410 0.130744 0.148869
C106  C     C_R   0.943687 0.497956 0.130764 0.148954
C107  C     C_R   0.502065 0.943605 0.130742 0.148818
C108  C     C_R   0.056500 0.501820 0.130740 0.148905
C109  C     C_R   0.997920 0.556412 0.630744 0.148862
C110  C     C_R   0.443643 0.997972 0.630755 0.148922
C111  C     C_R   0.002066 0.443607 0.630742 0.148818
C112  C     C_R   0.556458 0.001801 0.630747 0.148927
C113  C     C_R   0.497995 0.056195 0.101058 -0.274978
C114  C     C_R   0.943859 0.498084 0.101075 -0.275102
C115  C     C_R   0.502000 0.943817 0.101056 -0.275042
C116  C     C_R   0.056244 0.501822 0.101054 -0.274981
C117  C     C_R   0.997990 0.556196 0.601058 -0.274984
C118  C     C_R   0.443836 0.998098 0.601068 -0.275073
C119  C     C_R   0.002002 0.443819 0.601056 -0.275037
C120  C     C_R   0.556223 0.001802 0.601060 -0.275008
C121  C     C_R   0.054040 0.512440 0.810126 0.530510
C122  C     C_R   0.488167 0.053597 0.810016 0.554042
C123  C     C_R   0.945928 0.487556 0.810117 0.530556
C124  C     C_R   0.512310 0.945337 0.810134 0.528541
C125  C     C_R   0.554041 0.012421 0.310126 0.530510
C126  C     C_R   0.988420 0.553586 0.310022 0.554043
C127  C     C_R   0.445929 0.987535 0.310117 0.530556
C128  C     C_R   0.012636 0.445342 0.310132 0.528536
C129  C     C_R   0.944061 0.487542 0.780164 -0.052800
C130  C     C_R   0.512379 0.943368 0.780153 -0.053589
C131  C     C_R   0.055908 0.512462 0.780173 -0.052766
C132  C     C_R   0.488198 0.055140 0.780133 -0.009565
C133  C     C_R   0.444063 0.987524 0.280164 -0.052801
C134  C     C_R   0.012674 0.443376 0.280151 -0.053599
C135  C     C_R   0.555910 0.012445 0.280174 -0.052765
C136  C     C_R   0.988418 0.555131 0.280139 -0.009558
C137  C     C_R   0.999985 0.500004 0.765239 -0.065266
C138  C     C_R   0.500269 0.999296 0.765207 -0.087570
C139  C     C_R   0.499987 0.999988 0.265239 -0.065266
C140  C     C_R   0.000503 0.499296 0.265209 -0.087567
C141  C     C_R   0.499999 0.000005 0.085965 -0.085573
C142  C     C_R   0.000032 0.499976 0.085970 -0.085632
C143  C     C_R   0.999997 0.500006 0.585965 -0.085565
C144  C     C_R   0.500019 0.999973 0.585970 -0.085629
C145  C     C_R   0.888754 0.475498 0.764433 0.145556
C146  C     C_R   0.524113 0.888030 0.764407 0.148819
C147  C     C_R   0.111217 0.524511 0.764451 0.145475
C148  C     C_R   0.476430 0.110467 0.764693 0.162939
C149  C     C_R   0.388756 0.975480 0.264432 0.145556
C150  C     C_R   0.024426 0.388048 0.264401 0.148816
C151  C     C_R   0.611218 0.024496 0.264452 0.145476
C152  C     C_R   0.976593 0.610452 0.264703 0.162945
C153  C     C_R   0.444932 0.987971 0.220104 -0.073600
C154  C     C_R   0.012101 0.444403 0.220066 -0.075467
C155  C     C_R   0.555045 0.012027 0.220114 -0.073545
C156  C     C_R   0.988538 0.554695 0.220169 -0.036328
C157  C     C_R   0.944930 0.487982 0.720104 -0.073601
C158  C     C_R   0.511907 0.944396 0.720068 -0.075469
C159  C     C_R   0.055044 0.512037 0.720113 -0.073545
C160  C     C_R   0.488418 0.054704 0.720164 -0.036322
C161  C     C_3   0.216000 0.007964 0.030513 -0.351175
C162  C     C_3   0.991922 0.215995 0.030505 -0.351157
C163  C     C_3   0.784014 0.992097 0.030508 -0.351215
C164  C     C_3   0.008045 0.784013 0.030503 -0.351375
C165  C     C_3   0.716005 0.507678 0.530524 -0.351131
C166  C     C_3   0.491807 0.715994 0.530499 -0.351186
C167  C     C_3   0.284036 0.490601 0.530435 -0.351549
C168  C     C_3   0.508067 0.284013 0.530503 -0.351369
C169  C     C_3   0.287508 0.008030 0.029866 -0.385803
C170  C     C_3   0.991844 0.287502 0.029858 -0.385753
C171  C     C_3   0.712508 0.992028 0.029862 -0.385894
C172  C     C_3   0.008121 0.712507 0.029857 -0.385986
C173  C     C_3   0.787512 0.507734 0.529877 -0.385836
C174  C     C_3   0.491722 0.787500 0.529853 -0.385747
C175  C     C_3   0.212531 0.490447 0.529790 -0.385831
C176  C     C_3   0.508145 0.212507 0.529856 -0.385988
C177  C     C_3   0.213005 0.938981 0.987439 -0.389732
C178  C     C_3   0.061052 0.213006 0.987486 -0.389743
C179  C     C_3   0.786985 0.061002 0.987413 -0.389708
C180  C     C_3   0.938958 0.786988 0.987462 -0.389796
C181  C     C_3   0.713014 0.439065 0.487327 -0.389568
C182  C     C_3   0.561085 0.713003 0.487531 -0.389811
C183  C     C_3   0.287028 0.561442 0.487996 -0.390545
C184  C     C_3   0.438951 0.286989 0.487471 -0.389908
C185  C     C_3   0.213745 0.055242 0.981693 -0.384137
C186  C     C_3   0.944808 0.213751 0.981648 -0.384115
C187  C     C_3   0.786246 0.944730 0.981702 -0.384272
C188  C     C_3   0.055208 0.786244 0.981662 -0.384186
C189  C     C_3   0.713732 0.555376 0.481789 -0.384318
C190  C     C_3   0.444860 0.713757 0.481609 -0.384055
C191  C     C_3   0.286175 0.445448 0.481196 -0.383328
C192  C     C_3   0.555197 0.286243 0.481654 -0.384138
Cu1   Cu    Cu3+1 0.000000 1.000000 0.028260 0.929164
Cu2   Cu    Cu3+1 0.500000 0.500000 0.528260 0.929176
Cu3   Cu    Cu3+1 0.000000 1.000000 0.971980 0.917222
Cu4   Cu    Cu3+1 0.500000 0.500000 0.471980 0.917222
Cu5   Cu    Cu3+1 0.499870 0.062530 0.000100 0.924897
Cu6   Cu    Cu3+1 0.937470 0.499870 0.000100 0.924540
Cu7   Cu    Cu3+1 0.500130 0.937470 0.000100 0.924496
Cu8   Cu    Cu3+1 0.062530 0.500130 0.000100 0.924556
Cu9   Cu    Cu3+1 0.999870 0.562530 0.500100 0.924840
Cu10  Cu    Cu3+1 0.437470 0.999870 0.500100 0.924535
Cu11  Cu    Cu3+1 0.000130 0.437470 0.500100 0.924499
Cu12  Cu    Cu3+1 0.562530 0.000130 0.500100 0.924553
H1    H     H_    0.302875 0.099775 0.989002 0.181165
H2    H     H_    0.900259 0.302890 0.988906 0.181087
H3    H     H_    0.697123 0.900206 0.989027 0.181035
H4    H     H_    0.099753 0.697112 0.988939 0.181046
H5    H     H_    0.802840 0.599870 0.489199 0.181162
H6    H     H_    0.400296 0.802905 0.488824 0.181090
H7    H     H_    0.196925 0.400733 0.487967 0.180985
H8    H     H_    0.599744 0.197108 0.488923 0.181044
H9    H     H_    0.301594 0.049606 0.958668 0.150344
H10   H     H_    0.950556 0.301592 0.958621 0.150104
H11   H     H_    0.698383 0.950319 0.958676 0.150158
H12   H     H_    0.049492 0.698393 0.958635 0.150074
H13   H     H_    0.801591 0.549997 0.458762 0.150431
H14   H     H_    0.450714 0.801590 0.458582 0.150072
H15   H     H_    0.198393 0.452430 0.458179 0.149718
H16   H     H_    0.549459 0.198393 0.458628 0.150068
H17   H     H_    0.195155 0.932806 0.965500 0.171923
H18   H     H_    0.067292 0.195169 0.965550 0.171919
H19   H     H_    0.804821 0.067137 0.965472 0.171928
H20   H     H_    0.932737 0.804820 0.965524 0.171848
H21   H     H_    0.695152 0.433066 0.465380 0.172023
H22   H     H_    0.567396 0.695172 0.465598 0.171883
H23   H     H_    0.304781 0.568489 0.466098 0.171425
H24   H     H_    0.432718 0.304819 0.465533 0.171826
H25   H     H_    0.300775 0.931919 0.964858 0.157915
H26   H     H_    0.068220 0.300789 0.964922 0.157916
H27   H     H_    0.699200 0.068026 0.964832 0.157845
H28   H     H_    0.931817 0.699201 0.964894 0.157892
H29   H     H_    0.800772 0.432241 0.464719 0.157784
H30   H     H_    0.568354 0.800792 0.464979 0.157950
H31   H     H_    0.199145 0.569761 0.465587 0.158314
H32   H     H_    0.431791 0.199199 0.464906 0.157896
H33   H     H_    0.943130 0.581404 0.857809 0.142873
H34   H     H_    0.418678 0.942909 0.857809 0.143332
H35   H     H_    0.056834 0.418582 0.857808 0.142860
H36   H     H_    0.581480 0.056655 0.857794 0.143897
H37   H     H_    0.443127 0.081386 0.357806 0.142874
H38   H     H_    0.918951 0.442853 0.357775 0.143307
H39   H     H_    0.556838 0.918568 0.357811 0.142860
H40   H     H_    0.081690 0.556689 0.357831 0.143901
H41   H     H_    0.347355 0.966675 0.223566 0.199781
H42   H     H_    0.032958 0.346701 0.223492 0.199336
H43   H     H_    0.652623 0.033321 0.223593 0.199766
H44   H     H_    0.967680 0.652427 0.223831 0.186229
H45   H     H_    0.847352 0.466688 0.723567 0.199781
H46   H     H_    0.532683 0.846679 0.723501 0.199338
H47   H     H_    0.152621 0.533331 0.723592 0.199767
H48   H     H_    0.467613 0.152449 0.723819 0.186229
H49   H     H_    0.496334 0.100109 0.089912 0.166997
H50   H     H_    0.899926 0.496551 0.089936 0.166927
H51   H     H_    0.503662 0.899901 0.089908 0.166940
H52   H     H_    0.100151 0.503394 0.089899 0.166981
H53   H     H_    0.996328 0.600110 0.589911 0.167002
H54   H     H_    0.399909 0.996579 0.589923 0.166939
H55   H     H_    0.003666 0.399902 0.589909 0.166937
H56   H     H_    0.600136 0.003361 0.589911 0.166971
H57   H     H_    0.199711 0.969096 0.044153 0.174664
H58   H     H_    0.030750 0.199715 0.044174 0.174825
H59   H     H_    0.800311 0.030989 0.044136 0.174686
H60   H     H_    0.969205 0.800298 0.044161 0.174553
H61   H     H_    0.699705 0.468703 0.544097 0.174516
H62   H     H_    0.530591 0.699720 0.544196 0.174887
H63   H     H_    0.300257 0.528923 0.544413 0.175474
H64   H     H_    0.469236 0.300298 0.544165 0.174546
H65   H     H_    0.199264 0.052037 0.040167 0.165706
H66   H     H_    0.947822 0.199247 0.040126 0.165638
H67   H     H_    0.800755 0.948040 0.040176 0.165584
H68   H     H_    0.052137 0.800762 0.040139 0.165526
H69   H     H_    0.699283 0.551677 0.540255 0.165880
H70   H     H_    0.447676 0.699240 0.540090 0.165589
H71   H     H_    0.300862 0.446165 0.539704 0.164674
H72   H     H_    0.552166 0.300764 0.540132 0.165513
H73   H     H_    0.305139 0.052374 0.038921 0.167074
H74   H     H_    0.947458 0.305119 0.038870 0.167156
H75   H     H_    0.694883 0.947701 0.038930 0.166951
H76   H     H_    0.052496 0.694891 0.038885 0.167016
H77   H     H_    0.805155 0.551985 0.539021 0.166963
H78   H     H_    0.447297 0.805111 0.538828 0.167213
H79   H     H_    0.194990 0.445625 0.538373 0.167591
H80   H     H_    0.552527 0.194892 0.538877 0.167027
H81   H     H_    0.305450 0.969636 0.043359 0.162670
H82   H     H_    0.030177 0.305451 0.043388 0.162684
H83   H     H_    0.694574 0.030447 0.043343 0.162705
H84   H     H_    0.969771 0.694564 0.043373 0.162456
H85   H     H_    0.805445 0.469205 0.543292 0.162783
H86   H     H_    0.529998 0.805454 0.543415 0.162639
H87   H     H_    0.194534 0.528115 0.543686 0.162123
H88   H     H_    0.469806 0.194563 0.543379 0.162443
H89   H     H_    0.195637 0.899226 0.000251 0.144564
H90   H     H_    0.100765 0.195627 0.000326 0.144640
H91   H     H_    0.804361 0.100782 0.000212 0.144583
H92   H     H_    0.899231 0.804370 0.000290 0.144541
H93   H     H_    0.695666 0.399199 0.500073 0.144497
H94   H     H_    0.600756 0.695614 0.500396 0.144664
H95   H     H_    0.304522 0.600639 0.501132 0.144897
H96   H     H_    0.399233 0.304374 0.500303 0.144520
H97   H     H_    0.301320 0.898078 0.999617 0.179779
H98   H     H_    0.101918 0.301308 0.999712 0.179813
H99   H     H_    0.698678 0.101926 0.999579 0.179809
H100  H     H_    0.898079 0.698688 0.999671 0.179725
H101  H     H_    0.801347 0.398067 0.499408 0.179784
H102  H     H_    0.601915 0.801296 0.499797 0.179801
H103  H     H_    0.198834 0.601846 0.500695 0.179701
H104  H     H_    0.398081 0.198691 0.499689 0.179719
H105  H     H_    0.195662 0.051521 0.959685 0.177296
H106  H     H_    0.948592 0.195664 0.959644 0.177210
H107  H     H_    0.804317 0.948413 0.959694 0.177145
H108  H     H_    0.051442 0.804323 0.959657 0.177152
H109  H     H_    0.695657 0.551831 0.459774 0.177235
H110  H     H_    0.448713 0.695664 0.459609 0.177231
H111  H     H_    0.304303 0.450032 0.459234 0.177439
H112  H     H_    0.551417 0.304323 0.459650 0.177158
H113  H     H_    0.197187 0.100254 0.990479 0.143462
H114  H     H_    0.899764 0.197202 0.990401 0.143435
H115  H     H_    0.802811 0.899734 0.990501 0.143382
H116  H     H_    0.100243 0.802799 0.990428 0.143403
H117  H     H_    0.697154 0.600310 0.490650 0.143450
H118  H     H_    0.399784 0.697217 0.490331 0.143538
H119  H     H_    0.302620 0.400045 0.489600 0.143490
H120  H     H_    0.600238 0.302797 0.490415 0.143383
N1    N     N_R   0.499991 0.000008 0.176111 -0.432872
N2    N     N_R   0.000168 0.499725 0.176124 -0.435341
N3    N     N_R   0.999989 0.500013 0.676111 -0.432870
N4    N     N_R   0.500089 0.999728 0.676123 -0.435340
N5    N     N_R   0.999983 0.499996 0.824181 -0.448201
N6    N     N_R   0.500192 0.999565 0.824169 -0.461948
N7    N     N_R   0.499984 0.999976 0.324181 -0.448201
N8    N     N_R   0.000488 0.499558 0.324171 -0.461950
O1    O     O_R   0.999860 0.091180 0.023880 -0.591279
O2    O     O_R   0.908820 0.999860 0.023880 -0.591362
O3    O     O_R   0.000140 0.908820 0.023880 -0.591407
O4    O     O_R   0.091180 0.000140 0.023880 -0.591321
O5    O     O_R   0.499860 0.591180 0.523880 -0.591214
O6    O     O_R   0.408820 0.499860 0.523880 -0.591314
O7    O     O_R   0.500140 0.408820 0.523880 -0.591470
O8    O     O_R   0.591180 0.500140 0.523880 -0.591325
O9    O     O_R   0.999880 0.091240 0.976350 -0.592005
O10   O     O_R   0.908760 0.999880 0.976350 -0.592014
O11   O     O_R   0.000120 0.908760 0.976350 -0.592021
O12   O     O_R   0.091240 0.000120 0.976350 -0.591996
O13   O     O_R   0.499880 0.591240 0.476350 -0.591952
O14   O     O_R   0.408760 0.499880 0.476350 -0.592040
O15   O     O_R   0.500120 0.408760 0.476350 -0.592075
O16   O     O_R   0.591240 0.500120 0.476350 -0.591987
O17   O     O_2   0.105347 0.525193 0.825382 -0.570265
O18   O     O_2   0.475728 0.105404 0.825025 -0.508220
O19   O     O_2   0.894619 0.474799 0.825365 -0.570183
O20   O     O_2   0.524697 0.893981 0.825412 -0.567938
O21   O     O_2   0.605348 0.025174 0.325383 -0.570271
O22   O     O_2   0.975961 0.605383 0.325034 -0.508252
O23   O     O_2   0.394621 0.974777 0.325364 -0.570181
O24   O     O_2   0.025072 0.393992 0.325406 -0.567908
O25   O     O_2   0.393300 0.977183 0.175673 -0.545715
O26   O     O_2   0.022520 0.392921 0.175588 -0.544724
O27   O     O_2   0.606681 0.022835 0.175691 -0.545858
O28   O     O_2   0.977803 0.606533 0.175799 -0.545635
O29   O     O_2   0.893299 0.477189 0.675673 -0.545714
O30   O     O_2   0.522369 0.892909 0.675594 -0.544723
O31   O     O_2   0.106680 0.522839 0.675691 -0.545863
O32   O     O_2   0.477794 0.106551 0.675790 -0.545640
O33   O     O_R   0.499860 0.052830 0.041160 -0.585154
O34   O     O_R   0.947170 0.499860 0.041160 -0.585171
O35   O     O_R   0.500140 0.947170 0.041160 -0.585217
O36   O     O_R   0.052830 0.500140 0.041160 -0.585169
O37   O     O_R   0.999860 0.552830 0.541160 -0.585163
O38   O     O_R   0.447170 0.999860 0.541160 -0.585185
O39   O     O_R   0.000140 0.447170 0.541160 -0.585235
O40   O     O_R   0.552830 0.000140 0.541160 -0.585164
O41   O     O_R   0.408720 0.052800 0.000100 -0.589867
O42   O     O_R   0.947200 0.408720 0.000100 -0.589919
O43   O     O_R   0.591280 0.947200 0.000100 -0.589982
O44   O     O_R   0.052800 0.591280 0.000100 -0.589956
O45   O     O_R   0.908720 0.552800 0.500100 -0.589868
O46   O     O_R   0.447200 0.908720 0.500100 -0.589913
O47   O     O_R   0.091280 0.447200 0.500100 -0.589944
O48   O     O_R   0.552800 0.091280 0.500100 -0.589954
O49   O     O_R   0.408730 0.947290 0.000130 -0.594613
O50   O     O_R   0.052710 0.408730 0.000130 -0.594592
O51   O     O_R   0.591270 0.052710 0.000130 -0.594572
O52   O     O_R   0.947290 0.591270 0.000130 -0.594635
O53   O     O_R   0.908730 0.447290 0.500130 -0.594574
O54   O     O_R   0.552710 0.908730 0.500130 -0.594604
O55   O     O_R   0.091270 0.552710 0.500130 -0.594712
O56   O     O_R   0.447290 0.091270 0.500130 -0.594638
O57   O     O_R   0.499890 0.052800 0.959040 -0.582042
O58   O     O_R   0.947200 0.499890 0.959040 -0.582160
O59   O     O_R   0.500110 0.947200 0.959040 -0.582150
O60   O     O_R   0.052800 0.500110 0.959040 -0.582173
O61   O     O_R   0.999890 0.552800 0.459040 -0.582037
O62   O     O_R   0.447200 0.999890 0.459040 -0.582158
O63   O     O_R   0.000110 0.447200 0.459040 -0.582132
O64   O     O_R   0.552800 0.000110 0.459040 -0.582173
N9    N     N_3   0.829952 0.462741 0.777378 -0.576545
H121  H     H_    0.816826 0.500525 0.789901 0.262652
H122  H     H_    0.833395 0.422348 0.789530 0.265415
N10   N     N_3   0.536553 0.829167 0.777355 -0.576646
H123  H     H_    0.498690 0.816267 0.789875 0.262369
H124  H     H_    0.576924 0.832440 0.789537 0.265172
N11   N     N_3   0.170017 0.537265 0.777406 -0.576690
H125  H     H_    0.183143 0.499476 0.789926 0.262322
H126  H     H_    0.166574 0.577654 0.789563 0.265538
N12   N     N_3   0.464235 0.168155 0.778762 -0.510628
H127  H     H_    0.420731 0.184181 0.772195 0.220543
H128  H     H_    0.497569 0.200402 0.772225 0.219278
N13   N     N_3   0.329955 0.962720 0.277377 -0.576542
H129  H     H_    0.316828 0.000504 0.289901 0.262654
H130  H     H_    0.333398 0.922326 0.289529 0.265415
N14   N     N_3   0.036933 0.329194 0.277345 -0.576646
H131  H     H_    0.999097 0.316261 0.289874 0.262373
H132  H     H_    0.077317 0.332501 0.289516 0.265168
N15   N     N_3   0.670019 0.037248 0.277407 -0.576694
H133  H     H_    0.683144 0.999459 0.289927 0.262319
H134  H     H_    0.666576 0.077637 0.289565 0.265537
N16   N     N_3   0.964386 0.668133 0.278776 -0.510634
H135  H     H_    0.920861 0.684133 0.272224 0.220543
H136  H     H_    0.997690 0.700400 0.272226 0.219275
C193  C     C_3   0.932864 0.599052 0.913791 -0.409603
C194  C     C_3   0.862842 0.586223 0.914046 -0.288732
C195  C     C_3   0.827848 0.635511 0.930873 -0.866390
H137  H     H_    0.841525 0.633566 0.953523 0.255891
H138  H     H_    0.837771 0.682522 0.922329 0.251236
H139  H     H_    0.777160 0.626755 0.929369 0.245502
H140  H     H_    0.844960 0.585738 0.891966 0.220991
H141  H     H_    0.853589 0.540046 0.923670 0.237550
H142  H     H_    0.949904 0.606278 0.935698 0.193084
H143  H     H_    0.942081 0.643333 0.902429 0.184489
C196  C     C_3   0.400942 0.932836 0.913789 -0.410054
C197  C     C_3   0.413743 0.862810 0.914067 -0.288759
C198  C     C_3   0.364442 0.827856 0.930900 -0.866325
H144  H     H_    0.366391 0.841563 0.953545 0.255896
H145  H     H_    0.317435 0.837783 0.922347 0.251278
H146  H     H_    0.373178 0.777163 0.929411 0.245477
H147  H     H_    0.414223 0.844896 0.891993 0.221074
H148  H     H_    0.459917 0.853555 0.923699 0.237558
H149  H     H_    0.393716 0.949905 0.935689 0.193169
H150  H     H_    0.356667 0.942054 0.902417 0.184650
C199  C     C_3   0.067110 0.400936 0.913791 -0.409613
C200  C     C_3   0.137133 0.413760 0.914049 -0.288949
C201  C     C_3   0.172130 0.364475 0.930877 -0.865656
H151  H     H_    0.158464 0.366429 0.953526 0.255779
H152  H     H_    0.162200 0.317462 0.922333 0.251366
H153  H     H_    0.222818 0.373226 0.929374 0.245667
H154  H     H_    0.155007 0.414238 0.891970 0.221067
H155  H     H_    0.146392 0.459939 0.923674 0.237524
H156  H     H_    0.050078 0.393712 0.935696 0.193082
H157  H     H_    0.057886 0.356653 0.902427 0.184555
C202  C     C_3   0.599047 0.067094 0.913777 -0.410723
C203  C     C_3   0.586203 0.137112 0.914027 -0.287567
C204  C     C_3   0.635498 0.172129 0.930846 -0.865691
H158  H     H_    0.633591 0.158450 0.953494 0.255682
H159  H     H_    0.682502 0.162229 0.922289 0.251305
H160  H     H_    0.626718 0.222813 0.929348 0.245888
H161  H     H_    0.585698 0.154974 0.891946 0.222837
H162  H     H_    0.540031 0.146360 0.923657 0.237692
H163  H     H_    0.606275 0.050072 0.935684 0.193036
H164  H     H_    0.643333 0.057881 0.902417 0.184833
C205  C     C_3   0.432862 0.099042 0.413788 -0.409596
C206  C     C_3   0.362839 0.086213 0.414044 -0.288722
C207  C     C_3   0.327845 0.135502 0.430869 -0.866404
H165  H     H_    0.341521 0.133561 0.453518 0.255886
H166  H     H_    0.337767 0.182512 0.422324 0.251237
H167  H     H_    0.277157 0.126746 0.429365 0.245503
H168  H     H_    0.344957 0.085723 0.391964 0.220992
H169  H     H_    0.353588 0.040037 0.423670 0.237549
H170  H     H_    0.449901 0.106274 0.435694 0.193086
H171  H     H_    0.442077 0.143322 0.402424 0.184491
C208  C     C_3   0.901060 0.432829 0.413745 -0.409994
C209  C     C_3   0.913849 0.362802 0.414048 -0.288825
C210  C     C_3   0.864479 0.327879 0.430853 -0.866277
H172  H     H_    0.866328 0.341635 0.453494 0.255879
H173  H     H_    0.817507 0.337785 0.422255 0.251298
H174  H     H_    0.873224 0.277184 0.429395 0.245466
H175  H     H_    0.914403 0.344863 0.391979 0.221053
H176  H     H_    0.959986 0.353549 0.423717 0.237573
H177  H     H_    0.893774 0.449924 0.435637 0.193120
H178  H     H_    0.856819 0.442041 0.402345 0.184673
C211  C     C_3   0.567120 0.900934 0.413795 -0.409601
C212  C     C_3   0.637142 0.913770 0.414052 -0.288936
C213  C     C_3   0.672148 0.864500 0.430884 -0.865668
H179  H     H_    0.658489 0.866467 0.453534 0.255781
H180  H     H_    0.662221 0.817480 0.422347 0.251358
H181  H     H_    0.722835 0.873255 0.429377 0.245663
H182  H     H_    0.655015 0.914243 0.391973 0.221062
H183  H     H_    0.646392 0.959956 0.423673 0.237523
H184  H     H_    0.550090 0.893708 0.435700 0.193096
H185  H     H_    0.557904 0.856648 0.402431 0.184548
C214  C     C_3   0.099081 0.567229 0.413824 -0.410625
C215  C     C_3   0.086090 0.637222 0.414046 -0.287424
C216  C     C_3   0.135204 0.672371 0.430916 -0.865738
H186  H     H_    0.133111 0.658799 0.453574 0.255684
H187  H     H_    0.182292 0.662486 0.422452 0.251229
H188  H     H_    0.126380 0.723037 0.429354 0.245895
H189  H     H_    0.085677 0.655058 0.391959 0.222818
H190  H     H_    0.039841 0.646386 0.423615 0.237674
H191  H     H_    0.106315 0.550246 0.435740 0.193245
H192  H     H_    0.143410 0.558097 0.402486 0.184759
N17   N     N_3   0.495450 0.113890 0.145906 -0.576040
H193  H     H_    0.533674 0.140641 0.139805 0.230953
H194  H     H_    0.455287 0.137455 0.139663 0.220680
N18   N     N_3   0.886223 0.495591 0.145937 -0.576574
H195  H     H_    0.859559 0.533893 0.139856 0.230383
H196  H     H_    0.862548 0.455500 0.139682 0.220832
N19   N     N_3   0.504537 0.886127 0.145901 -0.576397
H197  H     H_    0.466316 0.859374 0.139793 0.230876
H198  H     H_    0.544702 0.862561 0.139663 0.220394
N20   N     N_3   0.114007 0.504109 0.145889 -0.576451
H199  H     H_    0.140651 0.465834 0.139757 0.230994
H200  H     H_    0.137668 0.544228 0.139665 0.220401
N21   N     N_3   0.995443 0.613893 0.645905 -0.576042
H201  H     H_    0.033665 0.640646 0.639804 0.230951
H202  H     H_    0.955279 0.637456 0.639662 0.220681
N22   N     N_3   0.386169 0.995626 0.645920 -0.576602
H203  H     H_    0.359520 0.033935 0.639836 0.230371
H204  H     H_    0.362485 0.955541 0.639662 0.220844
N23   N     N_3   0.004541 0.386130 0.645902 -0.576397
H205  H     H_    0.966321 0.359375 0.639794 0.230874
H206  H     H_    0.044707 0.362566 0.639665 0.220395
N24   N     N_3   0.613955 0.004070 0.645904 -0.576439
H207  H     H_    0.640590 0.965786 0.639776 0.230981
H208  H     H_    0.637633 0.044181 0.639684 0.220411

loop_
_geom_bond_atom_site_label_1
_geom_bond_atom_site_label_2
_ccdc_geom_bond_type
Cu2   Cu4   S    
C115  C141  A    
C110  N22   S    
C130  C146  A    
C119  C143  A    
C38   H14   S    
Cu3   O11   S    
C120  C144  A    
Cu7   O43   S    
C136  C140  A    
C208  H178  S    
C110  C118  A    
C189  H109  S    
C121  N5    A    
C66   N2    A    
C26   H26   S    
C210  H174  S    
C177  H89   S    
C45   C57   A    
C41   C105  A    
C49   C153  A    
N11   H126  S    
N9    H122  S    
C116  H52   S    
N19   H198  S    
Cu2   O8    S    
C212  H182  S    
C22   C38   S    
C112  N24   S    
Cu6   O58   S    
C122  O18   S    
C215  H190  S    
C98   O46   A    
C209  H175  S    
C82   C140  A    
C108  N20   S    
C8    O8    A    
C147  N11   S    
C68   O28   S    
C124  N6    A    
C38   C190  S    
C4    O12   A    
N16   H136  S    
C188  H116  S    
C46   C60   A    
C125  C135  A    
C205  H170  S    
C10   C162  S    
C151  N15   S    
C40   H16   S    
C30   C182  S    
C168  H64   S    
C79   C87   A    
C136  C152  A    
C195  H139  S    
C18   C170  S    
C61   H37   S    
C114  H50   S    
C102  O60   A    
C166  C174  S    
C26   H98   S    
C207  H165  S    
Cu10  O38   S    
C95   O51   A    
C183  H23   S    
C112  C120  A    
C33   H9    S    
C20   C28   S    
C181  H21   S    
C120  H56   S    
C21   C29   S    
C60   C76   A    
C36   C188  S    
C23   C31   S    
C204  H160  S    
C51   H43   S    
C24   C32   S    
C71   O31   S    
C39   C191  S    
C83   C157  A    
C198  H146  S    
C105  N17   S    
C146  N10   S    
C166  H62   S    
C124  C130  A    
C28   C180  S    
C29   H29   S    
C125  O21   S    
C44   C112  A    
C197  C198  S    
C20   C172  S    
C133  C139  A    
C21   C173  S    
C216  H187  S    
N12   H128  S    
Cu3   O9    S    
C11   C179  S    
C190  H118  S    
C203  H162  S    
C130  C138  A    
C9    C177  S    
N18   H195  S    
C96   O52   A    
C45   N5    S    
C32   H32   S    
C69   N3    A    
C15   C191  S    
C45   C59   A    
C41   C107  A    
Cu12  O40   S    
C24   C100  S    
C1    C10   S    
C16   C168  S    
C199  H156  S    
N22   H203  S    
C116  C142  A    
C70   N4    A    
C16   C184  S    
C118  H54   S    
Cu2   O6    S    
Cu11  O63   S    
C181  H93   S    
C17   C25   S    
Cu8   O44   S    
C30   H102  S    
C211  H184  S    
C80   C88   A    
C19   C35   S    
Cu10  O62   S    
C75   C199  S    
C31   H31   S    
C164  H60   S    
C180  H20   S    
Cu9   O45   S    
C94   O50   A    
C200  H155  S    
C170  H74   S    
C201  H152  S    
Cu11  O39   S    
C3    O11   A    
C161  H57   S    
C213  H181  S    
C129  C137  A    
C162  H58   S    
C125  N7    A    
Cu6   Cu8   S    
C168  C176  S    
N13   H129  S    
C50   H42   S    
C57   H33   S    
C67   N1    A    
C37   H5    S    
C102  O58   A    
C185  H113  S    
C193  C194  S    
C22   C98   S    
C103  O63   A    
C5    O5    A    
C187  H115  S    
C7    O15   A    
C98   O54   A    
C205  C206  S    
C197  H148  S    
C111  N23   S    
C192  H112  S    
Cu6   O42   S    
C105  C113  A    
N14   H131  S    
Cu4   O16   S    
Cu12  O64   S    
C172  H84   S    
C173  H77   S    
C193  H142  S    
C81   C153  A    
C111  C119  A    
C36   H4    S    
C57   C73   A    
C48   N8    S    
C166  H70   S    
C65   C153  A    
C78   C88   A    
C206  H168  S    
C196  C197  S    
C61   C77   A    
C69   C157  A    
N15   H134  S    
C131  C147  A    
Cu1   O3    S    
C14   C166  S    
C28   H28   S    
C107  N19   S    
C190  H110  S    
C161  C169  S    
C20   C96   S    
C74   C196  S    
N17   H193  S    
C46   C58   A    
C1    O9    A    
Cu9   Cu11  S    
C15   C167  S    
C40   H8    S    
C43   C111  A    
C65   N1    A    
C2    C11   S    
C192  H120  S    
C96   O44   A    
C2    O10   A    
C91   C143  S    
C18   C34   S    
C109  N21   S    
C209  C210  S    
C68   N2    A    
C31   H103  S    
C84   C158  A    
Cu5   O57   S    
C106  N18   S    
C92   O38   A    
C152  N16   S    
C163  H67   S    
N21   H202  S    
C6    O6    A    
C128  C134  A    
C1    O1    A    
C23   C99   S    
C66   O26   S    
C48   C62   A    
C213  H179  S    
C90   O36   A    
C3    O3    A    
C11   C163  S    
C211  C212  S    
C122  C132  A    
C38   H6    S    
C9    C161  S    
C214  H191  S    
N24   H208  S    
C60   H36   S    
C12   C180  S    
C13   C181  S    
C103  O61   A    
C194  C195  S    
C164  C172  S    
C17   C93   S    
Cu12  O48   S    
C89   O33   A    
C59   H35   S    
C19   C95   S    
C58   C74   A    
C196  H149  S    
N23   H206  S    
C149  N13   S    
C22   C30   S    
C126  N8    A    
C129  C145  A    
C62   C78   A    
Cu11  O53   S    
Cu8   O50   S    
N10   H123  S    
C208  H177  S    
Cu9   O55   S    
C8    O16   A    
Cu10  O56   S    
C210  H173  S    
C191  H111  S    
C81   C155  A    
C128  O24   S    
C175  H87   S    
C176  H80   S    
C150  N14   S    
N9    H121  S    
C184  H96   S    
C80   C214  S    
C212  H183  S    
C10   C186  S    
C113  C141  A    
C209  H176  S    
N24   H207  S    
C168  H72   S    
C47   N7    S    
C202  C203  S    
C14   C190  S    
C124  O20   S    
C176  H88   S    
C77   C87   A    
C69   O29   S    
C43   C109  A    
C177  H17   S    
C4    C9    S    
C35   H11   S    
C49   H41   S    
C85   C102  S    
C91   O37   A    
C100  O48   A    
C119  H55   S    
C71   N3    A    
C8    C13   S    
C2    O2    A    
C76   C202  S    
C77   C205  S    
C182  H94   S    
C179  H91   S    
C18   C26   S    
C37   H13   S    
C122  N6    A    
C84   C160  A    
C109  C117  A    
C195  H138  S    
C73   C193  S    
C92   O40   A    
C25   H25   S    
Cu10  Cu12  S    
C169  H81   S    
C167  C175  S    
C27   C179  S    
C171  H83   S    
C47   C63   A    
C25   C177  S    
C48   C64   A    
C23   C175  S    
C90   O34   A    
C132  C138  A    
C52   H44   S    
C46   N6    S    
C215  C216  S    
Cu5   O51   S    
C83   C137  A    
C99   O47   A    
C204  H159  S    
C121  O17   S    
Cu7   O49   S    
C43   N3    S    
C83   C159  A    
C14   C182  S    
C123  O19   S    
C75   C85   A    
N18   H196  S    
C198  H145  S    
C15   C183  S    
C186  H114  S    
C207  H167  S    
C100  O56   A    
C101  O57   A    
C163  C171  S    
C89   O35   A    
C99   O55   A    
C54   C146  A    
C55   C159  A    
C51   C151  A    
C216  H186  S    
C180  H92   S    
C64   C80   A    
Cu3   O12   S    
C17   C33   S    
C183  H95   S    
C104  O62   A    
C44   N4    S    
C93   O49   A    
C174  H78   S    
C113  H49   S    
N19   H197  S    
Cu9   O37   S    
N22   H204  S    
C34   H10   S    
C66   C154  A    
C206  C207  S    
C203  C204  S    
C161  H65   S    
Cu2   O7    S    
Cu5   O33   S    
C79   C211  S    
C70   C158  A    
Cu7   O35   S    
C215  H189  S    
C188  H108  S    
C208  C209  S    
C131  C137  A    
C12   C164  S    
C13   C165  S    
C162  C170  S    
C52   C152  A    
C51   C155  A    
C185  H105  S    
C54   H46   S    
C67   O27   S    
C30   H30   S    
C187  H107  S    
C5    C14   S    
C90   C142  S    
C35   H3    S    
C7    C16   S    
C213  H180  S    
C148  N12   S    
C205  H171  S    
C191  H119  S    
Cu1   O1    S    
C76   C86   A    
C42   N2    S    
C39   H15   S    
C81   C139  A    
C173  H85   S    
C32   H104  S    
C182  H22   S    
C127  C133  A    
C47   C61   A    
C64   H40   S    
C67   C155  A    
C72   N4    A    
Cu6   O34   S    
C135  C139  A    
C9    C185  S    
C108  C116  A    
N14   H132  S    
Cu4   O13   S    
C21   C97   S    
C93   O41   A    
C135  C151  A    
C56   H48   S    
Cu10  O46   S    
C101  O59   A    
C87   C104  S    
C20   C36   S    
C206  H169  S    
C21   C37   S    
C35   C187  S    
C212  C213  S    
C128  N8    A    
C216  H188  S    
Cu6   O52   S    
N12   H127  S    
Cu3   O10   S    
C33   C185  S    
Cu1   O2    S    
C203  H161  S    
Cu12  O54   S    
C36   H12   S    
C104  O64   A    
C12   C188  S    
C37   C189  S    
C194  H141  S    
C29   H101  S    
Cu4   O14   S    
N11   H125  S    
C199  H157  S    
C34   C186  S    
N23   H205  S    
C63   C79   A    
C34   H2    S    
Cu2   O5    S    
C127  O23   S    
C29   C181  S    
C106  C114  A    
C11   C187  S    
C211  H185  S    
C114  C142  A    
C189  H117  S    
Cu5   O41   S    
C117  C143  A    
C19   C171  S    
C118  C144  A    
C134  C140  A    
C17   C169  S    
C123  N5    A    
C165  C173  S    
C134  C150  A    
C25   H97   S    
C13   C189  S    
C41   N1    S    
N21   H201  S    
C27   H99   S    
C200  H154  S    
C28   H100  S    
C201  H153  S    
C3    C12   S    
C16   C192  S    
C6    C15   S    
Cu1   Cu3   S    
C40   C192  S    
C78   C208  S    
C178  H90   S    
N20   H200  S    
C214  C215  S    
Cu8   O36   S    
N13   H130  S    
C19   C27   S    
C82   C156  A    
C164  H68   S    
C84   C138  A    
C165  H61   S    
C123  C129  A    
Cu7   O59   S    
C94   O42   A    
C170  H82   S    
C175  H79   S    
C121  C131  A    
Cu11  O47   S    
C53   C145  A    
C22   C174  S    
C62   H38   S    
C167  H63   S    
C26   C178  S    
C197  H147  S    
C10   C178  S    
Cu4   O15   S    
C133  C149  A    
C210  H172  S    
N10   H124  S    
C167  H71   S    
C195  H137  S    
C202  H164  S    
C193  H143  S    
C5    O13   A    
C179  H19   S    
C56   C148  A    
C7    O7    A    
N20   H199  S    
C54   C158  A    
C117  H53   S    
C50   C150  A    
C55   C147  A    
N15   H133  S    
C65   O25   S    
C63   H39   S    
C39   H7    S    
Cu1   O4    S    
C53   H45   S    
C74   C86   A    
Cu5   Cu7   S    
C126  O22   S    
C107  C115  A    
C172  H76   S    
Cu9   O61   S    
C27   H27   S    
C91   O39   A    
C42   C106  A    
C4    O4    A    
N17   H194  S    
C70   O30   S    
C18   C94   S    
C55   H47   S    
C169  H73   S    
C59   C75   A    
C88   C103  S    
C171  H75   S    
N16   H135  S    
C73   C85   A    
C162  H66   S    
C97   O45   A    
C126  C136  A    
C31   C183  S    
C33   H1    S    
C132  C148  A    
C127  N7    A    
C32   C184  S    
C72   O32   S    
C68   C156  A    
C97   O53   A    
C52   C156  A    
C71   C159  A    
C53   C157  A    
C72   C160  A    
C49   C149  A    
C186  H106  S    
C95   O43   A    
C200  C201  S    
C201  H151  S    
C56   C160  A    
C6    O14   A    
C199  C200  S    
C50   C154  A    
C89   C141  S    
C24   C40   S    
C202  H163  S    
C204  H158  S    
C92   C144  S    
C214  H192  S    
Cu8   O60   S    
C82   C154  A    
C194  H140  S    
C115  H51   S    
C145  N9    S    
C198  H144  S    
C174  H86   S    
C163  H59   S    
C207  H166  S    
C184  H24   S    
C178  H18   S    
C165  H69   S    
C58   H34   S    
C86   C101  S    
C42   C108  A    
C23   C39   S    
C44   C110  A    
C196  H150  S    
C24   C176  S    
