data_mof_unit_60415.cif
_audit_creation_date              2012-12-10T17:53:03-0500
_audit_creation_method            fapswitch 2.2
_symmetry_space_group_name_H-M    P1
_symmetry_Int_Tables_number       1
_space_group_crystal_system       triclinic
_cell_length_a                    19.625383
_cell_length_b                    19.625429
_cell_length_c                    43.064715
_cell_angle_alpha                 90.000204
_cell_angle_beta                  89.990955
_cell_angle_gamma                 89.999322
_cell_volume                      16586.6573074

loop_
_atom_site_label
_atom_site_type_symbol
_atom_type_description
_atom_site_fract_x
_atom_site_fract_y
_atom_site_fract_z
_atom_type_partial_charge
C1    C     C_R   0.999984 0.499974 0.531568 0.322665
C2    C     C_R   0.499991 0.999992 0.334301 0.874249
C3    C     C_R   0.542479 0.955806 0.582170 0.409196
C4    C     C_R   0.044041 0.455942 0.417822 0.412055
C5    C     C_R   0.947508 0.466584 0.582339 0.404090
C6    C     C_R   0.533982 0.052793 0.417569 0.403607
C7    C     C_R   0.462142 0.050885 0.582342 0.405364
C8    C     C_R   0.500001 1.000000 0.934249 -0.231202
C9    C     C_R   0.500000 0.999999 0.065948 -0.214776
C10   C     C_R   0.999989 0.500009 0.934052 -0.214775
C11   C     C_R   0.000012 0.500009 0.065751 -0.231199
C12   C     C_R   0.999992 0.499982 0.434248 -0.231173
C13   C     C_R   0.999998 0.500000 0.665701 0.873893
C14   C     C_R   0.999984 0.499983 0.565948 -0.214830
C15   C     C_R   0.499515 0.001153 0.434070 -0.214291
C16   C     C_R   0.502042 0.003334 0.565844 -0.221968
C17   C     C_3   0.394261 0.077019 0.868560 -0.309698
C18   C     C_3   0.410840 0.151533 0.861502 -0.787456
C19   C     C_3   0.616628 0.059172 0.132023 -0.362658
C20   C     C_3   0.662438 0.002142 0.144132 -0.843482
C21   C     C_3   0.059161 0.616633 0.867963 -0.362664
C22   C     C_3   0.002131 0.662440 0.855852 -0.843473
C23   C     C_3   0.077028 0.394264 0.131441 -0.309678
C24   C     C_R   0.000000 0.500000 0.334352 0.848944
C25   C     C_3   0.151541 0.410843 0.138495 -0.787362
C26   C     C_3   0.605743 0.922985 0.868544 -0.309677
C27   C     C_3   0.589168 0.848470 0.861488 -0.787303
C28   C     C_3   0.383372 0.940827 0.132040 -0.362659
C29   C     C_3   0.337562 0.997857 0.144155 -0.843478
C30   C     C_3   0.940803 0.383384 0.867974 -0.362655
C31   C     C_3   0.997829 0.337566 0.855860 -0.843492
C32   C     C_3   0.923010 0.605758 0.131455 -0.309668
C33   C     C_3   0.848490 0.589195 0.138514 -0.787310
C34   C     C_3   0.894226 0.576967 0.368559 -0.309652
C35   C     C_R   0.000005 0.500000 0.165648 0.848919
C36   C     C_3   0.910776 0.651489 0.361503 -0.787517
C37   C     C_3   0.116631 0.559149 0.632019 -0.362510
C38   C     C_3   0.162437 0.502112 0.644124 -0.843478
C39   C     C_3   0.439118 0.884506 0.368221 -0.362030
C40   C     C_3   0.495592 0.837950 0.356150 -0.844048
C41   C     C_3   0.570879 0.891290 0.631289 -0.315122
C42   C     C_3   0.646189 0.903154 0.638535 -0.788174
C43   C     C_3   0.105779 0.423036 0.368541 -0.309638
C44   C     C_3   0.089241 0.348514 0.361483 -0.787517
C45   C     C_3   0.883349 0.440854 0.632047 -0.362434
C46   C     C_R   0.999995 0.500001 0.834300 0.873923
C47   C     C_3   0.837552 0.497897 0.644159 -0.843107
C48   C     C_3   0.560837 0.116093 0.367768 -0.361611
C49   C     C_3   0.504540 0.162440 0.355370 -0.843759
C50   C     C_3   0.429178 0.111419 0.632097 -0.355492
C51   C     C_3   0.480788 0.161479 0.645701 -0.839612
C52   C     C_3   0.450770 0.146187 0.943020 0.119998
C53   C     C_3   0.401916 0.199569 0.955644 -0.817458
C54   C     C_3   0.582732 0.133866 0.060072 0.088304
C55   C     C_3   0.638105 0.170145 0.041735 -0.800410
C56   C     C_3   0.133862 0.582734 0.939909 0.088303
C57   C     C_R   0.500000 1.000000 0.165700 0.873935
C58   C     C_3   0.170147 0.638104 0.958238 -0.800408
C59   C     C_3   0.146196 0.450767 0.056971 0.120003
C60   C     C_3   0.199577 0.401908 0.044349 -0.817459
C61   C     C_3   0.549234 0.853812 0.943012 0.119995
C62   C     C_3   0.598088 0.800431 0.955629 -0.817452
C63   C     C_3   0.417268 0.866132 0.060084 0.088304
C64   C     C_3   0.361895 0.829852 0.041755 -0.800410
C65   C     C_3   0.866117 0.417287 0.939935 0.088304
C66   C     C_3   0.829836 0.361917 0.958271 -0.800411
C67   C     C_3   0.853826 0.549253 0.056997 0.119996
C68   C     C_R   0.500000 0.000000 0.834352 0.848719
C69   C     C_3   0.800450 0.598110 0.044378 -0.817449
C70   C     C_3   0.950685 0.646143 0.443025 0.120294
C71   C     C_3   0.901801 0.699498 0.455648 -0.818073
C72   C     C_3   0.082737 0.633834 0.560063 0.087954
C73   C     C_3   0.138103 0.670092 0.541714 -0.799389
C74   C     C_3   0.364118 0.920664 0.439794 0.088575
C75   C     C_3   0.326554 0.865942 0.457998 -0.798152
C76   C     C_3   0.643704 0.943668 0.556714 0.120763
C77   C     C_3   0.693696 0.891243 0.544185 -0.816227
C78   C     C_3   0.049314 0.353822 0.443007 0.120504
C79   C     C_R   0.370698 0.129312 0.750000 0.822472
C80   C     C_3   0.098202 0.300469 0.455621 -0.818580
C81   C     C_3   0.917204 0.366138 0.560094 0.087728
C82   C     C_3   0.861798 0.329861 0.541786 -0.798955
C83   C     C_3   0.635064 0.081404 0.439666 0.088083
C84   C     C_3   0.672431 0.136250 0.457871 -0.799114
C85   C     C_3   0.358035 0.068728 0.560827 0.085242
C86   C     C_3   0.314924 0.118983 0.542508 -0.793530
C87   C     C_R   0.629308 0.870690 0.249999 0.821222
C88   C     C_R   0.870689 0.370694 0.750000 0.823863
C89   C     C_R   0.999988 0.499975 0.468576 0.296330
C90   C     C_R   0.129312 0.629310 0.249999 0.820904
C91   C     C_R   0.629308 0.870692 0.749999 0.819787
C92   C     C_R   0.370688 0.129309 0.250001 0.821252
C93   C     C_R   0.129306 0.629308 0.749999 0.823779
C94   C     C_R   0.870691 0.370689 0.250001 0.820836
C95   C     C_R   0.370691 0.870693 0.250001 0.823923
C96   C     C_R   0.629301 0.129320 0.749992 0.821286
C97   C     C_R   0.870694 0.629308 0.250001 0.819502
C98   C     C_R   0.129308 0.370690 0.750000 0.821183
C99   C     C_R   0.629305 0.129309 0.250000 0.823897
C100  C     C_R   0.500475 0.002701 0.531483 0.307913
C101  C     C_R   0.370691 0.870689 0.750001 0.820589
C102  C     C_R   0.129310 0.370693 0.249999 0.819572
C103  C     C_R   0.870688 0.629309 0.750000 0.821265
C104  C     C_1   0.681057 0.181085 0.749986 -0.150357
C105  C     C_1   0.318933 0.818938 0.250002 -0.153713
C106  C     C_1   0.818925 0.681066 0.750001 -0.148783
C107  C     C_1   0.181067 0.318938 0.249998 -0.157233
C108  C     C_1   0.318932 0.818925 0.750002 -0.150973
C109  C     C_1   0.681060 0.181067 0.250000 -0.153714
C110  C     C_1   0.181069 0.318930 0.750002 -0.148727
C111  C     C_R   0.499370 0.001634 0.468468 0.320325
C112  C     C_1   0.818940 0.681067 0.250001 -0.157198
C113  C     C_1   0.681069 0.818928 0.249998 -0.148858
C114  C     C_1   0.318947 0.181075 0.750007 -0.155388
C115  C     C_1   0.818930 0.318927 0.250002 -0.151382
C116  C     C_1   0.181061 0.681066 0.749999 -0.153559
C117  C     C_1   0.318926 0.181068 0.250001 -0.148856
C118  C     C_1   0.681064 0.818936 0.749996 -0.156973
C119  C     C_1   0.181075 0.681069 0.249998 -0.151419
C120  C     C_1   0.818924 0.318946 0.749996 -0.153490
C121  C     C_1   0.724525 0.224557 0.749986 -0.002464
C122  C     C_R   0.500000 0.999999 0.031568 0.322736
C123  C     C_1   0.275465 0.775468 0.250001 -0.003588
C124  C     C_1   0.775454 0.724538 0.749999 -0.001532
C125  C     C_1   0.224535 0.275467 0.249999 -0.004356
C126  C     C_1   0.275460 0.775455 0.750002 -0.002820
C127  C     C_1   0.724530 0.224536 0.250000 -0.003595
C128  C     C_1   0.224546 0.275465 0.750007 -0.001475
C129  C     C_1   0.775469 0.724535 0.250000 -0.004356
C130  C     C_1   0.724541 0.775458 0.249998 -0.001632
C131  C     C_1   0.275478 0.224545 0.750010 -0.003585
C132  C     C_1   0.775458 0.275458 0.250002 -0.003023
C133  C     C_R   0.500001 0.999999 0.968576 0.296364
C134  C     C_1   0.224532 0.724534 0.750000 -0.003452
C135  C     C_1   0.275457 0.224540 0.250001 -0.001631
C136  C     C_1   0.724531 0.775464 0.749997 -0.004292
C137  C     C_1   0.224544 0.724541 0.249999 -0.003025
C138  C     C_1   0.775450 0.275481 0.749990 -0.003253
C139  C     C_R   0.500001 0.000001 0.868687 -0.214271
C140  C     C_R   0.500000 1.000000 0.131464 -0.163428
C141  C     C_R   0.999986 0.500007 0.868536 -0.163419
C142  C     C_R   0.000014 0.500007 0.131313 -0.214370
C143  C     C_R   0.000000 0.499998 0.368687 -0.214342
C144  C     C_R   0.000008 0.500009 0.031424 0.296358
C145  C     C_R   0.999991 0.499998 0.631465 -0.163433
C146  C     C_R   0.499944 0.000310 0.368539 -0.163498
C147  C     C_R   0.500548 0.001541 0.631387 -0.188187
C148  C     C_R   0.452262 0.040584 0.885183 0.009809
C149  C     C_R   0.554718 0.030660 0.115050 0.010653
C150  C     C_R   0.030648 0.554725 0.884943 0.010658
C151  C     C_R   0.040595 0.452267 0.114817 0.009775
C152  C     C_R   0.547741 0.959417 0.885176 0.009764
C153  C     C_R   0.445282 0.969339 0.115058 0.010653
C154  C     C_R   0.969321 0.445292 0.884949 0.010651
C155  C     C_R   0.999994 0.500009 0.968432 0.322737
C156  C     C_R   0.959435 0.547752 0.114824 0.009770
C157  C     C_R   0.952240 0.540555 0.385183 0.009796
C158  C     C_R   0.054713 0.530645 0.615048 0.010568
C159  C     C_R   0.468366 0.946265 0.385059 0.010311
C160  C     C_R   0.538318 0.951729 0.614787 0.003933
C161  C     C_R   0.047759 0.459436 0.385174 0.009802
C162  C     C_R   0.945263 0.469348 0.615061 0.010445
C163  C     C_R   0.531359 0.054745 0.384846 0.010282
C164  C     C_R   0.464418 0.053053 0.615083 0.014993
C165  C     C_R   0.455979 0.044069 0.917831 0.412083
C166  C     C_R   0.500039 0.000362 0.665671 0.862791
C167  C     C_R   0.552468 0.033417 0.082328 0.404018
C168  C     C_R   0.033407 0.552475 0.917665 0.404013
C169  C     C_R   0.044079 0.455984 0.082169 0.412102
C170  C     C_R   0.544023 0.955931 0.917824 0.412089
C171  C     C_R   0.447532 0.966582 0.082336 0.404017
C172  C     C_R   0.966566 0.447544 0.917671 0.404019
C173  C     C_R   0.955947 0.544035 0.082176 0.412106
C174  C     C_R   0.955951 0.544033 0.417831 0.412098
C175  C     C_R   0.052460 0.533395 0.582326 0.403995
C176  C     C_R   0.465354 0.949028 0.417771 0.403679
H1    H     H_    0.463967 0.157460 0.853098 0.270313
H2    H     H_    0.600869 0.092873 0.151387 0.211481
H3    H     H_    0.214427 0.364672 0.062546 0.252749
H4    H     H_    0.520280 0.830994 0.923336 0.128612
H5    H     H_    0.512589 0.866806 0.961773 0.143530
H6    H     H_    0.626037 0.821170 0.975967 0.268217
H7    H     H_    0.569184 0.754549 0.962994 0.199550
H8    H     H_    0.635329 0.785580 0.937431 0.252751
H9    H     H_    0.425837 0.837634 0.082118 0.128463
H10   H     H_    0.464925 0.865092 0.046028 0.141317
H11   H     H_    0.353026 0.856609 0.019387 0.265744
H12   H     H_    0.377762 0.776608 0.036867 0.197688
H13   H     H_    0.024569 0.708114 0.844578 0.241584
H14   H     H_    0.313749 0.829064 0.055312 0.255478
H15   H     H_    0.837616 0.425859 0.917903 0.128464
H16   H     H_    0.865083 0.464944 0.953988 0.141317
H17   H     H_    0.856596 0.353047 0.980638 0.265743
H18   H     H_    0.776594 0.377789 0.963163 0.197689
H19   H     H_    0.829043 0.313772 0.944719 0.255480
H20   H     H_    0.831004 0.520305 0.076677 0.128615
H21   H     H_    0.866817 0.512603 0.038239 0.143527
H22   H     H_    0.821193 0.626054 0.024035 0.268218
H23   H     H_    0.754565 0.569210 0.037019 0.199548
H24   H     H_    0.970361 0.635466 0.838464 0.247319
H25   H     H_    0.785602 0.635357 0.062572 0.252748
H26   H     H_    0.979635 0.668979 0.423348 0.128604
H27   H     H_    0.987329 0.633163 0.461783 0.143530
H28   H     H_    0.873854 0.678742 0.475988 0.268168
H29   H     H_    0.930680 0.745393 0.463012 0.199546
H30   H     H_    0.864559 0.714335 0.437454 0.252698
H31   H     H_    0.074190 0.662345 0.582097 0.128575
H32   H     H_    0.035070 0.634876 0.546022 0.141279
H33   H     H_    0.146950 0.643320 0.519346 0.265676
H34   H     H_    0.122243 0.723336 0.536825 0.197805
H35   H     H_    0.969251 0.679407 0.875378 0.273946
H36   H     H_    0.186260 0.670878 0.555255 0.255672
H37   H     H_    0.336205 0.929630 0.417637 0.127910
H38   H     H_    0.363604 0.968377 0.453813 0.142162
H39   H     H_    0.352706 0.856674 0.480479 0.266690
H40   H     H_    0.273483 0.882701 0.462656 0.197705
H41   H     H_    0.325242 0.817788 0.444460 0.254585
H42   H     H_    0.668519 0.971366 0.576267 0.129325
H43   H     H_    0.632963 0.980792 0.537856 0.142753
H44   H     H_    0.671022 0.864362 0.523976 0.268613
H45   H     H_    0.741300 0.916981 0.536651 0.199593
H46   H     H_    0.091764 0.648226 0.883300 0.240149
H47   H     H_    0.706244 0.853423 0.562491 0.252882
H48   H     H_    0.020372 0.330989 0.423330 0.128596
H49   H     H_    0.012662 0.366790 0.461769 0.143489
H50   H     H_    0.126140 0.321222 0.475960 0.268053
H51   H     H_    0.069327 0.254568 0.462985 0.199471
H52   H     H_    0.135451 0.285644 0.437422 0.252756
H53   H     H_    0.925795 0.337651 0.582130 0.128560
H54   H     H_    0.964843 0.365079 0.546026 0.141191
H55   H     H_    0.852906 0.356606 0.519416 0.265667
H56   H     H_    0.877646 0.276610 0.536901 0.197668
H57   H     H_    0.092866 0.600874 0.848599 0.211490
H58   H     H_    0.813671 0.329093 0.555356 0.255866
H59   H     H_    0.663297 0.072150 0.417616 0.128464
H60   H     H_    0.635291 0.033842 0.453795 0.141021
H61   H     H_    0.645944 0.145785 0.480252 0.266674
H62   H     H_    0.725399 0.119452 0.462730 0.197462
H63   H     H_    0.674035 0.184265 0.444237 0.255229
H64   H     H_    0.331510 0.057578 0.583134 0.127577
H65   H     H_    0.362063 0.020855 0.547037 0.142036
H66   H     H_    0.339674 0.130251 0.519883 0.266970
H67   H     H_    0.263718 0.096908 0.538134 0.197654
H68   H     H_    0.157465 0.463967 0.146899 0.270303
H69   H     H_    0.309026 0.167100 0.555819 0.254959
H70   H     H_    0.170788 0.375626 0.156674 0.240008
H71   H     H_    0.183371 0.403649 0.117519 0.247127
H72   H     H_    0.050522 0.381068 0.153413 0.174105
H73   H     H_    0.375629 0.170778 0.843321 0.239904
H74   H     H_    0.074665 0.347062 0.117215 0.225678
H75   H     H_    0.536042 0.842541 0.853092 0.270307
H76   H     H_    0.624379 0.829227 0.843303 0.240004
H77   H     H_    0.596375 0.816643 0.882462 0.247126
H78   H     H_    0.618936 0.949490 0.846573 0.174086
H79   H     H_    0.652947 0.925353 0.882767 0.225666
H80   H     H_    0.291888 0.975420 0.155431 0.241573
H81   H     H_    0.364534 0.029631 0.161543 0.247320
H82   H     H_    0.320596 0.030733 0.124631 0.273949
H83   H     H_    0.351782 0.908220 0.116703 0.240144
H84   H     H_    0.403635 0.183361 0.882476 0.247161
H85   H     H_    0.399130 0.907126 0.151402 0.211483
H86   H     H_    0.975388 0.291893 0.844590 0.241575
H87   H     H_    0.029609 0.364532 0.838468 0.247312
H88   H     H_    0.030701 0.320598 0.875385 0.273951
H89   H     H_    0.908190 0.351801 0.883316 0.240139
H90   H     H_    0.907107 0.399145 0.848612 0.211479
H91   H     H_    0.842550 0.536067 0.146910 0.270296
H92   H     H_    0.829252 0.624403 0.156701 0.240008
H93   H     H_    0.816666 0.596415 0.117543 0.247130
H94   H     H_    0.949513 0.618944 0.153424 0.174098
H95   H     H_    0.381066 0.050515 0.846591 0.174014
H96   H     H_    0.925388 0.652963 0.117230 0.225659
H97   H     H_    0.963900 0.657437 0.353099 0.270332
H98   H     H_    0.875558 0.670722 0.343323 0.239998
H99   H     H_    0.903559 0.683312 0.382478 0.247114
H100  H     H_    0.881046 0.550460 0.346589 0.174103
H101  H     H_    0.847022 0.574582 0.382788 0.225683
H102  H     H_    0.208116 0.524543 0.655392 0.241716
H103  H     H_    0.135464 0.470338 0.661515 0.247302
H104  H     H_    0.179397 0.469238 0.624595 0.273828
H105  H     H_    0.148219 0.591754 0.616676 0.240227
H106  H     H_    0.347057 0.074653 0.882790 0.225672
H107  H     H_    0.100880 0.592849 0.651384 0.211503
H108  H     H_    0.472605 0.792394 0.345011 0.241814
H109  H     H_    0.527567 0.864371 0.338660 0.246756
H110  H     H_    0.528385 0.820850 0.375678 0.273651
H111  H     H_    0.406241 0.853394 0.383644 0.240340
H112  H     H_    0.405498 0.900441 0.348864 0.212074
H113  H     H_    0.655084 0.955350 0.647572 0.272122
H114  H     H_    0.663317 0.865877 0.656295 0.238553
H115  H     H_    0.677632 0.895376 0.617483 0.248339
H116  H     H_    0.543465 0.879445 0.653189 0.171377
H117  H     H_    0.708113 0.024579 0.155401 0.241575
H118  H     H_    0.565742 0.844541 0.616907 0.228078
H119  H     H_    0.036117 0.342559 0.353087 0.270330
H120  H     H_    0.124460 0.329292 0.343295 0.239995
H121  H     H_    0.096466 0.316686 0.382454 0.247110
H122  H     H_    0.118958 0.449550 0.346571 0.174096
H123  H     H_    0.152982 0.425425 0.382764 0.225673
H124  H     H_    0.791875 0.475473 0.655438 0.241826
H125  H     H_    0.864533 0.529672 0.661544 0.247228
H126  H     H_    0.820589 0.530769 0.624633 0.273906
H127  H     H_    0.851751 0.408248 0.616713 0.240349
H128  H     H_    0.635466 0.970368 0.161523 0.247319
H129  H     H_    0.899103 0.407156 0.651410 0.211520
H130  H     H_    0.527694 0.207733 0.344078 0.241614
H131  H     H_    0.472729 0.135684 0.337929 0.246731
H132  H     H_    0.471552 0.179991 0.374750 0.273494
H133  H     H_    0.593593 0.147527 0.383104 0.240263
H134  H     H_    0.594656 0.099700 0.348559 0.212312
H135  H     H_    0.453373 0.204700 0.656698 0.241424
H136  H     H_    0.512922 0.136829 0.663651 0.243634
H137  H     H_    0.514081 0.181846 0.627014 0.270292
H138  H     H_    0.395450 0.141022 0.616448 0.239511
H139  H     H_    0.679404 0.969266 0.124605 0.273950
H140  H     H_    0.395086 0.091884 0.650569 0.215788
H141  H     H_    0.479726 0.169005 0.923341 0.128613
H142  H     H_    0.487413 0.133192 0.961777 0.143530
H143  H     H_    0.373965 0.178831 0.975986 0.268217
H144  H     H_    0.430821 0.245451 0.963005 0.199551
H145  H     H_    0.364676 0.214421 0.937451 0.252748
H146  H     H_    0.574163 0.162365 0.082107 0.128463
H147  H     H_    0.535075 0.134906 0.046023 0.141317
H148  H     H_    0.646974 0.143388 0.019366 0.265744
H149  H     H_    0.622238 0.223389 0.036850 0.197689
H150  H     H_    0.648218 0.091779 0.116682 0.240144
H151  H     H_    0.686251 0.170934 0.055285 0.255480
H152  H     H_    0.162356 0.574165 0.917871 0.128468
H153  H     H_    0.134902 0.535076 0.953960 0.141316
H154  H     H_    0.143393 0.646972 0.980610 0.265744
H155  H     H_    0.223391 0.622234 0.963119 0.197689
H156  H     H_    0.170935 0.686250 0.944686 0.255479
H157  H     H_    0.169015 0.479726 0.076646 0.128603
H158  H     H_    0.133203 0.487406 0.038211 0.143533
H159  H     H_    0.178838 0.373953 0.024012 0.268217
H160  H     H_    0.245460 0.430809 0.036982 0.199549
N1    N     N_R   0.440705 0.005248 0.984617 -0.131576
N2    N     N_R   0.059260 0.494636 0.515505 -0.123902
N3    N     N_R   0.496673 0.061319 0.484341 -0.123851
N4    N     N_R   0.502808 0.942971 0.515630 -0.133206
N5    N     N_R   0.059284 0.494740 0.484609 -0.131591
N6    N     N_R   0.940709 0.505309 0.515512 -0.123770
N7    N     N_R   0.502406 0.942464 0.484733 -0.122989
N8    N     N_R   0.497373 0.061855 0.515228 -0.121851
N9    N     N_R   0.559274 0.994648 0.015504 -0.123801
N10   N     N_R   0.994653 0.559283 0.984492 -0.123795
N11   N     N_R   0.005248 0.440712 0.015386 -0.131580
N12   N     N_R   0.559297 0.994749 0.984609 -0.131575
N13   N     N_R   0.440727 0.005349 0.015513 -0.123800
N14   N     N_R   0.005343 0.440734 0.984491 -0.123801
N15   N     N_R   0.994761 0.559305 0.015388 -0.131573
N16   N     N_R   0.940690 0.505208 0.484616 -0.131529
O1    O     O_3   0.500000 0.000000 0.750000 -0.473285
O2    O     O_R   0.555780 0.000000 0.319360 -0.651169
O3    O     O_R   1.000000 0.444220 0.680640 -0.651124
O4    O     O_R   0.000000 0.555780 0.319360 -0.639004
O5    O     O_R   0.055780 0.500000 0.180640 -0.639030
O6    O     O_R   0.944220 0.500000 0.819360 -0.651154
O7    O     O_R   0.500000 0.055780 0.180640 -0.651125
O8    O     O_R   0.500000 0.944220 0.819360 -0.639083
O9    O     O_R   0.944220 0.500000 0.180640 -0.638981
O10   O     O_R   0.055780 0.500000 0.819360 -0.651114
O11   O     O_R   0.500000 0.944220 0.180640 -0.651128
O12   O     O_3   0.500000 0.000000 0.250000 -0.473182
O13   O     O_R   0.500000 0.055780 0.819360 -0.639194
O14   O     O_R   0.365890 0.078400 0.731800 -0.636210
O15   O     O_R   0.634110 0.921600 0.268200 -0.635016
O16   O     O_R   0.921600 0.365890 0.731800 -0.636800
O17   O     O_R   0.078400 0.634110 0.268200 -0.635702
O18   O     O_R   0.634110 0.921600 0.731800 -0.635510
O19   O     O_R   0.365890 0.078400 0.268200 -0.635067
O20   O     O_R   0.078400 0.634110 0.731800 -0.636828
O21   O     O_R   0.921600 0.365890 0.268200 -0.635720
O22   O     O_R   0.365890 0.921600 0.268200 -0.636892
O23   O     O_3   0.000000 0.500000 0.750000 -0.473242
O24   O     O_R   0.634110 0.078400 0.731800 -0.635905
O25   O     O_R   0.921600 0.634110 0.268200 -0.635633
O26   O     O_R   0.078400 0.365890 0.731800 -0.634977
O27   O     O_R   0.634110 0.078400 0.268200 -0.636880
O28   O     O_R   0.365890 0.921600 0.731800 -0.634959
O29   O     O_R   0.078400 0.365890 0.268200 -0.635620
O30   O     O_R   0.921600 0.634110 0.731800 -0.634991
O31   O     O_R   0.865890 0.578400 0.231800 -0.635601
O32   O     O_R   0.134110 0.421600 0.768200 -0.635024
O33   O     O_R   0.421600 0.865890 0.231800 -0.636871
O34   O     O_3   0.000000 0.500000 0.250000 -0.473248
O35   O     O_R   0.578400 0.134110 0.768200 -0.635478
O36   O     O_R   0.134110 0.421600 0.231800 -0.635623
O37   O     O_R   0.865890 0.578400 0.768200 -0.635013
O38   O     O_R   0.578400 0.134110 0.231800 -0.636878
O39   O     O_R   0.421600 0.865890 0.768200 -0.635899
O40   O     O_R   0.865890 0.421600 0.768200 -0.636889
O41   O     O_R   0.134110 0.578400 0.231800 -0.635720
O42   O     O_R   0.421600 0.134110 0.768200 -0.635801
O43   O     O_R   0.578400 0.865890 0.231800 -0.635022
O44   O     O_R   0.134110 0.578400 0.768200 -0.636871
O45   O     O_R   0.555780 0.000000 0.680640 -0.638473
O46   O     O_R   0.865890 0.421600 0.231800 -0.635691
O47   O     O_R   0.578400 0.865890 0.768200 -0.635741
O48   O     O_R   0.421600 0.134110 0.231800 -0.634998
O49   O     O_3   0.413141 0.088228 0.933628 -0.585378
O50   O     O_3   0.603795 0.066322 0.066164 -0.585699
O51   O     O_3   0.066317 0.603800 0.933823 -0.585700
O52   O     O_3   0.088235 0.413142 0.066370 -0.585382
O53   O     O_3   0.586862 0.911772 0.933615 -0.585376
O54   O     O_3   0.396205 0.933676 0.066178 -0.585699
O55   O     O_3   0.933659 0.396219 0.933835 -0.585698
O56   O     O_R   0.444220 0.000000 0.319360 -0.651234
O57   O     O_3   0.911790 0.586877 0.066386 -0.585374
O58   O     O_3   0.913087 0.588167 0.433629 -0.585389
O59   O     O_3   0.103791 0.566289 0.566159 -0.585715
O60   O     O_3   0.431435 0.898488 0.434010 -0.585730
O61   O     O_3   0.583487 0.910040 0.566313 -0.585927
O62   O     O_3   0.086906 0.411807 0.433612 -0.585392
O63   O     O_3   0.896168 0.433692 0.566185 -0.585602
O64   O     O_3   0.567885 0.103645 0.433610 -0.585689
O65   O     O_3   0.422889 0.097644 0.566248 -0.586077
O66   O     O_R   0.000000 0.555780 0.680640 -0.651114
O67   O     O_R   0.000000 0.444220 0.319360 -0.639001
O68   O     O_R   0.444220 0.000000 0.680640 -0.651906
Zn1   Zn    Zn3+2 0.500000 0.079610 0.775930 0.963460
Zn2   Zn    Zn3+2 0.000000 0.420390 0.724070 0.966955
Zn3   Zn    Zn3+2 0.420390 0.000000 0.275930 0.966706
Zn4   Zn    Zn3+2 0.579610 0.000000 0.724070 0.963904
Zn5   Zn    Zn3+2 1.000000 0.420390 0.275930 0.962749
Zn6   Zn    Zn3+2 0.000000 0.579610 0.724070 0.966931
Zn7   Zn    Zn3+2 0.579610 0.000000 0.275930 0.966691
Zn8   Zn    Zn3+2 0.420390 0.000000 0.724070 0.964746
Zn9   Zn    Zn3+2 0.500000 0.920390 0.224070 0.966858
Zn10  Zn    Zn3+2 0.920390 0.500000 0.775930 0.966893
Zn11  Zn    Zn3+2 0.079610 0.500000 0.224070 0.962757
Zn12  Zn    Zn3+2 0.500000 0.920390 0.775930 0.962593
Zn13  Zn    Zn3+2 0.500000 0.079610 0.224070 0.966835
Zn14  Zn    Zn3+2 0.079610 0.500000 0.775930 0.966847
Zn15  Zn    Zn3+2 0.920390 0.500000 0.224070 0.962749
Zn16  Zn    Zn3+2 0.000000 0.579610 0.275930 0.962752

loop_
_geom_bond_atom_site_label_1
_geom_bond_atom_site_label_2
_ccdc_geom_bond_type
C13   O3    A    
C82   H55   S    
C42   H114  S    
C63   O54   S    
C65   O55   S    
O26   Zn2   S    
C73   H36   S    
C19   C20   S    
C45   H129  S    
C166  O68   A    
C55   H149  S    
C96   O35   A    
C147  C164  A    
C141  C154  A    
C24   O67   A    
C139  C152  A    
C105  C123  T    
C31   H87   S    
C114  C131  T    
C23   H72   S    
C98   O26   A    
C27   H75   S    
C62   H7    S    
C77   H47   S    
C68   O8    A    
C18   H1    S    
C35   O5    A    
C143  C157  A    
C54   H146  S    
C112  C129  T    
C4    C12   A    
C91   O18   A    
C67   O57   S    
O3    Zn2   S    
C125  C135  S    
C56   O51   S    
C59   C60   S    
C93   O44   A    
C81   H53   S    
C21   C22   S    
C74   H38   S    
C148  C165  A    
C47   H125  S    
C46   O10   A    
C36   H98   S    
C66   H18   S    
C46   C141  S    
C68   O13   A    
C45   C47   S    
C92   O19   A    
C156  C173  A    
C173  O57   S    
C50   C164  S    
C49   H130  S    
C95   O33   A    
C97   C112  S    
O11   Zn9   S    
C39   H111  S    
C29   H81   S    
C57   C140  S    
C142  C151  A    
C43   C44   S    
C14   C175  A    
N1    N13   A    
C12   C89   S    
O46   Zn15  S    
C86   H66   S    
C28   H83   S    
C150  C168  A    
C79   O42   A    
C55   H148  S    
C91   C118  S    
C13   O66   A    
N9    N12   A    
C107  C125  T    
C169  O52   S    
N6    N16   A    
C17   H106  S    
O12   Zn3   S    
C83   H59   S    
C11   C169  A    
C96   C104  S    
C26   H78   S    
C9    C171  A    
C120  C138  T    
O19   Zn3   S    
C117  C135  T    
C118  C136  T    
C12   C174  A    
C51   H136  S    
C25   H68   S    
C165  O49   S    
O36   Zn11  S    
C83   O64   S    
C72   C73   S    
C94   C115  S    
C104  C121  T    
C54   O50   S    
C59   O52   S    
C98   O32   A    
C47   H124  S    
C5    C162  A    
C75   H39   S    
C111  N7    A    
C58   H155  S    
C95   O22   A    
C57   O7    A    
C87   C113  S    
C38   H103  S    
C71   H29   S    
C6    C163  A    
C88   O40   A    
C10   C168  A    
C44   H120  S    
O12   Zn7   S    
C106  C124  T    
C4    C161  A    
C142  C156  A    
C143  C161  A    
C78   H48   S    
C52   O49   S    
C70   H26   S    
C84   H61   S    
N4    N7    A    
C13   C145  S    
C17   H95   S    
C49   H132  S    
C176  O60   S    
N10   N15   A    
C72   H32   S    
C85   C86   S    
C60   H3    S    
C20   H128  S    
C73   H33   S    
C23   H74   S    
C26   H79   S    
C78   C80   S    
C172  O55   S    
C75   H41   S    
C24   C143  S    
C28   H85   S    
C144  N11   A    
C79   O14   A    
C70   O58   S    
C65   H15   S    
C87   O43   A    
C122  N9    A    
O37   Zn10  S    
C157  C174  A    
C25   H70   S    
N3    N8    A    
C103  O37   A    
C80   H51   S    
C24   O4    A    
O33   Zn9   S    
O67   Zn5   S    
C147  C160  A    
C109  C127  T    
C141  C150  A    
O25   Zn16  S    
C115  C132  T    
C71   H28   S    
C92   O48   A    
O40   Zn10  S    
C139  C148  A    
C113  C130  T    
C33   H92   S    
C88   O16   A    
C17   C148  S    
C2    O2    A    
C39   C40   S    
C16   C100  S    
C19   H150  S    
O7    Zn13  S    
C93   C116  S    
C60   H159  S    
C81   O63   S    
C41   C160  S    
C7    O65   S    
C83   C84   S    
O28   Zn8   S    
C30   C154  S    
C97   O31   A    
C102  O29   A    
O12   Zn9   S    
C17   C18   S    
C102  C107  S    
C30   H89   S    
C48   H134  S    
C46   O6    A    
O23   Zn2   S    
C126  C134  S    
C64   H12   S    
O34   Zn16  S    
C167  O50   S    
C102  O36   A    
C86   H69   S    
C52   H141  S    
C69   H22   S    
C53   H144  S    
O43   Zn9   S    
C84   H63   S    
O32   Zn14  S    
C67   H20   S    
C128  C131  S    
C37   H105  S    
O56   Zn3   S    
C52   C53   S    
C129  C130  S    
C90   O17   A    
C103  O30   A    
C82   H56   S    
C42   H115  S    
C40   H108  S    
C100  N4    A    
C4    O62   S    
C5    O63   S    
C10   C155  S    
C51   H137  S    
O6    Zn10  S    
N2    N5    A    
C133  N1    A    
C123  C137  S    
C151  C169  A    
C159  C176  A    
C85   H64   S    
C108  C126  T    
C26   C152  S    
C72   O59   S    
N11   N14   A    
C28   C153  S    
C78   H49   S    
C19   C149  S    
C56   C58   S    
O12   Zn13  S    
C34   C36   S    
C45   H127  S    
O38   Zn13  S    
C2    O56   A    
C61   C62   S    
O68   Zn8   S    
O34   Zn15  S    
C35   C142  S    
C62   H8    S    
C63   C64   S    
C34   C157  S    
C158  C175  A    
C89   N5    A    
C110  C128  T    
O1    Zn12  S    
C54   H147  S    
C80   H50   S    
C1    N2    A    
C140  C149  A    
C3    C16   A    
C98   C110  S    
C41   C42   S    
C32   H94   S    
C149  C167  A    
C66   H19   S    
O8    Zn12  S    
C26   C27   S    
C15   C176  A    
O42   Zn1   S    
C22   H24   S    
C28   C29   S    
C57   O11   A    
O41   Zn11  S    
C30   C31   S    
C94   O21   A    
C116  C134  T    
C18   H73   S    
C10   C172  A    
C99   C109  S    
C56   H152  S    
C40   H109  S    
C90   O41   A    
C99   O27   A    
C155  N14   A    
C43   H123  S    
C54   C55   S    
C96   O24   A    
C21   H57   S    
C76   H42   S    
C86   H67   S    
C63   H9    S    
O44   Zn14  S    
C70   C71   S    
C88   C120  S    
O29   Zn5   S    
C37   H107  S    
C18   H84   S    
C140  C153  A    
C101  C108  S    
C42   H113  S    
O9    Zn15  S    
O39   Zn12  S    
C8    C170  A    
C51   H135  S    
C166  O45   A    
C21   H46   S    
C124  C136  S    
C34   H100  S    
C31   H88   S    
C122  N13   A    
C45   C162  S    
C62   H6    S    
C22   H35   S    
C85   H65   S    
C50   C51   S    
O20   Zn6   S    
C80   H52   S    
C22   H13   S    
C5    C14   A    
C175  O59   S    
C38   H104  S    
C48   C49   S    
C43   H122  S    
C81   H54   S    
C82   H58   S    
C74   H37   S    
C32   H96   S    
C47   H126  S    
C36   H97   S    
C66   H17   S    
O24   Zn4   S    
C41   H116  S    
C70   H27   S    
O45   Zn4   S    
C39   C159  S    
C20   H117  S    
C78   O62   S    
C84   H62   S    
C67   H21   S    
C39   H112  S    
O1    Zn4   S    
C53   H145  S    
C7    C164  A    
C61   H5    S    
C29   H82   S    
C32   C33   S    
C145  C158  A    
C61   O53   S    
C59   H158  S    
C101  O39   A    
C76   O61   S    
C101  O28   A    
C94   O46   A    
C83   H60   S    
C61   H4    S    
C44   H121  S    
C100  N8    A    
C68   C139  S    
C76   H43   S    
O10   Zn14  S    
C93   O20   A    
C69   H25   S    
C35   O9    A    
C75   H40   S    
C27   H76   S    
C81   C82   S    
C74   O60   S    
C48   C163  S    
C20   H139  S    
C37   C38   S    
O1    Zn8   S    
C33   H91   S    
C31   H86   S    
O23   Zn10  S    
C174  O58   S    
C133  N12   A    
C145  C162  A    
O34   Zn5   S    
O22   Zn3   S    
C152  C170  A    
C58   H154  S    
C29   H80   S    
C1    N6    A    
C127  C132  S    
C60   H160  S    
C56   H153  S    
C95   C105  S    
C6    C15   A    
C38   H102  S    
C71   H30   S    
C44   H119  S    
C6    O64   S    
C30   H90   S    
C11   C144  S    
C36   H99   S    
O15   Zn7   S    
C50   H140  S    
C41   H118  S    
C63   H10   S    
C89   N16   A    
C32   C156  S    
C53   H143  S    
C59   H157  S    
C171  O54   S    
O47   Zn12  S    
C9    C122  S    
C72   H31   S    
C11   C173  A    
C74   C75   S    
C58   H156  S    
C119  C137  T    
C15   C111  S    
C73   H34   S    
C9    C167  A    
C76   C77   S    
C155  N10   A    
C8    C165  A    
C3    O61   S    
C146  C159  A    
O23   Zn6   S    
C168  O51   S    
C55   H151  S    
C67   C69   S    
C121  C138  S    
C92   C117  S    
O30   Zn6   S    
C147  C166  S    
O21   Zn5   S    
C85   O65   S    
O66   Zn6   S    
C65   H16   S    
O16   Zn2   S    
C153  C171  A    
C154  C172  A    
C21   C150  S    
C27   H77   S    
C19   H2    S    
O13   Zn1   S    
C25   H71   S    
C77   H45   S    
O23   Zn14  S    
C3    C160  A    
C111  N3    A    
O5    Zn11  S    
O2    Zn7   S    
O4    Zn16  S    
C23   C151  S    
C7    C16   A    
C97   O25   A    
C33   H93   S    
C8    C133  S    
C34   H101  S    
C64   H14   S    
C77   H44   S    
O18   Zn4   S    
C1    C14   S    
O34   Zn11  S    
C2    C146  S    
C146  C163  A    
O31   Zn15  S    
C90   C119  S    
C43   C161  S    
O1    Zn1   S    
C40   H110  S    
C103  C106  S    
C91   O47   A    
C23   C25   S    
C48   H133  S    
C64   H11   S    
C50   H138  S    
C49   H131  S    
O17   Zn16  S    
C87   O15   A    
O48   Zn13  S    
O35   Zn1   S    
C65   C66   S    
C79   C114  S    
C69   H23   S    
C170  O53   S    
C144  N15   A    
C52   H142  S    
O27   Zn7   S    
C99   O38   A    
C37   C158  S    
O14   Zn8   S    
