data_mof_unit_26801.cif
_audit_creation_date              2012-12-10T18:58:14-0500
_audit_creation_method            fapswitch 2.2
_symmetry_space_group_name_H-M    P1
_symmetry_Int_Tables_number       1
_space_group_crystal_system       triclinic
_cell_length_a                    11.069312
_cell_length_b                    10.845775
_cell_length_c                    9.584071
_cell_angle_alpha                 90.143405
_cell_angle_beta                  102.236903
_cell_angle_gamma                 90.793011
_cell_volume                      1124.35057682

loop_
_atom_site_label
_atom_site_type_symbol
_atom_type_description
_atom_site_fract_x
_atom_site_fract_y
_atom_site_fract_z
_atom_type_partial_charge
C1    C     C_R   0.498467 0.262191 0.498537 0.831250
C2    C     C_R   0.487551 0.128248 0.492158 -0.155780
C3    C     C_R   0.468778 0.060107 0.361368 -0.005890
C4    C     C_R   0.465130 0.931510 0.365308 -0.258077
C5    C     C_R   0.484148 0.869522 0.496044 -0.079125
C6    C     C_R   0.485998 0.937134 0.620266 0.091806
C7    C     C_3   0.570345 0.933024 0.764341 0.192861
C8    C     C_3   0.571313 0.073412 0.761984 -0.435385
C9    C     C_R   0.583836 0.570321 0.093771 0.228062
C10   C     C_R   0.410142 0.441010 0.054389 -0.062906
C11   C     C_R   0.409208 0.439545 0.906267 0.046790
C12   C     C_R   0.262850 0.498849 0.441815 0.742098
C13   C     C_R   0.583318 0.571129 0.946411 0.220307
C14   C     C_3   0.720286 0.561491 0.972744 -0.440604
C15   C     C_3   0.720713 0.557369 0.130474 -0.455184
C16   C     C_R   0.497290 0.737215 0.499551 0.849654
C17   C     C_R   0.736951 0.501136 0.558132 0.871202
C18   C     C_2   0.127178 0.493016 0.407903 0.249576
C19   C     C_2   0.066727 0.510749 0.513260 -0.161472
C20   C     C_2   0.871625 0.507848 0.591821 -0.374638
C21   C     C_2   0.932941 0.496620 0.487244 -0.100600
C22   C     C_R   0.486760 0.063870 0.618086 0.093619
Cu1   Cu    Cu3+1 0.499990 0.499980 0.640670 0.989475
Cu2   Cu    Cu3+1 0.500010 0.500020 0.359330 0.982100
H1    H     H_    0.883459 0.475648 0.380110 0.222039
H2    H     H_    0.662562 0.115786 0.757685 0.212959
H3    H     H_    0.340031 0.390561 0.095225 0.167012
H4    H     H_    0.751343 0.473756 0.932477 0.226439
H5    H     H_    0.764551 0.646380 0.940628 0.205310
H6    H     H_    0.747667 0.465411 0.176302 0.230544
H7    H     H_    0.768263 0.638047 0.191122 0.204044
H8    H     H_    0.116156 0.535515 0.620206 0.169723
H9    H     H_    0.920373 0.524530 0.701350 0.179068
H10   H     H_    0.455573 0.880212 0.266157 0.174340
H11   H     H_    0.526306 0.890909 0.847429 0.110771
H12   H     H_    0.524943 0.114448 0.842865 0.199362
N1    N     N_R   0.500780 0.500930 0.148120 -0.190838
N2    N     N_R   0.500790 0.500890 0.852210 -0.226253
O1    O     O_R   0.500000 0.319640 0.618810 -0.535297
O2    O     O_R   0.500010 0.319680 0.381230 -0.564622
O3    O     O_R   0.320680 0.500000 0.575130 -0.591668
O4    O     O_R   0.320690 0.500040 0.337550 -0.593846
O5    O     O_R   0.499990 0.680320 0.618770 -0.570106
O6    O     O_R   0.500000 0.680360 0.381190 -0.592772
O7    O     O_R   0.679310 0.499960 0.662450 -0.583838
O8    O     O_R   0.679320 0.500000 0.424870 -0.581777
C23   C     C_2   0.305262 0.369237 0.818027 0.841165
O9    O     O_2   0.323599 0.284938 0.741189 -0.582966
O10   O     O_R   0.185145 0.391328 0.835399 -0.799731
H13   H     H_    0.121445 0.334431 0.774747 0.337825
O11   O     O_3   0.061220 0.466894 0.270903 -0.730937
H14   H     H_    0.119517 0.450357 0.207986 0.350375
C24   C     C_2   0.460890 0.115666 0.219074 0.853673
O12   O     O_2   0.552481 0.163641 0.188566 -0.589998
O13   O     O_R   0.350276 0.106399 0.117203 -0.761980
H15   H     H_    0.356804 0.144949 0.022780 0.326655
O14   O     O_3   0.685609 0.884056 0.758076 -0.702833
H16   H     H_    0.734434 0.885644 0.857636 0.329021

loop_
_geom_bond_atom_site_label_1
_geom_bond_atom_site_label_2
_ccdc_geom_bond_type
C10   H3    S    
C2    C22   A    
C11   N2    A    
C8    C22   S    
O13   H15   S    
C15   H7    S    
C12   O3    A    
Cu1   O7    S    
Cu1   N2    S    
Cu2   O4    S    
C16   O6    A    
C11   C23   S    
C23   O9    D    
Cu1   O3    S    
Cu1   Cu2   S    
Cu2   O8    S    
C14   H4    S    
C9    N1    A    
C2    C3    A    
C13   N2    A    
Cu1   O5    S    
C7    C8    S    
C23   O10   S    
C13   C14   S    
C20   C21   D    
C3    C24   S    
C16   O5    A    
O14   H16   S    
C6    C7    S    
C10   N1    A    
Cu1   O1    S    
C20   H9    S    
C19   C21   S    
C17   O7    A    
C18   O11   S    
C18   C19   D    
C24   O13   S    
C9    C15   S    
C5    C6    A    
Cu2   O6    S    
C4    H10   S    
C10   C11   A    
C1    O1    A    
C14   H5    S    
C12   O4    A    
C3    C4    A    
C6    C22   A    
C17   C20   S    
C8    H2    S    
C17   O8    A    
C15   H6    S    
Cu2   N1    S    
C1    C2    S    
C8    H12   S    
C12   C18   S    
O10   H13   S    
C21   H1    S    
C14   C15   S    
C5    C16   S    
C9    C13   A    
C1    O2    A    
Cu2   O2    S    
C24   O12   D    
C7    H11   S    
C19   H8    S    
C7    O14   S    
O11   H14   S    
C4    C5    A    
