data_mof_unit_54986.cif
_audit_creation_date              2012-10-26T20:00:09-0400
_audit_creation_method            fapswitch 2.2
_symmetry_space_group_name_H-M    P1
_symmetry_Int_Tables_number       1
_space_group_crystal_system       triclinic
_cell_length_a                    23.289569
_cell_length_b                    10.91862
_cell_length_c                    9.796418
_cell_angle_alpha                 89.962263
_cell_angle_beta                  91.036803
_cell_angle_gamma                 90.900443
_cell_volume                      2490.41507863

loop_
_atom_site_label
_atom_site_type_symbol
_atom_type_description
_atom_site_fract_x
_atom_site_fract_y
_atom_site_fract_z
_atom_type_partial_charge
C1    C     C_R   0.499024 0.265634 0.500243 0.538681
C2    C     C_R   0.121520 0.598339 0.402120 0.402420
C3    C     C_R   0.235318 0.584135 0.540879 0.036703
C4    C     C_R   0.391153 0.499480 0.498971 0.540897
C5    C     C_R   0.295929 0.594693 0.538382 -0.024966
C6    C     C_R   0.328149 0.492796 0.497020 -0.013014
C7    C     C_R   0.299885 0.378926 0.474035 -0.007685
C8    C     C_R   0.239666 0.372314 0.476081 0.293826
C9    C     C_R   0.207441 0.481940 0.476408 0.166988
C10   C     C_R   0.759054 0.376828 0.478601 0.273490
C11   C     C_R   0.698356 0.381542 0.477127 -0.059605
C12   C     C_R   0.965661 0.275199 0.336186 0.261286
C13   C     C_R   0.671728 0.494195 0.503132 -0.029284
C14   C     C_R   0.705705 0.596893 0.542365 -0.007720
C15   C     C_R   0.765866 0.589822 0.536993 0.270808
C16   C     C_R   0.499704 0.734545 0.499504 0.566306
C17   C     C_R   0.791587 0.487524 0.472865 0.189335
C18   C     C_2   0.486700 0.933464 0.387049 0.216056
C19   C     C_2   0.501924 0.867376 0.498126 -0.054521
C20   C     C_2   0.493377 0.067961 0.387675 -0.171172
C21   C     C_2   0.493832 0.133560 0.502888 -0.161704
C22   C     C_2   0.469105 0.427414 0.923380 0.040769
C23   C     C_R   0.026504 0.271468 0.346960 -0.031923
C24   C     C_2   0.461091 0.444527 0.073976 0.087619
C25   C     C_R   0.608822 0.499963 0.500997 0.551296
C26   C     C_R   0.879698 0.603072 0.403696 0.392493
C27   C     C_R   0.876364 0.392209 0.363891 0.498403
C28   C     C_R   0.936944 0.385521 0.362987 0.056975
C29   C     C_R   0.968934 0.493740 0.387816 -0.094212
C30   C     C_R   0.939936 0.605111 0.398942 -0.027741
C31   C     C_3   0.662244 0.267522 0.448136 -0.378435
C32   C     C_3   0.679747 0.714591 0.592184 -0.327604
C33   C     C_3   0.535910 0.597423 0.900656 -0.194584
C34   C     C_R   0.058550 0.382250 0.367852 0.005326
C35   C     C_3   0.405376 0.395627 0.128863 -0.317502
C36   C     C_3   0.055688 0.148266 0.352922 -0.322456
C37   C     C_3   0.202736 0.668925 0.633269 -0.349994
C38   C     C_3   0.324928 0.714355 0.581323 -0.366360
C39   C     C_3   0.332190 0.260991 0.455318 -0.342822
C40   C     C_R   0.029459 0.492854 0.388958 -0.077377
C41   C     C_R   0.061075 0.604100 0.402428 0.026488
C42   C     C_R   0.031222 0.716174 0.413435 0.238246
C43   C     C_R   0.971329 0.715482 0.407212 -0.045880
C44   C     C_R   0.119222 0.387765 0.367368 0.408515
Cu1   Cu    Cu3+1 0.500010 0.500020 0.638630 0.920061
Cu2   Cu    Cu3+1 0.499990 0.499980 0.361370 0.952032
H1    H     H_    0.518845 0.910121 0.590457 0.041039
H2    H     H_    0.638514 0.240414 0.540976 0.130831
H3    H     H_    0.632242 0.715100 0.584910 0.107699
H4    H     H_    0.692487 0.730183 0.700625 0.167064
H5    H     H_    0.695872 0.792507 0.530006 0.175462
H6    H     H_    0.834235 0.639242 0.638927 0.337161
H7    H     H_    0.455910 0.937792 0.201130 0.316370
H8    H     H_    0.550623 0.657609 0.817879 0.167896
H9    H     H_    0.512618 0.656960 0.972222 0.130878
H10   H     H_    0.576753 0.560679 0.942274 0.089635
H11   H     H_    0.380440 0.343257 0.050136 0.076195
H12   H     H_    0.496384 0.113901 0.289562 0.140469
H13   H     H_    0.413547 0.331455 0.214384 0.162331
H14   H     H_    0.377908 0.472616 0.159367 0.173211
H15   H     H_    0.090352 0.148734 0.432218 0.180035
H16   H     H_    0.025955 0.073381 0.384026 0.180835
H17   H     H_    0.073531 0.125875 0.251814 0.187237
H18   H     H_    0.089253 0.813838 0.506455 0.348113
H19   H     H_    0.203498 0.764066 0.593354 0.176715
H20   H     H_    0.157715 0.637769 0.647798 0.131884
H21   H     H_    0.222993 0.669101 0.736729 0.124639
H22   H     H_    0.371181 0.719220 0.557196 0.151805
H23   H     H_    0.487576 0.091533 0.601853 0.101791
H24   H     H_    0.304435 0.791703 0.526449 0.151938
H25   H     H_    0.320784 0.727869 0.692941 0.132720
H26   H     H_    0.379313 0.273862 0.453186 0.112169
H27   H     H_    0.322518 0.197004 0.540297 0.166036
H28   H     H_    0.318502 0.217553 0.357312 0.164927
H29   H     H_    0.179147 0.270376 0.549722 0.324994
H30   H     H_    0.761287 0.212997 0.557330 0.329459
H31   H     H_    0.442356 0.358812 0.871916 0.123887
H32   H     H_    0.540838 0.495963 0.121114 0.215910
H33   H     H_    0.949457 0.801864 0.416744 0.197736
H34   H     H_    0.955190 0.120341 0.241446 0.329901
H35   H     H_    0.630992 0.285363 0.363886 0.160625
H36   H     H_    0.688210 0.189321 0.414053 0.161203
N1    N     N_R   0.850198 0.493504 0.417211 -0.401519
N2    N     N_R   0.148182 0.488090 0.420419 -0.391869
N3    N     N_2   0.499380 0.498660 0.846910 -0.244494
N4    N     N_2   0.499370 0.498630 0.153040 -0.333861
O1    O     O_R   0.500010 0.321960 0.617040 -0.494998
O2    O     O_R   0.582130 0.500060 0.617050 -0.496069
O3    O     O_R   0.582110 0.500020 0.382900 -0.502677
O4    O     O_2   0.851342 0.709042 0.388371 -0.429532
O5    O     O_3   0.933480 0.171016 0.305937 -0.616451
O6    O     O_3   0.797790 0.677082 0.608201 -0.642429
O7    O     O_3   0.465840 0.875068 0.270502 -0.665895
O8    O     O_3   0.058439 0.827225 0.437291 -0.680305
O9    O     O_3   0.214651 0.258582 0.497201 -0.658636
O10   O     O_3   0.787105 0.268763 0.506318 -0.622775
O11   O     O_2   0.844684 0.303815 0.301288 -0.349859
O12   O     O_2   0.148092 0.301026 0.300651 -0.449467
O13   O     O_2   0.153020 0.699556 0.374177 -0.468652
O14   O     O_R   0.499990 0.321920 0.382900 -0.512222
O15   O     O_R   0.417890 0.499980 0.617100 -0.489969
O16   O     O_R   0.417870 0.499940 0.382950 -0.500657
O17   O     O_R   0.500010 0.678080 0.617100 -0.538468
O18   O     O_R   0.499990 0.678040 0.382960 -0.408458

loop_
_geom_bond_atom_site_label_1
_geom_bond_atom_site_label_2
_ccdc_geom_bond_type
C33   H9    S    
C38   H24   S    
C1    C21   S    
C26   N1    A    
C41   C42   A    
C12   O5    S    
C2    N2    A    
H29   O9    S    
C7    C8    A    
Cu2   O3    S    
Cu1   Cu2   S    
Cu2   O16   S    
C12   C23   A    
C31   H36   S    
C12   C28   A    
C34   C40   A    
C28   C29   A    
Cu1   O1    S    
C5    C6    A    
C19   H1    S    
C39   H28   S    
C10   C17   A    
C43   H33   S    
C35   H13   S    
C18   C19   D    
C22   N3    D    
C1    O1    A    
C33   N3    S    
Cu1   O17   S    
C15   O6    S    
C44   O12   S    
C16   O18   A    
C8    C9    A    
C4    O16   A    
C39   H26   S    
C36   H17   S    
H32   N4    S    
C33   H10   S    
C11   C31   S    
C13   C14   A    
C37   H20   S    
C13   C25   S    
C8    O9    S    
C36   H16   S    
C1    O14   A    
C24   C35   S    
H7    O7    S    
Cu1   O2    S    
C34   C44   A    
C4    C6    S    
C3    C5    A    
Cu2   O18   S    
C25   O2    A    
C21   H23   S    
C35   H14   S    
C17   N1    S    
Cu1   N3    S    
C32   H5    S    
C29   C30   A    
C3    C9    A    
C16   O17   A    
C10   O10   S    
C23   C34   A    
C4    O15   A    
C32   H4    S    
Cu1   O15   S    
C37   H19   S    
C40   C41   A    
C38   H22   S    
C2    O13   S    
C26   C30   A    
C31   H2    S    
C22   C24   S    
C30   C43   A    
H6    O6    S    
C42   C43   A    
C20   H12   S    
C36   H15   S    
C33   H8    S    
C15   C17   A    
Cu2   O14   S    
C38   H25   S    
C27   O11   S    
C42   O8    S    
C22   H31   S    
C14   C32   S    
C44   N2    A    
C6    C7    A    
C26   O4    S    
C25   O3    A    
C31   H35   S    
C35   H11   S    
H34   O5    S    
C27   N1    A    
H18   O8    S    
H30   O10   S    
C11   C13   A    
C16   C19   S    
C37   H21   S    
C29   C40   A    
C18   C20   S    
C39   H27   S    
C32   H3    S    
C10   C11   A    
C9    N2    S    
C20   C21   D    
C3    C37   S    
C23   C36   S    
C27   C28   A    
C18   O7    S    
C7    C39   S    
C14   C15   A    
C2    C41   A    
C5    C38   S    
C24   N4    D    
Cu2   N4    S    
