data_mof_unit_35400.cif
_audit_creation_date              2013-03-05T15:55:54-0500
_audit_creation_method            fapswitch 2.2
_symmetry_space_group_name_H-M    P1
_symmetry_Int_Tables_number       1
_space_group_crystal_system       triclinic
_cell_length_a                    21.644496
_cell_length_b                    7.174776
_cell_length_c                    14.952961
_cell_angle_alpha                 89.999195
_cell_angle_beta                  107.027231
_cell_angle_gamma                 89.999147
_cell_volume                      2220.32312242

loop_
_atom_site_label
_atom_site_type_symbol
_atom_site_description
_atom_site_fract_x
_atom_site_fract_y
_atom_site_fract_z
_atom_type_partial_charge
O1    O     O_R   0.335860 0.638190 0.002110 -0.592842
O2    O     O_R   0.664140 0.361810 0.997890 -0.593804
O3    O     O_R   0.164140 0.138190 0.997890 -0.592857
O4    O     O_R   0.835860 0.861810 0.002110 -0.593783
O5    O     O_R   0.217530 0.305920 0.861960 -0.578753
O6    O     O_R   0.782470 0.694080 0.138040 -0.577556
O7    O     O_R   0.282470 0.805920 0.138040 -0.578748
O8    O     O_R   0.717530 0.194080 0.861960 -0.577553
C1    C     C_R   0.205389 0.476765 0.825943 0.974551
C2    C     C_R   0.794510 0.523182 0.174082 0.982225
C3    C     C_R   0.294612 0.976758 0.174056 0.974576
C4    C     C_R   0.705481 0.023187 0.825920 0.982095
O9    O     O_R   0.338690 0.308320 0.993240 -0.570155
O10   O     O_R   0.661310 0.691680 0.006760 -0.562680
O11   O     O_R   0.161310 0.808320 0.006760 -0.570156
O12   O     O_R   0.838690 0.191680 0.993240 -0.562616
O13   O     O_R   0.286170 0.140430 0.130100 -0.574774
O14   O     O_R   0.713830 0.859570 0.869900 -0.586565
O15   O     O_R   0.213830 0.640430 0.869900 -0.574776
O16   O     O_R   0.786170 0.359570 0.130100 -0.586530
C5    C     C_R   0.364681 0.476603 0.996410 1.012352
C6    C     C_R   0.635325 0.523412 0.003638 1.001713
C7    C     C_R   0.135319 0.976606 0.003589 1.012389
C8    C     C_R   0.864675 0.023411 0.996362 1.001806
O17   O     O_3   0.232630 0.472410 0.044750 -0.261387
O18   O     O_3   0.767370 0.527590 0.955250 -0.260163
O19   O     O_3   0.267370 0.972410 0.955250 -0.261373
O20   O     O_3   0.732630 0.027590 0.044750 -0.260187
V1    V     V_3+5 0.253220 0.196620 0.991700 1.285069
V2    V     V_3+5 0.746780 0.803380 0.008300 1.271806
V3    V     V_3+5 0.246780 0.696620 0.008300 1.285083
V4    V     V_3+5 0.753220 0.303380 0.991700 1.271854
C9    C     C_R   0.035569 0.840570 0.038669 0.399610
C10   C     C_R   0.964422 0.159532 0.961190 0.412153
C11   C     C_R   0.464435 0.340562 0.961332 0.399530
C12   C     C_R   0.535576 0.659526 0.038810 0.411927
C13   C     C_R   0.970346 0.856464 0.034687 -0.188851
C14   C     C_R   0.029654 0.143633 0.965214 -0.161677
C15   C     C_R   0.529657 0.356465 0.965314 -0.188707
C16   C     C_R   0.470344 0.643623 0.034785 -0.161634
H1    H     H_    0.948523 0.744362 0.063442 0.184492
H2    H     H_    0.051490 0.255705 0.936458 0.170109
H3    H     H_    0.551483 0.244365 0.936561 0.184272
H4    H     H_    0.448507 0.755693 0.063542 0.170108
C17   C     C_R   0.933648 0.014494 0.996495 -0.267854
C18   C     C_R   0.066342 0.985599 0.003406 -0.272277
C19   C     C_R   0.566352 0.514494 0.003504 -0.267665
C20   C     C_R   0.433658 0.485591 0.996594 -0.271995
C21   C     C_R   0.678369 0.013564 0.724366 -0.201376
C22   C     C_R   0.321793 0.986113 0.275581 -0.214180
C23   C     C_R   0.821627 0.513549 0.275636 -0.201502
C24   C     C_R   0.178214 0.486153 0.724418 -0.214212
C25   C     C_R   0.690614 0.989280 0.569635 -0.137552
C26   C     C_R   0.309628 0.010926 0.430281 -0.136513
C27   C     C_R   0.809397 0.489177 0.430372 -0.137528
C28   C     C_R   0.190387 0.511130 0.569730 -0.136564
C29   C     C_R   0.718202 0.996244 0.666282 0.347541
C30   C     C_R   0.282024 0.004704 0.333649 0.342574
C31   C     C_R   0.781801 0.496142 0.333726 0.347563
C32   C     C_R   0.217985 0.504895 0.666361 0.342489
C33   C     C_R   0.611395 0.018475 0.685705 -0.291620
C34   C     C_R   0.388748 0.979389 0.314248 -0.154941
C35   C     C_R   0.888600 0.518555 0.314289 -0.291604
C36   C     C_R   0.111260 0.479402 0.685741 -0.154985
C37   C     C_R   0.582156 0.995472 0.588611 0.108892
C38   C     C_R   0.418039 0.002917 0.411270 0.130998
C39   C     C_R   0.917853 0.495538 0.411380 0.108813
C40   C     C_R   0.081974 0.503002 0.588723 0.130995
C41   C     C_R   0.622870 0.996349 0.529501 0.018611
C42   C     C_R   0.377387 0.002459 0.470494 -0.071308
C43   C     C_R   0.877144 0.496331 0.470498 0.018642
C44   C     C_R   0.122632 0.502578 0.529508 -0.071056
C45   C     C_R   0.513572 0.982820 0.548753 -0.087351
C46   C     C_R   0.486559 0.016124 0.451028 0.046590
C47   C     C_R   0.986442 0.482963 0.451230 -0.087256
C48   C     C_R   0.013454 0.516198 0.548961 0.046540
C49   C     C_R   0.529135 0.058707 0.396496 -0.167020
C50   C     C_R   0.471313 0.938429 0.603407 -0.196653
C51   C     C_R   0.970879 0.558741 0.603498 -0.167034
C52   C     C_R   0.028709 0.438726 0.396563 -0.196366
C53   C     C_R   0.595629 0.020750 0.432595 0.262654
C54   C     C_R   0.404603 0.977239 0.567491 0.372124
C55   C     C_R   0.904386 0.520760 0.567403 0.262637
C56   C     C_R   0.095429 0.477315 0.432513 0.371400
H5    H     H_    0.417220 0.950199 0.267388 0.106071
H6    H     H_    0.582852 0.046756 0.732593 0.139017
H7    H     H_    0.082784 0.450161 0.732590 0.106076
H8    H     H_    0.917119 0.547013 0.267393 0.139468
H9    H     H_    0.723184 0.984705 0.527042 0.201998
H10   H     H_    0.276959 0.016015 0.472687 0.195963
H11   H     H_    0.776831 0.484534 0.472969 0.201993
H12   H     H_    0.223056 0.516362 0.527326 0.195985
Br1   Br    Br    0.078913 0.619102 0.097467 -0.373554
Br2   Br    Br    0.921124 0.380977 0.902183 -0.447500
Br3   Br    Br    0.421102 0.119077 0.902541 -0.374090
Br4   Br    Br    0.578873 0.880960 0.097822 -0.447649
Br5   Br    Br    0.650044 0.025795 0.350261 -0.450154
Br6   Br    Br    0.349500 0.978493 0.648934 -0.365342
Br7   Br    Br    0.849969 0.525852 0.649735 -0.450173
Br8   Br    Br    0.150571 0.477734 0.351123 -0.365659
Br9   Br    Br    0.189580 0.006189 0.283736 -0.411876
Br10  Br    Br    0.810639 0.997106 0.716189 -0.437951
Br11  Br    Br    0.310426 0.506654 0.716289 -0.411224
Br12  Br    Br    0.689363 0.496946 0.283829 -0.437960
C57   C     C_2   0.507985 0.171650 0.309296 0.561628
H13   H     H_    0.528334 0.148208 0.252078 0.105201
O21   O     O_2   0.468745 0.297355 0.301925 -0.572450
C58   C     C_2   0.494787 0.817445 0.687838 0.629561
H14   H     H_    0.533931 0.720139 0.691888 -0.008307
O22   O     O_2   0.472814 0.826980 0.754073 -0.488397
C59   C     C_2   0.992030 0.671670 0.690702 0.561646
H15   H     H_    0.971680 0.648220 0.747914 0.105180
O23   O     O_2   0.031267 0.797375 0.698075 -0.572460
C60   C     C_2   0.005243 0.318132 0.312013 0.629878
H16   H     H_    0.966432 0.219756 0.308173 -0.008330
O24   O     O_2   0.026765 0.329499 0.245389 -0.488838

loop_
_geom_bond_atom_site_label_1
_geom_bond_atom_site_label_2
_geom_bond_distance
_ccdc_geom_bond_type
O17   V3    1.753964 S    
O1    C5    1.331026 A    
C27   C31   1.393618 A    
C35   H8    1.080717 S    
O19   V1    1.753970 S    
O13   V1    2.022261 S    
C45   C46   1.426151 A    
O3    C7    1.331020 A    
C59   H15   1.083913 S    
C48   C51   1.430900 A    
C52   C56   1.412968 A    
O15   V3    2.022278 S    
C60   H16   1.085775 S    
C21   C29   1.397034 A    
O7    C3    1.333661 A    
C29   Br10  1.919756 S    
C57   O21   1.221517 D    
C31   Br12  1.919778 S    
C36   C40   1.412972 A    
O2    V4    2.001584 S    
O9    V1    2.010036 S    
C14   H2    1.083442 S    
O16   V4    2.022277 S    
O4    C8    1.331208 A    
C2    C23   1.460550 S    
C38   C46   1.430238 A    
O1    V3    2.001586 S    
C37   C45   1.431419 A    
C58   H14   1.085742 S    
C12   C19   1.418156 A    
C50   C58   1.493246 S    
O3    V1    2.001595 S    
C12   Br4   1.922696 S    
C27   H11   1.080111 S    
C24   C32   1.396557 A    
C1    O15   1.331907 A    
C2    O16   1.331770 A    
C28   C44   1.414079 A    
C46   C49   1.430926 A    
O2    C6    1.331201 A    
C45   C50   1.429591 A    
O14   V2    2.022262 S    
C32   Br11  1.919906 S    
C47   C52   1.429626 A    
C36   H7    1.080521 S    
O5    V1    2.024245 S    
C23   C35   1.394984 A    
O8    C4    1.333985 A    
C5    C20   1.493555 S    
O11   C7    1.327004 A    
C6    C19   1.493677 S    
C25   C41   1.413282 A    
O12   C8    1.326898 A    
C7    C18   1.493546 S    
C55   Br7   1.937380 S    
C9    C18   1.417798 A    
C54   Br6   1.938105 S    
C1    C24   1.460202 S    
O10   V2    2.010032 S    
C11   C20   1.417814 A    
C4    C21   1.460536 S    
C43   C55   1.406298 A    
C34   H5    1.080509 S    
C35   C39   1.413343 A    
C21   C33   1.395002 A    
C34   C38   1.412976 A    
O8    V4    2.024275 S    
C12   C16   1.400137 A    
O7    V3    2.024274 S    
C24   C36   1.395039 A    
C10   C17   1.418168 A    
C25   C29   1.393612 A    
O18   V4    1.753965 S    
C15   H3    1.083443 S    
C9    C13   1.400097 A    
C28   C32   1.393250 A    
C56   Br8   1.938136 S    
C11   C15   1.400093 A    
C47   C48   1.426156 A    
O5    C1    1.333686 A    
C50   C54   1.413046 A    
C26   C42   1.414117 A    
C49   C53   1.407804 A    
C40   C44   1.419437 A    
C22   C30   1.396556 A    
O9    C5    1.327003 A    
C59   O23   1.221489 D    
C30   Br9   1.919934 S    
C40   C48   1.430231 A    
O11   V3    2.010010 S    
C44   C56   1.408176 A    
O6    V2    2.024244 S    
C52   C60   1.492979 S    
C25   H9    1.080104 S    
C22   C34   1.395042 A    
C23   C31   1.397041 A    
C8    C17   1.493678 S    
C13   C17   1.406020 A    
C15   C19   1.406019 A    
C26   C30   1.393267 A    
C16   C20   1.405965 A    
C3    O13   1.331929 A    
C10   C14   1.400139 A    
C10   Br2   1.922700 S    
C9    Br1   1.922204 S    
O6    C2    1.333992 A    
C60   O24   1.219799 D    
C26   H10   1.079816 S    
C11   Br3   1.922232 S    
O12   V4    2.010014 S    
C57   H13   1.083953 S    
C51   C59   1.488893 S    
O10   C6    1.326906 A    
O20   V2    1.753970 S    
C3    C22   1.460200 S    
C51   C55   1.407826 A    
C38   C42   1.419440 A    
C53   Br5   1.937360 S    
C37   C41   1.419144 A    
C49   C57   1.488883 S    
C58   O22   1.219705 D    
C39   C43   1.419157 A    
C13   H1    1.083447 S    
C42   C54   1.408184 A    
O4    V2    2.001598 S    
C14   C18   1.405959 A    
C41   C53   1.406289 A    
C33   H6    1.080781 S    
C33   C37   1.413328 A    
C16   H4    1.083440 S    
C39   C47   1.431471 A    
C4    O14   1.331765 A    
C28   H12   1.079820 S    
C27   C43   1.413336 A    
