data_mof_unit_54056.cif
_audit_creation_date              2012-12-10T18:58:08-0500
_audit_creation_method            fapswitch 2.2
_symmetry_space_group_name_H-M    P1
_symmetry_Int_Tables_number       1
_space_group_crystal_system       triclinic
_cell_length_a                    10.64241
_cell_length_b                    9.942298
_cell_length_c                    15.749386
_cell_angle_alpha                 89.964784
_cell_angle_beta                  91.398317
_cell_angle_gamma                 89.712547
_cell_volume                      1665.92504238

loop_
_atom_site_label
_atom_site_type_symbol
_atom_type_description
_atom_site_fract_x
_atom_site_fract_y
_atom_site_fract_z
_atom_type_partial_charge
C1    C     C_R   0.872044 0.498254 0.500618 -0.134582
C2    C     C_R   0.585697 0.387172 0.957376 0.439057
C3    C     C_R   0.557529 0.507562 0.913025 -0.319402
C4    C     C_R   0.557601 0.507501 0.089021 -0.319914
C5    C     C_1   0.534705 0.503100 0.824043 0.046716
C6    C     C_1   0.534824 0.503105 0.177218 0.032654
C7    C     C_1   0.516326 0.500675 0.251220 -0.065875
C8    C     C_1   0.516249 0.500582 0.749403 -0.044588
C9    C     C_R   0.565269 0.071563 0.561625 -0.025483
C10   C     C_R   0.434828 0.928418 0.438333 -0.034050
C11   C     C_R   0.434751 0.072539 0.438478 0.002101
C12   C     C_R   0.128047 0.501758 0.499225 -0.135547
C13   C     C_R   0.565509 0.927439 0.561389 0.012231
C14   C     C_R   0.062295 0.464944 0.424189 -0.043106
C15   C     C_R   0.937815 0.534879 0.575621 -0.035342
C16   C     C_R   0.931533 0.461328 0.425244 -0.104142
C17   C     C_R   0.068569 0.538646 0.574648 -0.114977
C18   C     C_2   0.639651 0.145459 0.626534 0.498064
C19   C     C_2   0.360492 0.854475 0.373423 0.502391
C20   C     C_2   0.358027 0.147631 0.375222 0.529802
C21   C     C_2   0.643049 0.852337 0.624184 0.526561
C22   C     C_2   0.129890 0.439538 0.343956 0.418061
C23   C     C_R   0.260836 0.500409 0.499187 0.898215
C24   C     C_2   0.870070 0.559258 0.655796 0.417527
C25   C     C_2   0.854761 0.428789 0.347404 0.433079
C26   C     C_2   0.145306 0.571644 0.652537 0.451023
C27   C     C_R   0.739191 0.499587 0.500738 0.892409
C28   C     C_R   0.500558 0.500069 0.339298 0.945517
C29   C     C_R   0.500691 0.500018 0.660745 0.916550
C30   C     C_R   0.540677 0.630242 0.956604 0.439288
C31   C     C_R   0.585595 0.387093 0.045675 0.450170
C32   C     C_R   0.540823 0.630223 0.044858 0.442548
H1    H     H_    0.709747 0.217098 0.607890 0.112622
H2    H     H_    0.887696 0.648959 0.693125 0.145057
H3    H     H_    0.769875 0.485769 0.332848 0.039356
H4    H     H_    0.232703 0.518299 0.665731 0.046457
H5    H     H_    0.289760 0.783555 0.392109 0.112001
H6    H     H_    0.278187 0.206232 0.395188 0.036247
H7    H     H_    0.723017 0.794355 0.603784 0.034774
H8    H     H_    0.539549 0.744162 0.146479 0.364229
H9    H     H_    0.625542 0.281600 0.856410 0.377186
H10   H     H_    0.538331 0.744059 0.854843 0.377106
H11   H     H_    0.623966 0.280946 0.148154 0.363645
H12   H     H_    0.108259 0.352419 0.305160 0.150045
N1    N     N_R   0.500000 0.857200 0.500000 -0.166444
N2    N     N_R   0.500000 0.142800 0.500000 -0.166438
O1    O     O_R   0.316770 0.614620 0.499990 -0.630519
O2    O     O_2   0.379037 0.870809 0.297960 -0.482126
O3    O     O_2   0.384218 0.145382 0.300218 -0.483184
O4    O     O_2   0.617578 0.854112 0.699301 -0.509556
O5    O     O_3   0.519897 0.751941 0.084967 -0.610389
O6    O     O_3   0.609763 0.266201 0.917258 -0.612660
O7    O     O_3   0.519523 0.751976 0.915805 -0.612956
O8    O     O_3   0.609394 0.265989 0.086625 -0.615094
O9    O     O_2   0.209734 0.517644 0.319991 -0.577711
O10   O     O_2   0.794662 0.477381 0.681220 -0.592392
O11   O     O_2   0.882211 0.335295 0.301146 -0.560032
O12   O     O_R   0.683230 0.385380 0.500010 -0.630007
O13   O     O_2   0.114761 0.661543 0.700646 -0.550525
O14   O     O_R   0.683230 0.614620 0.500010 -0.653970
O15   O     O_R   0.316770 0.385380 0.499990 -0.650311
O16   O     O_R   0.499980 0.614630 0.378020 -0.614340
O17   O     O_R   0.500020 0.385370 0.621980 -0.609022
O18   O     O_R   0.500020 0.614630 0.621980 -0.605148
O19   O     O_R   0.499980 0.385370 0.378020 -0.605404
O20   O     O_2   0.621905 0.128176 0.702004 -0.492553
Zn1   Zn    Zn3+2 0.500000 0.653120 0.500000 0.976065
Zn2   Zn    Zn3+2 0.500000 0.346880 0.500000 0.979038

loop_
_geom_bond_atom_site_label_1
_geom_bond_atom_site_label_2
_ccdc_geom_bond_type
C12   C17   A    
N1    Zn1   S    
C5    C8    T    
C30   C32   A    
C29   O17   A    
C32   O5    S    
N2    Zn2   S    
C6    C7    T    
C1    C15   A    
C18   O20   D    
H8    O5    S    
C20   H6    S    
C26   O13   D    
H9    O6    S    
O15   Zn2   S    
C10   C19   S    
O19   Zn2   S    
C1    C27   S    
C14   C22   S    
C10   N1    A    
C2    C3    A    
C29   O18   A    
C13   C21   S    
C9    N2    A    
C31   O8    S    
C1    C16   A    
C4    C32   A    
H11   O8    S    
C13   N1    A    
C12   C23   S    
C20   O3    D    
C2    O6    S    
O16   Zn1   S    
C25   H3    S    
C8    C29   S    
C3    C30   A    
O12   Zn2   S    
C21   O4    D    
C30   O7    S    
C12   C14   A    
C28   O19   A    
C27   O14   A    
H10   O7    S    
C18   H1    S    
C14   C16   A    
C11   C20   S    
C4    C31   A    
C23   O1    A    
C10   C11   A    
C17   C26   S    
C24   O10   D    
C25   O11   D    
O18   Zn1   S    
C9    C18   S    
C23   O15   A    
C4    C6    S    
C26   H4    S    
C16   C25   S    
C15   C17   A    
C9    C13   A    
O17   Zn2   S    
C15   C24   S    
C11   N2    A    
C22   H12   S    
C22   O9    D    
C19   H5    S    
C19   O2    D    
O1    Zn1   S    
C24   H2    S    
C7    C28   S    
O14   Zn1   S    
C28   O16   A    
C2    C31   A    
C3    C5    S    
C27   O12   A    
C21   H7    S    
