data_mof_unit_21343.cif
_audit_creation_date              2012-12-10T18:50:51-0500
_audit_creation_method            fapswitch 2.2
_symmetry_space_group_name_H-M    P1
_symmetry_Int_Tables_number       1
_space_group_crystal_system       triclinic
_cell_length_a                    10.712502
_cell_length_b                    9.889239
_cell_length_c                    15.760737
_cell_angle_alpha                 90.033154
_cell_angle_beta                  91.145823
_cell_angle_gamma                 89.936309
_cell_volume                      1669.33356094

loop_
_atom_site_label
_atom_site_type_symbol
_atom_type_description
_atom_site_fract_x
_atom_site_fract_y
_atom_site_fract_z
_atom_type_partial_charge
C1    C     C_R   0.260001 0.500041 0.499881 0.865173
C2    C     C_R   0.935409 0.620405 0.483307 -0.158698
C3    C     C_R   0.872482 0.499911 0.499947 -0.035079
C4    C     C_R   0.127488 0.500042 0.499876 -0.028025
C5    C     C_R   0.578809 0.071646 0.552607 -0.052284
C6    C     C_R   0.576745 0.928277 0.553996 -0.066757
C7    C     C_R   0.499382 0.500012 0.338500 0.890656
C8    C     C_R   0.424686 0.927936 0.444026 0.002188
C9    C     C_R   0.418460 0.072110 0.448199 0.030990
C10   C     C_R   0.739949 0.499950 0.500057 0.876156
C11   C     C_R   0.499654 0.500011 0.661562 0.909557
C12   C     C_3   0.609766 0.482811 0.953574 -0.390777
C13   C     C_3   0.403804 0.636037 0.049254 -0.132373
C14   C     C_3   0.410687 0.364494 0.050638 -0.233061
C15   C     C_3   0.393840 0.372880 0.948492 -0.137120
C16   C     C_3   0.420952 0.642813 0.947443 -0.172192
C17   C     C_1   0.492080 0.499876 0.749951 -0.112791
C18   C     C_3   0.474540 0.502791 0.083063 0.075538
C19   C     C_3   0.474266 0.499241 0.916540 0.127308
C20   C     C_2   0.299867 0.683104 0.900666 0.211787
C21   C     C_2   0.258018 0.389401 0.917763 0.360711
C22   C     C_2   0.356640 0.855579 0.374925 0.551058
C23   C     C_3   0.610810 0.506672 0.049783 -0.393564
C24   C     C_2   0.317459 0.144386 0.401154 0.512974
C25   C     C_2   0.267214 0.630909 0.076432 0.320505
C26   C     C_2   0.287270 0.334166 0.094586 0.416461
C27   C     C_2   0.497994 0.246781 0.078199 0.440000
C28   C     C_2   0.450613 0.768233 0.090382 0.689843
C29   C     C_2   0.431599 0.236737 0.908758 0.485944
C30   C     C_2   0.511920 0.754122 0.917821 0.397915
C31   C     C_1   0.483771 0.499284 0.824796 0.016882
C32   C     C_1   0.483980 0.501621 0.174969 0.057928
C33   C     C_1   0.492045 0.500367 0.249995 -0.068876
C34   C     C_R   0.064567 0.379551 0.516537 -0.129357
C35   C     C_R   0.063273 0.620483 0.483309 -0.163575
C36   C     C_R   0.936692 0.379475 0.516558 -0.160265
H1    H     H_    0.113740 0.285997 0.530141 0.187009
H2    H     H_    0.407088 0.862948 0.071078 0.110063
H3    H     H_    0.381524 0.146062 0.926881 0.116873
H4    H     H_    0.496259 0.802741 0.856621 0.104581
H5    H     H_    0.656712 0.604461 0.064595 0.272478
H6    H     H_    0.671799 0.429997 0.081503 0.173673
H7    H     H_    0.676714 0.552731 0.923265 0.223276
H8    H     H_    0.647585 0.380669 0.940498 0.214976
H9    H     H_    0.888548 0.285863 0.530116 0.166387
H10   H     H_    0.886242 0.714033 0.469865 0.174523
H11   H     H_    0.642200 0.125625 0.594783 0.148530
H12   H     H_    0.111333 0.714192 0.469972 0.163232
H13   H     H_    0.638304 0.874235 0.597408 0.145051
H14   H     H_    0.266446 0.628017 0.845375 0.152318
H15   H     H_    0.184670 0.419834 0.959627 0.093756
H16   H     H_    0.309828 0.761374 0.385886 0.090593
H17   H     H_    0.333928 0.238325 0.369107 0.118278
H18   H     H_    0.191898 0.606463 0.032670 0.115753
H19   H     H_    0.258064 0.391837 0.149127 0.118874
H20   H     H_    0.579151 0.221512 0.041318 0.086398
N1    N     N_R   0.499970 0.857200 0.499980 -0.135051
N2    N     N_R   0.499970 0.142800 0.499980 -0.135600
O1    O     O_R   0.316750 0.614620 0.499990 -0.656968
O2    O     O_2   0.228795 0.371186 0.843197 -0.555022
O3    O     O_2   0.353812 0.901199 0.302910 -0.495754
O4    O     O_2   0.211576 0.098690 0.398575 -0.583672
O5    O     O_2   0.239428 0.651578 0.150243 -0.544114
O6    O     O_2   0.224330 0.236312 0.073416 -0.522431
O7    O     O_2   0.481614 0.182561 0.143368 -0.510239
O8    O     O_2   0.534209 0.771814 0.144159 -0.536863
O9    O     O_2   0.514993 0.225770 0.857502 -0.576893
O10   O     O_2   0.606239 0.785560 0.957891 -0.565458
O11   O     O_R   0.316750 0.385380 0.499990 -0.646545
O12   O     O_R   0.499990 0.614720 0.377140 -0.613506
O13   O     O_R   0.499990 0.385280 0.377140 -0.640426
O14   O     O_R   0.683220 0.614710 0.500000 -0.624296
O15   O     O_R   0.683220 0.385290 0.500000 -0.623211
O16   O     O_R   0.499980 0.614620 0.622860 -0.625535
O17   O     O_R   0.499980 0.385380 0.622860 -0.585883
O18   O     O_2   0.244025 0.786054 0.920217 -0.538035
Zn1   Zn    Zn3+2 0.499980 0.653120 0.500000 0.961018
Zn2   Zn    Zn3+2 0.499980 0.346880 0.500000 0.973082

loop_
_geom_bond_atom_site_label_1
_geom_bond_atom_site_label_2
_ccdc_geom_bond_type
C2    C35   A    
C34   H1    S    
C14   C18   S    
C19   C31   S    
C26   H19   S    
O1    Zn1   S    
C7    O12   A    
C2    H10   S    
C15   C19   S    
C5    H11   S    
C12   C23   S    
C23   H6    S    
C5    N2    A    
C12   H7    S    
C1    O1    A    
C7    O13   A    
C5    C6    A    
C10   O15   A    
C16   C30   S    
C20   O18   D    
C9    N2    A    
C25   O5    D    
C26   O6    D    
C20   H14   S    
C29   O9    D    
C8    C9    A    
O16   Zn1   S    
C8    C22   S    
O15   Zn2   S    
C13   C28   S    
C14   C27   S    
C4    C35   A    
O12   Zn1   S    
C7    C33   S    
C6    N1    A    
C13   C25   S    
O11   Zn2   S    
C35   H12   S    
C15   C29   S    
C4    C34   A    
C18   C23   S    
N1    Zn1   S    
C25   H18   S    
C21   O2    D    
C27   H20   S    
C24   H17   S    
C1    O11   A    
C28   O8    D    
O14   Zn1   S    
C27   O7    D    
C8    N1    A    
C28   H2    S    
C16   C20   S    
C29   H3    S    
C30   H4    S    
C36   H9    S    
C14   C26   S    
C13   C18   S    
C17   C31   T    
C18   C32   S    
C21   H15   S    
C22   H16   S    
C11   C17   S    
C24   O4    D    
C11   O16   A    
C9    C24   S    
C23   H5    S    
C1    C4    S    
C32   C33   T    
C2    C3    A    
C12   H8    S    
C3    C10   S    
C11   O17   A    
C22   O3    D    
C3    C36   A    
C16   C19   S    
C12   C19   S    
C34   C36   A    
C6    H13   S    
O17   Zn2   S    
N2    Zn2   S    
C15   C21   S    
C13   C16   S    
C14   C15   S    
O13   Zn2   S    
C30   O10   D    
C10   O14   A    
