data_mof_unit_50128.cif
_audit_creation_date              2012-12-11T14:10:38-0500
_audit_creation_method            fapswitch 2.2
_symmetry_space_group_name_H-M    P1
_symmetry_Int_Tables_number       1
_space_group_crystal_system       triclinic
_cell_length_a                    19.957114
_cell_length_b                    17.208196
_cell_length_c                    15.566262
_cell_angle_alpha                 89.999915
_cell_angle_beta                  51.930116
_cell_angle_gamma                 89.999131
_cell_volume                      4208.57610929

loop_
_atom_site_label
_atom_site_type_symbol
_atom_type_description
_atom_site_fract_x
_atom_site_fract_y
_atom_site_fract_z
_atom_type_partial_charge
C1    C     C_R   0.359834 0.190965 0.015591 -0.120995
C2    C     C_R   0.640168 0.809037 0.984408 -0.121005
C3    C     C_R   0.662495 0.171212 0.943638 -0.109190
C4    C     C_R   0.337496 0.828802 0.056388 -0.108929
C5    C     C_R   0.837497 0.671202 0.056380 -0.109010
C6    C     C_R   0.162495 0.328784 0.943633 -0.109108
C7    C     C_R   0.140176 0.690958 0.984396 -0.121029
C8    C     C_R   0.859847 0.309030 0.015569 -0.120978
C9    C     C_3   0.244226 0.224156 0.556064 0.116848
C10   C     C_3   0.755595 0.775420 0.444198 0.116853
C11   C     C_3   0.667131 0.276621 0.465548 0.108837
C12   C     C_3   0.333907 0.721802 0.533125 0.108953
C13   C     C_3   0.833492 0.777556 0.533658 0.108852
C14   C     C_3   0.166771 0.222845 0.466002 0.108921
C15   C     C_3   0.255325 0.725219 0.444602 0.116909
C16   C     C_3   0.743971 0.276381 0.556427 0.116803
C17   C     C_2   0.239879 0.724215 0.021856 -0.053988
C18   C     C_2   0.760116 0.275778 0.978170 -0.053742
C19   C     C_2   0.723515 0.698628 0.043731 -0.047573
C20   C     C_2   0.276498 0.301357 0.956228 -0.047736
C21   C     C_2   0.776491 0.198632 0.956253 -0.047620
C22   C     C_2   0.223517 0.801368 0.043733 -0.047676
C23   C     C_2   0.260088 0.224223 0.978222 -0.053900
C24   C     C_2   0.739874 0.775780 0.021859 -0.053899
C25   C     C_R   0.392500 0.802357 0.212858 -0.139207
C26   C     C_R   0.607692 0.197602 0.787070 -0.139017
C27   C     C_R   0.650380 0.827488 0.776880 -0.130281
C28   C     C_R   0.349591 0.172480 0.223108 -0.130133
C29   C     C_R   0.849571 0.327545 0.223089 -0.129976
C30   C     C_R   0.150347 0.672547 0.776856 -0.130447
C31   C     C_R   0.107639 0.302386 0.787088 -0.139081
C32   C     C_R   0.892416 0.697625 0.212891 -0.139128
C33   C     C_R   0.330441 0.910967 0.951608 -0.128376
C34   C     C_R   0.669559 0.089032 0.048394 -0.128067
C35   C     C_R   0.650917 0.896939 0.080345 -0.135740
C36   C     C_R   0.349062 0.103056 0.919683 -0.135733
C37   C     C_R   0.849080 0.396939 0.919657 -0.135733
C38   C     C_R   0.150919 0.603059 0.080342 -0.135750
C39   C     C_R   0.169566 0.410967 0.048381 -0.128183
C40   C     C_R   0.830442 0.589031 0.951607 -0.128242
C41   C     C_R   0.357742 0.079550 0.317280 -0.119674
C42   C     C_R   0.642217 0.920415 0.682706 -0.119599
C43   C     C_R   0.601582 0.105502 0.690871 -0.137020
C44   C     C_R   0.398677 0.894459 0.308990 -0.136614
C45   C     C_R   0.898566 0.605521 0.309049 -0.136828
C46   C     C_R   0.101506 0.394488 0.690911 -0.136821
C47   C     C_R   0.142168 0.579614 0.682689 -0.119387
C48   C     C_R   0.857706 0.420467 0.317269 -0.119853
C49   C     C_R   0.320533 0.174252 0.970752 0.104953
C50   C     C_R   0.679445 0.825742 0.029282 0.105007
C51   C     C_R   0.711650 0.148754 0.972791 0.095929
C52   C     C_R   0.288348 0.851248 0.027218 0.096061
C53   C     C_R   0.788348 0.648751 0.027213 0.095978
C54   C     C_R   0.211660 0.351246 0.972770 0.095997
C55   C     C_R   0.179453 0.674253 0.029273 0.105020
C56   C     C_R   0.820560 0.325740 0.970710 0.104930
C57   C     C_R   0.376704 0.819142 0.309985 0.066059
C58   C     C_R   0.623736 0.180784 0.689807 0.066168
C59   C     C_R   0.691508 0.861183 0.675373 0.055059
C60   C     C_R   0.308423 0.138756 0.324605 0.055038
C61   C     C_R   0.808358 0.361293 0.324577 0.054994
C62   C     C_R   0.191419 0.638886 0.675336 0.055106
C63   C     C_R   0.123606 0.319196 0.689866 0.066125
C64   C     C_R   0.876517 0.680823 0.310075 0.066106
C65   C     C_3   0.209126 0.150681 0.540539 -0.226043
C66   C     C_3   0.790448 0.849180 0.459510 -0.226121
C67   C     C_3   0.702285 0.203473 0.482044 -0.230940
C68   C     C_3   0.299687 0.796081 0.517445 -0.231033
C69   C     C_3   0.798891 0.703729 0.517658 -0.231005
C70   C     C_3   0.201624 0.296377 0.482205 -0.230973
C71   C     C_3   0.289805 0.651024 0.459577 -0.226207
C72   C     C_3   0.708575 0.349484 0.540593 -0.225954
C73   C     C_3   0.716164 0.746902 0.559300 -0.197344
C74   C     C_3   0.284054 0.252773 0.440878 -0.197180
C75   C     C_3   0.374005 0.694030 0.415882 -0.198069
C76   C     C_3   0.625488 0.304813 0.583083 -0.197312
C77   C     C_3   0.125659 0.194798 0.583443 -0.197590
C78   C     C_3   0.874206 0.805501 0.416296 -0.197738
C79   C     C_3   0.784328 0.247625 0.441137 -0.196968
C80   C     C_3   0.216509 0.753572 0.559577 -0.197611
C81   C     C_3   0.751745 0.820159 0.574997 0.108595
C82   C     C_3   0.248228 0.179812 0.424972 0.108485
C83   C     C_3   0.337702 0.767484 0.401940 0.109768
C84   C     C_3   0.662697 0.232499 0.597881 0.109497
C85   C     C_3   0.162576 0.267498 0.597933 0.109593
C86   C     C_3   0.837533 0.732501 0.402018 0.109660
C87   C     C_3   0.748209 0.320199 0.424926 0.108346
C88   C     C_3   0.251717 0.679862 0.574940 0.108750
H1    H     H_    0.358902 0.245545 0.050377 0.098852
H2    H     H_    0.641117 0.754468 0.949590 0.098868
H3    H     H_    0.674615 0.218605 0.890358 0.109623
H4    H     H_    0.325365 0.781435 0.109711 0.109383
H5    H     H_    0.825367 0.718577 0.109690 0.109481
H6    H     H_    0.174608 0.281387 0.890362 0.109518
H7    H     H_    0.141131 0.745524 0.949567 0.098837
H8    H     H_    0.858914 0.254453 0.050361 0.098895
H9    H     H_    0.391212 0.745602 0.184045 0.102970
H10   H     H_    0.608901 0.254365 0.815928 0.103152
H11   H     H_    0.668718 0.774538 0.794225 0.101068
H12   H     H_    0.331258 0.225435 0.205767 0.101093
H13   H     H_    0.831252 0.274581 0.205747 0.101138
H14   H     H_    0.168700 0.725486 0.794203 0.101012
H15   H     H_    0.108875 0.245626 0.815928 0.103078
H16   H     H_    0.891158 0.754383 0.184063 0.103039
H17   H     H_    0.311568 0.940109 0.908066 0.101086
H18   H     H_    0.688435 0.059883 0.091928 0.101123
H19   H     H_    0.663652 0.924575 0.131309 0.099288
H20   H     H_    0.336312 0.075417 0.868737 0.099313
H21   H     H_    0.836337 0.424579 0.868704 0.099401
H22   H     H_    0.163653 0.575423 0.131306 0.099199
H23   H     H_    0.188446 0.440114 0.091911 0.101087
H24   H     H_    0.811569 0.559886 0.908067 0.101123
H25   H     H_    0.346974 0.045425 0.382967 0.096105
H26   H     H_    0.652965 0.954530 0.617026 0.095923
H27   H     H_    0.596498 0.077659 0.632844 0.091133
H28   H     H_    0.403800 0.922358 0.366950 0.090932
H29   H     H_    0.903672 0.577642 0.367037 0.091033
H30   H     H_    0.096407 0.422348 0.632907 0.091035
H31   H     H_    0.152898 0.545479 0.617035 0.095792
H32   H     H_    0.846924 0.454572 0.382981 0.096207
H33   H     H_    0.650575 0.723728 0.618684 0.135826
H34   H     H_    0.349785 0.275688 0.381667 0.135893
H35   H     H_    0.439682 0.671658 0.355242 0.141356
H36   H     H_    0.559280 0.326205 0.643028 0.141210
H37   H     H_    0.059625 0.173077 0.643637 0.141241
H38   H     H_    0.940100 0.827479 0.355928 0.141294
H39   H     H_    0.850237 0.225040 0.382173 0.135982
H40   H     H_    0.151142 0.777142 0.619236 0.135724
H41   H     H_    0.212932 0.090489 0.562903 0.125292
H42   H     H_    0.786271 0.909261 0.437179 0.125099
H43   H     H_    0.699574 0.143464 0.458164 0.122355
H44   H     H_    0.303913 0.855673 0.541069 0.122219
H45   H     H_    0.802510 0.643966 0.541391 0.122295
H46   H     H_    0.198405 0.356250 0.458404 0.122279
H47   H     H_    0.285064 0.591115 0.437303 0.124936
H48   H     H_    0.711910 0.409814 0.562994 0.125429
N1    N     N_R   0.408680 0.130810 0.995780 -0.042090
N2    N     N_R   0.591320 0.869190 0.004220 -0.042077
N3    N     N_R   0.591320 0.130810 0.004220 -0.046962
N4    N     N_R   0.408680 0.869190 0.995780 -0.046969
N5    N     N_R   0.908680 0.630810 0.995780 -0.046964
N6    N     N_R   0.091320 0.369190 0.004220 -0.046966
N7    N     N_R   0.091320 0.630810 0.004220 -0.042073
N8    N     N_R   0.908680 0.369190 0.995780 -0.042098
N9    N     N_R   0.421410 0.867210 0.153620 -0.041139
N10   N     N_R   0.578590 0.132790 0.846380 -0.041176
N11   N     N_R   0.578590 0.867210 0.846380 -0.042763
N12   N     N_R   0.421410 0.132790 0.153620 -0.042786
N13   N     N_R   0.921410 0.367210 0.153620 -0.042817
N14   N     N_R   0.078590 0.632790 0.846380 -0.042726
N15   N     N_R   0.078590 0.367210 0.846380 -0.041165
N16   N     N_R   0.921410 0.632790 0.153620 -0.041152
N17   N     N_R   0.403840 0.921910 0.935760 -0.045529
N18   N     N_R   0.596160 0.078090 0.064240 -0.045534
N19   N     N_R   0.596160 0.921910 0.064240 -0.041753
N20   N     N_R   0.403840 0.078090 0.935760 -0.041742
N21   N     N_R   0.903840 0.421910 0.935760 -0.041758
N22   N     N_R   0.096160 0.578090 0.064240 -0.041739
N23   N     N_R   0.096160 0.421910 0.064240 -0.045533
N24   N     N_R   0.903840 0.578090 0.935760 -0.045528
N25   N     N_R   0.426250 0.076100 0.213650 -0.043354
N26   N     N_R   0.573750 0.923900 0.786350 -0.043342
N27   N     N_R   0.573750 0.076100 0.786350 -0.038682
N28   N     N_R   0.426250 0.923900 0.213650 -0.038719
N29   N     N_R   0.926250 0.576100 0.213650 -0.038691
N30   N     N_R   0.073750 0.423900 0.786350 -0.038709
N31   N     N_R   0.073750 0.576100 0.786350 -0.043334
N32   N     N_R   0.926250 0.423900 0.213650 -0.043356
Ni1   Ni    Ni4+2 0.500000 0.131570 0.000000 0.218387
Ni2   Ni    Ni4+2 0.500000 0.868430 0.000000 0.218385
Ni3   Ni    Ni4+2 0.000000 0.631570 0.000000 0.218400
Ni4   Ni    Ni4+2 0.000000 0.368430 0.000000 0.218371
Ni5   Ni    Ni4+2 0.488900 0.000000 0.862310 0.214392
Ni6   Ni    Ni4+2 0.511100 0.000000 0.137690 0.214430
Ni7   Ni    Ni4+2 0.988900 0.500000 0.862310 0.214438
Ni8   Ni    Ni4+2 0.011100 0.500000 0.137690 0.214388
C89   C     C_1   0.288389 0.224949 0.604325 0.014968
N33   N     N_1   0.323108 0.225610 0.642429 -0.089840
C90   C     C_1   0.711194 0.774163 0.396259 0.015256
N34   N     N_1   0.676290 0.773136 0.358406 -0.089560
C91   C     C_1   0.626589 0.278318 0.412765 0.024812
N35   N     N_1   0.594705 0.279647 0.370986 -0.080381
C92   C     C_1   0.375382 0.718339 0.584640 0.025823
N36   N     N_1   0.408012 0.715618 0.625411 -0.080025
C93   C     C_1   0.874604 0.780310 0.585674 0.025505
N37   N     N_1   0.906945 0.782472 0.626844 -0.080058
C94   C     C_1   0.125901 0.220549 0.413659 0.025079
N38   N     N_1   0.093753 0.218748 0.372230 -0.080344
C95   C     C_1   0.210557 0.727192 0.397170 0.015661
N39   N     N_1   0.175365 0.728783 0.359717 -0.089334
C96   C     C_1   0.787807 0.276188 0.605124 0.014628
N40   N     N_1   0.822270 0.276002 0.643572 -0.090032
C97   C     C_1   0.322409 0.688758 0.972334 0.064003
N41   N     N_1   0.388051 0.660308 0.932737 -0.091899
C98   C     C_1   0.677545 0.311204 0.027848 0.064402
N42   N     N_1   0.611869 0.339622 0.067578 -0.091875
C99   C     C_1   0.641552 0.663695 0.090050 0.049633
N43   N     N_1   0.576160 0.635743 0.127021 -0.100422
C100  C     C_1   0.358550 0.336215 0.909609 0.049596
N44   N     N_1   0.424020 0.364100 0.872384 -0.100079
C101  C     C_1   0.858501 0.163732 0.909770 0.049542
N45   N     N_1   0.923934 0.135810 0.872657 -0.100190
C102  C     C_1   0.141545 0.836294 0.090074 0.049596
N46   N     N_1   0.076146 0.864240 0.127068 -0.100270
C103  C     C_1   0.177479 0.188843 0.028034 0.064349
N47   N     N_1   0.111767 0.160463 0.067873 -0.091855
C104  C     C_1   0.822413 0.811229 0.972298 0.064167
N48   N     N_1   0.888064 0.839669 0.932665 -0.091888

loop_
_geom_bond_atom_site_label_1
_geom_bond_atom_site_label_2
_ccdc_geom_bond_type
N2    N19   A    
C68   C80   S    
C102  N46   T    
C14   C94   S    
C41   N25   A    
C36   H20   S    
N13   Ni4   S    
C101  N45   T    
C17   C97   S    
C8    H8    S    
C7    C55   A    
N6    N23   A    
C72   C76   S    
C75   C83   S    
C16   C72   S    
C76   C84   S    
C47   C62   A    
C7    N7    A    
N16   N29   A    
C65   C82   S    
C77   H37   S    
C40   H24   S    
N26   Ni5   S    
C103  N47   T    
C33   C52   A    
C12   C68   S    
C27   H11   S    
C34   C51   A    
C22   C102  S    
C4    C52   A    
C75   H35   S    
N12   N25   A    
N17   Ni5   S    
N31   Ni7   S    
C45   C64   A    
C35   N19   A    
C11   C76   S    
C71   H47   S    
C10   C73   S    
C33   N17   A    
C68   C83   S    
C23   C49   S    
C39   C54   A    
N2    Ni2   S    
C18   C21   D    
C13   C81   S    
N5    Ni3   S    
C47   N31   A    
C46   H30   S    
C3    H3    S    
C1    C49   A    
C14   C77   S    
C37   N21   A    
C2    H2    S    
N15   N30   A    
N22   Ni8   S    
C2    C50   A    
C43   C58   A    
C9    C85   S    
N9    Ni2   S    
C37   C56   A    
C60   C82   S    
C42   H26   S    
C38   C55   A    
N14   Ni3   S    
C11   C87   S    
C6    H6    S    
C11   C91   S    
C70   C74   S    
C1    H1    S    
C57   C83   S    
N28   Ni6   S    
C6    N6    A    
C61   C87   S    
C17   C55   S    
C37   H21   S    
C97   N41   T    
N11   Ni2   S    
C18   C56   S    
N4    N17   A    
C43   H27   S    
C19   C53   S    
C39   H23   S    
C15   C95   S    
C77   C85   S    
C67   C84   S    
C23   C103  S    
C14   C70   S    
C20   C54   S    
C8    C56   A    
C99   N43   T    
N13   N32   A    
C25   C57   A    
C6    C54   A    
C79   C87   S    
C11   C67   S    
C10   C66   S    
C24   C50   S    
C66   C78   S    
C29   C61   A    
N20   Ni5   S    
C64   C86   S    
C19   C99   S    
C12   C88   S    
C104  N48   T    
C34   H18   S    
C21   C101  S    
C72   H48   S    
C67   C79   S    
C32   C64   A    
C48   H32   S    
N16   Ni3   S    
C3    C51   A    
C15   C83   S    
C80   H40   S    
N3    N18   A    
C26   N10   A    
C13   C93   S    
C91   N35   T    
C62   C88   S    
N21   Ni7   S    
C16   C84   S    
N15   Ni4   S    
C96   N40   T    
N1    N20   A    
N29   Ni8   S    
C68   H44   S    
C2    N2    A    
C92   N36   T    
C20   C100  S    
C16   C96   S    
C58   C84   S    
C65   H41   S    
C4    N4    A    
C65   C77   S    
C31   N15   A    
N5    N24   A    
C5    N5    A    
C15   C80   S    
C32   N16   A    
C20   C23   D    
C44   C57   A    
C30   H14   S    
C35   C50   A    
C32   H16   S    
N12   Ni1   S    
N30   Ni7   S    
C29   H13   S    
C8    N8    A    
C69   C73   S    
C71   C88   S    
C26   C58   A    
C38   N22   A    
C28   C60   A    
C73   C81   S    
N19   Ni6   S    
C25   H9    S    
C74   H34   S    
C26   H10   S    
C40   C53   A    
C34   N18   A    
C73   H33   S    
N23   Ni8   S    
C30   C62   A    
N24   Ni7   S    
N10   Ni1   S    
C38   H22   S    
C9    C74   S    
C10   C90   S    
C78   H38   S    
C21   C51   S    
C72   C87   S    
C1    N1    A    
C36   N20   A    
N7    N22   A    
N6    Ni4   S    
C74   C82   S    
C45   H29   S    
N32   Ni8   S    
C79   H39   S    
C13   C78   S    
C10   C86   S    
C69   H45   S    
C46   N30   A    
C30   N14   A    
C39   N23   A    
C18   C98   S    
C28   N12   A    
N1    Ni1   S    
C40   N24   A    
C67   H43   S    
C59   C81   S    
C41   C60   A    
C41   H25   S    
N11   N26   A    
C42   C59   A    
C5    H5    S    
C7    H7    S    
C42   N26   A    
N4    Ni2   S    
N9    N28   A    
C90   N34   T    
C31   C63   A    
C15   C71   S    
N10   N27   A    
N8    Ni4   S    
C24   C104  S    
C17   C22   D    
C69   C86   S    
C33   H17   S    
C46   C63   A    
C16   C79   S    
C19   C24   D    
C5    C53   A    
N7    Ni3   S    
C94   N38   T    
C80   C88   S    
C27   C59   A    
C66   C81   S    
C71   C75   S    
N25   Ni6   S    
C28   H12   S    
C93   N37   T    
C13   C69   S    
N14   N31   A    
C47   H31   S    
N3    Ni1   S    
C22   C52   S    
C95   N39   T    
C9    C65   S    
C35   H19   S    
C89   N33   T    
C76   H36   S    
C29   N13   A    
C98   N42   T    
C12   C92   S    
C43   N27   A    
C100  N44   T    
N18   Ni6   S    
C3    N3    A    
C44   H28   S    
C27   N11   A    
C78   C86   S    
C12   C75   S    
C48   C61   A    
C70   H46   S    
C14   C82   S    
C25   N9    A    
C44   N28   A    
C4    H4    S    
N8    N21   A    
C70   C85   S    
C45   N29   A    
C48   N32   A    
C63   C85   S    
C36   C49   A    
C9    C89   S    
C31   H15   S    
C66   H42   S    
N27   Ni5   S    
