data_mof_unit_32727.cif
_audit_creation_date              2012-12-10T20:33:26-0500
_audit_creation_method            fapswitch 2.2
_symmetry_space_group_name_H-M    P1
_symmetry_Int_Tables_number       1
_space_group_crystal_system       triclinic
_cell_length_a                    14.140339
_cell_length_b                    10.60195
_cell_length_c                    9.911892
_cell_angle_alpha                 89.261059
_cell_angle_beta                  90.821529
_cell_angle_gamma                 90.37301
_cell_volume                      1485.63690397

loop_
_atom_site_label
_atom_site_type_symbol
_atom_type_description
_atom_site_fract_x
_atom_site_fract_y
_atom_site_fract_z
_atom_type_partial_charge
C1    C     C_R   0.500515 0.260516 0.500535 0.846778
C2    C     C_1   0.772210 0.498680 0.501699 -0.231098
C3    C     C_R   0.583256 0.064658 0.533273 0.041874
C4    C     C_R   0.500804 0.128675 0.498785 -0.080685
C5    C     C_R   0.424343 0.065671 0.438256 -0.216187
C6    C     C_R   0.424706 0.935163 0.435980 -0.206709
C7    C     C_R   0.501422 0.871338 0.494600 -0.061795
C8    C     C_R   0.583063 0.935822 0.532543 0.055594
C9    C     C_3   0.644036 0.925614 0.656381 -0.467775
C10   C     C_3   0.644894 0.069762 0.657075 -0.059734
C11   C     C_R   0.417542 0.487984 0.069719 0.159357
C12   C     C_R   0.329250 0.499834 0.499327 0.877733
C13   C     C_R   0.579198 0.530272 0.073906 -0.247938
C14   C     C_R   0.580249 0.528956 0.929744 0.491480
C15   C     C_R   0.418228 0.483490 0.928678 0.073175
C16   C     C_3   0.346633 0.377837 0.928491 -0.167655
C17   C     C_3   0.343349 0.388258 0.082812 0.293141
C18   C     C_R   0.500348 0.739483 0.499031 0.873281
C19   C     C_R   0.670745 0.499786 0.500711 0.880726
C20   C     C_1   0.227765 0.499561 0.498575 -0.202024
C21   C     C_1   0.142492 0.499122 0.499458 -0.038641
C22   C     C_1   0.042606 0.498312 0.500327 -0.007125
C23   C     C_1   0.957344 0.497867 0.500843 0.004669
C24   C     C_1   0.857470 0.497949 0.501337 -0.026247
H1    H     H_    0.363523 0.116771 0.398993 0.132472
H2    H     H_    0.369369 0.306765 0.144474 0.091385
H3    H     H_    0.363976 0.884479 0.395746 0.148028
H4    H     H_    0.606043 0.883032 0.743419 0.209873
H5    H     H_    0.713364 0.881815 0.634881 0.202901
H6    H     H_    0.608483 0.110516 0.744319 0.174018
H7    H     H_    0.642393 0.556346 0.129855 0.172169
H8    H     H_    0.279871 0.408572 0.877646 0.165365
N1    N     N_R   0.499420 0.499140 0.142800 -0.144847
N2    N     N_R   0.499420 0.499180 0.857150 -0.130928
O1    O     O_R   0.500010 0.316790 0.614690 -0.627387
O2    O     O_R   0.500000 0.316760 0.385350 -0.616714
O3    O     O_R   0.373720 0.500020 0.614700 -0.604552
O4    O     O_R   0.373710 0.499980 0.385350 -0.571035
O5    O     O_R   0.500000 0.683240 0.614650 -0.592797
O6    O     O_R   0.499990 0.683210 0.385310 -0.602431
O7    O     O_R   0.626290 0.500020 0.614650 -0.557409
O8    O     O_R   0.626280 0.499980 0.385300 -0.604877
Zn1   Zn    Zn3+2 0.500010 0.500020 0.653130 0.961001
Zn2   Zn    Zn3+2 0.499990 0.499980 0.346870 0.949135
C25   C     C_3   0.378354 0.246873 0.880090 -0.393968
C26   C     C_3   0.476431 0.203598 0.928946 -0.844340
H9    H     H_    0.532946 0.261688 0.882589 0.256474
H10   H     H_    0.484242 0.207098 0.040158 0.243506
H11   H     H_    0.486403 0.104106 0.899062 0.240737
H12   H     H_    0.325782 0.175864 0.915120 0.191773
H13   H     H_    0.375109 0.245745 0.768428 0.242397
O9    O     O_3   0.258039 0.442301 0.126590 -0.631566
C27   C     C_3   0.192731 0.347942 0.167489 0.112599
H14   H     H_    0.146421 0.390744 0.243515 0.182231
H15   H     H_    0.226587 0.265169 0.218589 0.103270
C28   C     C_3   0.130143 0.305686 0.048709 -0.380495
H16   H     H_    0.101458 0.389991 0.994945 0.240670
H17   H     H_    0.172540 0.251051 0.976907 0.206976
C29   C     C_3   0.048169 0.222859 0.096350 -0.959427
H18   H     H_    0.075441 0.137341 0.149431 0.266824
H19   H     H_    0.004786 0.192971 0.007957 0.269996
H20   H     H_    0.002430 0.276035 0.165574 0.264117
C30   C     C_3   0.741550 0.130795 0.628866 -0.356510
C31   C     C_3   0.806550 0.123100 0.752885 -0.884691
H21   H     H_    0.875618 0.168061 0.729559 0.247691
H22   H     H_    0.774659 0.173060 0.838750 0.249493
H23   H     H_    0.819167 0.023173 0.782460 0.269725
H24   H     H_    0.776220 0.084589 0.542571 0.217163
H25   H     H_    0.730848 0.231740 0.601642 0.196709
O10   O     O_3   0.659984 0.570048 0.863003 -0.619058
C32   C     C_3   0.735261 0.484372 0.884593 0.067508
H26   H     H_    0.728465 0.406409 0.811068 0.167679
H27   H     H_    0.737583 0.441676 0.987919 0.106451
C33   C     C_3   0.828618 0.554530 0.862721 -0.305606
H28   H     H_    0.827207 0.602840 0.762663 0.236589
H29   H     H_    0.837550 0.627662 0.941331 0.216721
C34   C     C_3   0.912579 0.465066 0.870276 -0.971008
H30   H     H_    0.916076 0.417750 0.970784 0.272172
H31   H     H_    0.979079 0.519212 0.854622 0.268132
H32   H     H_    0.906176 0.392699 0.790690 0.271498

loop_
_geom_bond_atom_site_label_1
_geom_bond_atom_site_label_2
_ccdc_geom_bond_type
C14   O10   S    
C10   C30   S    
C7    C8    A    
C34   H30   S    
O4    Zn2   S    
C26   H11   S    
C33   H29   S    
C17   H2    S    
C5    C6    A    
C27   C28   S    
C25   H13   S    
C15   C16   S    
C28   H16   S    
C12   O3    A    
C18   O6    A    
C30   H24   S    
C11   C15   A    
C30   H25   S    
C8    C9    S    
C33   C34   S    
C23   C24   S    
O10   C32   S    
O1    Zn1   S    
C9    C10   S    
C15   N2    A    
C19   O8    A    
C9    H5    S    
C34   H31   S    
C29   H18   S    
C21   C22   S    
O7    Zn1   S    
O8    Zn2   S    
C17   O9    S    
C27   H15   S    
C26   H10   S    
C29   H19   S    
C33   H28   S    
C31   H23   S    
C11   N1    A    
C3    C8    A    
C32   H27   S    
C16   C17   S    
O5    Zn1   S    
C25   C26   S    
C31   H22   S    
O3    Zn1   S    
C18   O5    A    
C13   N1    A    
C10   H6    S    
C6    H3    S    
C7    C18   S    
C12   C20   S    
C5    H1    S    
C2    C24   T    
O2    Zn2   S    
C3    C4    A    
O9    C27   S    
C1    O1    A    
C34   H32   S    
C26   H9    S    
C11   C17   S    
C29   H20   S    
C2    C19   S    
N1    Zn2   S    
C13   H7    S    
N2    Zn1   S    
C4    C5    A    
C16   C25   S    
C14   N2    A    
C32   C33   S    
C27   H14   S    
C6    C7    A    
C16   H8    S    
C28   C29   S    
C1    C4    S    
C31   H21   S    
C32   H26   S    
C3    C10   S    
C25   H12   S    
C28   H17   S    
C12   O4    A    
C30   C31   S    
O6    Zn2   S    
C20   C21   T    
C9    H4    S    
C22   C23   T    
C13   C14   A    
C19   O7    A    
C1    O2    A    
