data_mof_unit_21922.cif
_audit_creation_date              2012-12-11T14:56:01-0500
_audit_creation_method            fapswitch 2.2
_symmetry_space_group_name_H-M    P1
_symmetry_Int_Tables_number       1
_space_group_crystal_system       triclinic
_cell_length_a                    27.979493
_cell_length_b                    17.281818
_cell_length_c                    18.022282
_cell_angle_alpha                 90.131191
_cell_angle_beta                  138.091199
_cell_angle_gamma                 89.931637
_cell_volume                      5820.76020083

loop_
_atom_site_label
_atom_site_type_symbol
_atom_type_description
_atom_site_fract_x
_atom_site_fract_y
_atom_site_fract_z
_atom_type_partial_charge
C1    C     C_R   0.668169 0.922664 0.817588 -0.125091
C2    C     C_3   0.254714 0.652592 0.047858 -0.169833
C3    C     C_3   0.665779 0.777855 0.980551 -0.150367
C4    C     C_3   0.164048 0.726124 0.977102 -0.152858
C5    C     C_3   0.835952 0.273876 0.022898 -0.152859
C6    C     C_3   0.791575 0.772137 0.053893 -0.151352
C7    C     C_3   0.208425 0.227864 0.946108 -0.151352
C8    C     C_3   0.235861 0.700565 0.096188 -0.143745
C9    C     C_3   0.764139 0.299435 0.903812 -0.143745
C10   C     C_3   0.719388 0.746756 0.938291 -0.137132
C11   C     C_3   0.280612 0.253244 0.061710 -0.137131
C12   C     C_3   0.778963 0.250244 0.061023 -0.135154
C13   C     C_3   0.299971 0.296276 0.012365 -0.170062
C14   C     C_3   0.221037 0.749756 0.938976 -0.135154
C15   C     C_3   0.260767 0.197485 0.901382 -0.144525
C16   C     C_3   0.739232 0.802514 0.098617 -0.144526
C17   C     C_3   0.271981 0.770619 0.101891 0.183449
C18   C     C_3   0.728019 0.229381 0.898109 0.183449
C19   C     C_3   0.685855 0.820285 0.932259 0.184363
C20   C     C_3   0.314145 0.179715 0.067740 0.184363
C21   C     C_3   0.815732 0.320722 0.068566 0.184218
C22   C     C_3   0.184268 0.679278 0.931434 0.184218
C23   C     C_3   0.227851 0.270629 0.897135 0.183460
C24   C     C_3   0.700029 0.703724 0.987634 -0.170062
C25   C     C_3   0.772149 0.729371 0.102865 0.183460
C26   C     C_3   0.201490 0.797138 0.985619 -0.169491
C27   C     C_3   0.798510 0.202862 0.014380 -0.169491
C28   C     C_3   0.757933 0.846066 0.047681 -0.170580
C29   C     C_3   0.242066 0.153934 0.952319 -0.170579
C30   C     C_R   0.612138 0.851730 0.356755 0.131159
C31   C     C_R   0.387862 0.148270 0.643245 0.131159
C32   C     C_R   0.284120 0.755375 0.380204 0.124122
C33   C     C_R   0.331831 0.077336 0.182412 -0.125090
C34   C     C_R   0.715880 0.244625 0.619796 0.124122
C35   C     C_R   0.216056 0.255465 0.620297 0.125128
C36   C     C_R   0.783943 0.744535 0.379703 0.125128
C37   C     C_R   0.887640 0.352075 0.642845 0.131262
C38   C     C_R   0.112360 0.647925 0.357155 0.131262
C39   C     C_R   0.394768 0.251132 0.742473 -0.235204
C40   C     C_R   0.605232 0.748868 0.257527 -0.235203
C41   C     C_R   0.737853 0.374179 0.599133 -0.230782
C42   C     C_R   0.262146 0.625821 0.400867 -0.230782
C43   C     C_R   0.761727 0.874183 0.400149 -0.230794
C44   C     C_R   0.312313 0.898992 0.196563 -0.137705
C45   C     C_R   0.238273 0.125816 0.599851 -0.230794
C46   C     C_R   0.105451 0.750669 0.258244 -0.235052
C47   C     C_R   0.894549 0.249331 0.741756 -0.235052
C48   C     C_R   0.423325 0.213126 0.714306 -0.173423
C49   C     C_R   0.576674 0.786874 0.285694 -0.173423
C50   C     C_R   0.694007 0.322055 0.585278 -0.191289
C51   C     C_R   0.305993 0.677945 0.414722 -0.191289
C52   C     C_R   0.805711 0.822061 0.414197 -0.191832
C53   C     C_R   0.194289 0.177939 0.585803 -0.191832
C54   C     C_R   0.076835 0.712606 0.286143 -0.173748
C55   C     C_R   0.687687 0.101008 0.803437 -0.137705
C56   C     C_R   0.923165 0.287394 0.713857 -0.173748
C57   C     C_R   0.334284 0.111933 0.622824 -0.281956
C58   C     C_R   0.665715 0.888067 0.377176 -0.281956
C59   C     C_R   0.787109 0.224615 0.687664 -0.290971
C60   C     C_R   0.212891 0.775385 0.312335 -0.290971
C61   C     C_R   0.712693 0.724380 0.311583 -0.289645
C62   C     C_R   0.287307 0.275620 0.688417 -0.289645
C63   C     C_R   0.166133 0.611785 0.377833 -0.281988
C64   C     C_R   0.833867 0.388215 0.622167 -0.281989
C65   C     C_R   0.303079 0.151727 0.645569 0.192233
C66   C     C_R   0.187843 0.398818 0.802725 -0.137466
C67   C     C_R   0.696921 0.848273 0.354431 0.192233
C68   C     C_R   0.830010 0.275325 0.697102 0.193624
C69   C     C_R   0.169990 0.724675 0.302897 0.193624
C70   C     C_R   0.669694 0.775052 0.302087 0.193255
C71   C     C_R   0.330306 0.224948 0.697913 0.193255
C72   C     C_R   0.197324 0.651596 0.355211 0.192267
C73   C     C_R   0.802675 0.348404 0.644789 0.192267
C74   C     C_R   0.360566 0.070836 0.492785 -0.130701
C75   C     C_R   0.639433 0.929164 0.507215 -0.130700
C76   C     C_R   0.674680 0.104632 0.595122 -0.147281
C77   C     C_R   0.812157 0.601182 0.197274 -0.137466
C78   C     C_R   0.325319 0.895368 0.404878 -0.147281
C79   C     C_R   0.825302 0.604559 0.404862 -0.146078
C80   C     C_R   0.174697 0.395441 0.595138 -0.146078
C81   C     C_R   0.139429 0.570658 0.507196 -0.131599
C82   C     C_R   0.860571 0.429341 0.492804 -0.131598
C83   C     C_R   0.408651 0.803271 0.495831 -0.141645
C84   C     C_R   0.591349 0.196729 0.504169 -0.141645
C85   C     C_R   0.557253 0.834526 0.420652 -0.134786
C86   C     C_R   0.442747 0.165474 0.579348 -0.134786
C87   C     C_R   0.942752 0.334760 0.579294 -0.136398
C88   C     C_R   0.833227 0.423400 0.182840 -0.126338
C89   C     C_R   0.057248 0.665240 0.420706 -0.136398
C90   C     C_R   0.091421 0.303221 0.504270 -0.140379
C91   C     C_R   0.908579 0.696779 0.495730 -0.140379
C92   C     C_R   0.605026 0.193530 0.714253 -0.158672
C93   C     C_R   0.394974 0.806470 0.285747 -0.158672
C94   C     C_R   0.416719 0.168631 0.272658 -0.143931
C95   C     C_R   0.583281 0.831368 0.727342 -0.143931
C96   C     C_R   0.082174 0.668293 0.726600 -0.142523
C97   C     C_R   0.917826 0.331707 0.273400 -0.142523
C98   C     C_R   0.894911 0.693625 0.286453 -0.159005
C99   C     C_R   0.166773 0.576600 0.817160 -0.126339
C100  C     C_R   0.105089 0.306375 0.713547 -0.159006
C101  C     C_R   0.641871 0.863286 0.830242 0.031040
C102  C     C_R   0.358128 0.136714 0.169758 0.031039
C103  C     C_R   0.324440 0.823452 0.192171 0.043026
C104  C     C_R   0.675560 0.176548 0.807828 0.043026
C105  C     C_R   0.175769 0.323190 0.806600 0.043183
C106  C     C_R   0.824231 0.676810 0.193400 0.043182
C107  C     C_R   0.860076 0.364219 0.170554 0.030949
C108  C     C_R   0.139924 0.635781 0.829445 0.030949
C109  C     C_R   0.397170 0.127952 0.575323 0.062109
C110  C     C_3   0.745286 0.347407 0.952142 -0.169832
C111  C     C_R   0.602830 0.872048 0.424676 0.062108
C112  C     C_R   0.662524 0.183677 0.571645 0.074196
C113  C     C_R   0.337476 0.816323 0.428355 0.074196
C114  C     C_R   0.837395 0.683663 0.428190 0.074172
C115  C     C_R   0.162605 0.316337 0.571810 0.074172
C116  C     C_R   0.102878 0.627650 0.424785 0.062212
C117  C     C_R   0.897122 0.372350 0.575215 0.062212
C118  C     C_3   0.708405 0.276499 0.944407 -0.153559
C119  C     C_3   0.291595 0.723500 0.055593 -0.153559
C120  C     C_3   0.334221 0.222144 0.019447 -0.150366
H1    H     H_    0.716742 0.955156 0.882635 0.091609
H2    H     H_    0.217785 0.068766 0.562801 0.126750
H3    H     H_    0.082115 0.805074 0.213845 0.124286
H4    H     H_    0.917885 0.194926 0.786155 0.124286
H5    H     H_    0.418017 0.305664 0.786883 0.124259
H6    H     H_    0.581983 0.694335 0.213117 0.124259
H7    H     H_    0.717280 0.431128 0.562107 0.126736
H8    H     H_    0.282719 0.568872 0.437893 0.126736
H9    H     H_    0.321337 0.030850 0.468661 0.099730
H10   H     H_    0.678663 0.969150 0.531339 0.099729
H11   H     H_    0.726389 0.077045 0.658704 0.087191
H12   H     H_    0.283258 0.044844 0.117365 0.091609
H13   H     H_    0.273610 0.922955 0.341296 0.087191
H14   H     H_    0.773623 0.576813 0.341269 0.086875
H15   H     H_    0.226377 0.423187 0.658731 0.086875
H16   H     H_    0.178643 0.530650 0.531238 0.099892
H17   H     H_    0.821357 0.469350 0.468762 0.099892
H18   H     H_    0.434198 0.748076 0.516241 0.081824
H19   H     H_    0.565802 0.251924 0.483759 0.081824
H20   H     H_    0.520858 0.787942 0.366336 0.092739
H21   H     H_    0.479142 0.212058 0.633664 0.092739
H22   H     H_    0.979143 0.288276 0.633542 0.092417
H23   H     H_    0.260826 0.926604 0.143805 0.083614
H24   H     H_    0.020857 0.711724 0.366458 0.092417
H25   H     H_    0.065930 0.248001 0.483958 0.081925
H26   H     H_    0.934070 0.751999 0.516042 0.081925
H27   H     H_    0.655391 0.276379 0.911005 0.108360
H28   H     H_    0.344609 0.723620 0.088995 0.108360
H29   H     H_    0.386830 0.218062 0.051924 0.114848
H30   H     H_    0.613170 0.781937 0.948074 0.114848
H31   H     H_    0.110720 0.725463 0.942582 0.114491
H32   H     H_    0.889280 0.274537 0.057417 0.114491
H33   H     H_    0.843863 0.768614 0.085205 0.109016
H34   H     H_    0.739174 0.073396 0.856194 0.083614
H35   H     H_    0.156137 0.231387 0.914797 0.109016
H36   H     H_    0.724679 0.407630 0.928451 0.106767
H37   H     H_    0.275320 0.592370 0.071549 0.106767
H38   H     H_    0.323001 0.355409 0.036009 0.103903
H39   H     H_    0.677001 0.644590 0.963990 0.103903
H40   H     H_    0.180436 0.857179 0.961042 0.104028
H41   H     H_    0.819564 0.142821 0.038957 0.104028
H42   H     H_    0.780606 0.905348 0.070705 0.105933
H43   H     H_    0.219393 0.094652 0.929295 0.105932
H44   H     H_    0.690508 0.940916 0.425350 0.118979
H45   H     H_    0.239278 0.426631 0.855544 0.083365
H46   H     H_    0.309492 0.059084 0.574650 0.118979
H47   H     H_    0.193739 0.833434 0.279951 0.116622
H48   H     H_    0.806261 0.166565 0.720049 0.116622
H49   H     H_    0.306387 0.333751 0.720843 0.116225
H50   H     H_    0.693613 0.666248 0.279157 0.116225
H51   H     H_    0.808986 0.440919 0.573983 0.118968
H52   H     H_    0.191014 0.559081 0.426017 0.118968
H53   H     H_    0.531323 0.760562 0.260507 0.111771
H54   H     H_    0.468677 0.239438 0.739493 0.111771
H55   H     H_    0.359055 0.658598 0.461433 0.114203
H56   H     H_    0.760722 0.573369 0.144456 0.083365
H57   H     H_    0.640945 0.341402 0.538567 0.114203
H58   H     H_    0.141205 0.158512 0.538913 0.114126
H59   H     H_    0.858795 0.841488 0.461087 0.114126
H60   H     H_    0.968653 0.261251 0.739250 0.111725
H61   H     H_    0.031347 0.738749 0.260750 0.111725
H62   H     H_    0.581051 0.250486 0.686369 0.091920
H63   H     H_    0.418949 0.749514 0.313631 0.091920
H64   H     H_    0.446777 0.219253 0.290943 0.102613
H65   H     H_    0.553223 0.780747 0.709056 0.102613
H66   H     H_    0.052584 0.719460 0.708279 0.102537
H67   H     H_    0.784906 0.456028 0.117447 0.092945
H68   H     H_    0.947416 0.280540 0.291721 0.102538
H69   H     H_    0.919303 0.750406 0.314050 0.091957
H70   H     H_    0.080697 0.249594 0.685950 0.091957
H71   H     H_    0.243583 0.682491 0.163643 0.123904
H72   H     H_    0.756416 0.317509 0.836357 0.123904
H73   H     H_    0.710780 0.724514 0.871152 0.113137
H74   H     H_    0.289221 0.275487 0.128849 0.113137
H75   H     H_    0.785538 0.230675 0.126899 0.113466
H76   H     H_    0.214462 0.769324 0.873101 0.113466
H77   H     H_    0.251068 0.176745 0.832693 0.123029
H78   H     H_    0.215094 0.543972 0.882553 0.092945
H79   H     H_    0.748931 0.823253 0.167306 0.123030
H80   H     H_    0.782215 0.931234 0.437199 0.126750
N1    N     N_R   0.625380 0.928280 0.709340 -0.040575
N2    N     N_R   0.613900 0.929750 0.547530 -0.042450
N3    N     N_R   0.613900 0.070250 0.547530 -0.036810
N4    N     N_R   0.386100 0.929750 0.452470 -0.036810
N5    N     N_R   0.886100 0.570250 0.452470 -0.036423
N6    N     N_R   0.113900 0.429750 0.547530 -0.036423
N7    N     N_R   0.113900 0.570250 0.547530 -0.042717
N8    N     N_R   0.886100 0.429750 0.452470 -0.042717
N9    N     N_R   0.437800 0.869550 0.507970 -0.035784
N10   N     N_R   0.562200 0.130450 0.492030 -0.035784
N11   N     N_R   0.562200 0.869550 0.492030 -0.042931
N12   N     N_R   0.374620 0.071720 0.290660 -0.040575
N13   N     N_R   0.437800 0.130450 0.507970 -0.042931
N14   N     N_R   0.937800 0.369550 0.507970 -0.042962
N15   N     N_R   0.062200 0.630450 0.492030 -0.042962
N16   N     N_R   0.062200 0.369550 0.492030 -0.035562
N17   N     N_R   0.937800 0.630450 0.507970 -0.035563
N18   N     N_R   0.573690 0.128980 0.653840 -0.033314
N19   N     N_R   0.426310 0.871020 0.346160 -0.033314
N20   N     N_R   0.426310 0.128980 0.346160 -0.041427
N21   N     N_R   0.573690 0.871020 0.653840 -0.041426
N22   N     N_R   0.073690 0.628980 0.653840 -0.041775
N23   N     N_R   0.374620 0.928280 0.290660 -0.032391
N24   N     N_R   0.926310 0.371020 0.346160 -0.041775
N25   N     N_R   0.926310 0.628980 0.346160 -0.033246
N26   N     N_R   0.073690 0.371020 0.653840 -0.033246
N27   N     N_R   0.625380 0.071720 0.709340 -0.032391
N28   N     N_R   0.125380 0.428280 0.709340 -0.032289
N29   N     N_R   0.874620 0.571720 0.290660 -0.032289
N30   N     N_R   0.874620 0.428280 0.290660 -0.041164
N31   N     N_R   0.125380 0.571720 0.709340 -0.041164
N32   N     N_R   0.386100 0.070250 0.452470 -0.042450
Ni1   Ni    Ni4+2 0.616560 1.000000 0.627280 0.212486
Ni2   Ni    Ni4+2 0.383440 0.000000 0.372720 0.212486
Ni3   Ni    Ni4+2 0.116560 0.500000 0.627280 0.212344
Ni4   Ni    Ni4+2 0.883440 0.500000 0.372720 0.212344
Ni5   Ni    Ni4+2 0.497990 0.870580 0.500000 0.206994
Ni6   Ni    Ni4+2 0.502010 0.129420 0.500000 0.206994
Ni7   Ni    Ni4+2 0.997990 0.370580 0.500000 0.206824
Ni8   Ni    Ni4+2 0.002010 0.629420 0.500000 0.206824

loop_
_geom_bond_atom_site_label_1
_geom_bond_atom_site_label_2
_ccdc_geom_bond_type
C61   C70   A    
C16   C28   S    
C97   H68   S    
C80   N6    A    
C39   H5    S    
C3    C16   S    
C35   C53   A    
C34   C112  S    
C83   C113  A    
C88   N30   A    
C11   H74   S    
N1    N21   A    
N2    N11   A    
C4    C8    S    
C36   C114  S    
C53   H58   S    
C93   C103  A    
C74   C109  A    
C90   N16   A    
C21   C110  S    
C63   H52   S    
C24   H39   S    
N7    Ni3   S    
C22   C108  S    
N18   N27   A    
C7    C11   S    
C99   C108  A    
N5    N17   A    
C120  H29   S    
C95   N21   A    
C80   H15   S    
C40   C70   A    
C7    C29   S    
C17   C26   S    
N10   Ni6   S    
C77   C106  A    
N9    Ni5   S    
C87   C117  A    
C82   H17   S    
C44   H23   S    
C47   C56   A    
C15   H77   S    
C76   H11   S    
C84   N10   A    
C43   C52   A    
C6    C25   S    
C20   C102  S    
C8    H71   S    
C14   H76   S    
C40   C49   A    
C23   C105  S    
C16   C25   S    
C4    C22   S    
C15   C120  S    
C13   C23   S    
C74   H9    S    
C55   N27   A    
C62   H49   S    
C19   C101  S    
C41   H7    S    
C46   C69   A    
N4    Ni2   S    
C5    C27   S    
C37   C56   A    
N1    Ni1   S    
C44   C103  A    
C88   H67   S    
C6    C28   S    
C84   H19   S    
N28   Ni3   S    
N4    N9    A    
C2    C22   S    
C55   H34   S    
C64   C73   A    
N11   Ni5   S    
N3    N10   A    
C35   C115  S    
C43   H80   S    
C32   C113  S    
C9    H72   S    
N7    N15   A    
C18   C118  S    
C36   C52   A    
C75   H10   S    
C42   H8    S    
C42   C51   A    
C89   N15   A    
C98   N25   A    
C15   C23   S    
C96   C108  A    
C89   C116  A    
C1    N1    A    
C110  C118  S    
C3    C24   S    
C78   N4    A    
C94   H64   S    
C98   H69   S    
C85   N11   A    
C82   N8    A    
N24   Ni7   S    
C75   N2    A    
C25   C106  S    
C15   C29   S    
C48   H54   S    
C20   C29   S    
C4    C26   S    
N27   Ni1   S    
C100  H70   S    
C11   C20   S    
C34   C50   A    
C60   H47   S    
C12   C27   S    
C28   H42   S    
C33   C102  A    
C96   H66   S    
C93   H63   S    
C50   H57   S    
N13   N32   A    
C24   C25   S    
C74   N32   A    
N13   Ni6   S    
N18   Ni6   S    
C10   H73   S    
C88   C107  A    
C92   C104  A    
C49   H53   S    
C18   C104  S    
C57   H46   S    
N12   N20   A    
C10   C24   S    
C119  H28   S    
C65   C71   A    
C81   C116  A    
C41   C73   A    
C55   C104  A    
C45   C53   A    
N25   N29   A    
C92   N18   A    
N21   Ni5   S    
N6    Ni3   S    
C97   C107  A    
C41   C50   A    
C91   N17   A    
C69   C72   A    
C51   H55   S    
C29   H43   S    
C77   N29   A    
C32   C51   A    
C5    C9    S    
N23   Ni2   S    
N24   N30   A    
C59   C68   A    
C38   C116  S    
C9    C18   S    
N12   Ni2   S    
C38   C54   A    
C80   C115  A    
C10   C19   S    
C76   C112  A    
C40   H6    S    
C3    C19   S    
C46   C54   A    
N32   Ni2   S    
C31   C109  S    
C54   H61   S    
C5    C21   S    
C44   N23   A    
C84   C112  A    
C90   C115  A    
C14   C26   S    
C100  N26   A    
C19   C28   S    
C5    H32   S    
N17   Ni8   S    
C58   H44   S    
C21   C107  S    
C16   H79   S    
C12   C118  S    
C33   H12   S    
C30   C49   A    
N22   N31   A    
C77   H56   S    
C96   N22   A    
C31   C48   A    
C45   C65   A    
C34   C59   A    
C12   H75   S    
C46   H3    S    
C83   N9    A    
C78   C113  A    
C94   N20   A    
C32   C60   A    
C66   C105  A    
C100  C105  A    
C36   C61   A    
C1    C101  A    
C13   H38   S    
C20   C120  S    
C37   C64   A    
C47   C68   A    
C95   H65   S    
C81   H16   S    
C38   C63   A    
C56   H60   S    
N6    N16   A    
C9    C110  S    
C4    H31   S    
N8    Ni4   S    
C118  H27   S    
C3    H30   S    
N8    N14   A    
N26   Ni7   S    
C37   C117  S    
C66   H45   S    
N16   Ni7   S    
C75   C111  A    
N5    Ni4   S    
C2    C8    S    
C18   C27   S    
C57   C65   A    
C85   C111  A    
C6    C10   S    
C99   N31   A    
C2    C119  S    
C97   N24   A    
N3    Ni1   S    
N15   Ni8   S    
C45   H2    S    
N20   Ni6   S    
C89   H24   S    
C67   C70   A    
N26   N28   A    
C8    C17   S    
C98   C106  A    
C91   C114  A    
C81   N7    A    
C30   C111  S    
C93   N19   A    
C86   C109  A    
N30   Ni4   S    
C14   C22   S    
N29   Ni4   S    
N14   Ni7   S    
C68   C73   A    
C52   H59   S    
C92   H62   S    
C27   H41   S    
N2    Ni1   S    
C11   C13   S    
C31   C57   A    
C47   H4    S    
C26   H40   S    
C60   C69   A    
C64   H51   S    
C2    H37   S    
C7    C23   S    
N19   Ni5   S    
C30   C58   A    
C99   H78   S    
N22   Ni8   S    
C85   H20   S    
C33   N12   A    
C87   N14   A    
C62   C71   A    
C35   C62   A    
C83   H18   S    
C87   H22   S    
C17   C103  S    
C78   H13   S    
C1    H1    S    
C86   N13   A    
C6    H33   S    
C110  H36   S    
C17   C119  S    
N19   N23   A    
C12   C21   S    
C58   C67   A    
C76   N3    A    
C7    H35   S    
C63   C72   A    
C94   C102  A    
C43   C67   A    
C14   C119  S    
C79   H14   S    
C79   C114  A    
C66   N28   A    
C90   H25   S    
N25   Ni8   S    
C39   C71   A    
C39   C48   A    
N31   Ni3   S    
C61   H50   S    
C82   C117  A    
C42   C72   A    
C13   C120  S    
C91   H26   S    
C59   H48   S    
C95   C101  A    
C86   H21   S    
C79   N5    A    
