data_mof_unit_23710.cif
_audit_creation_date              2013-03-05T15:42:40-0500
_audit_creation_method            fapswitch 2.2
_symmetry_space_group_name_H-M    P1
_symmetry_Int_Tables_number       1
_space_group_crystal_system       triclinic
_cell_length_a                    19.193492
_cell_length_b                    11.126274
_cell_length_c                    18.64718
_cell_angle_alpha                 89.6455
_cell_angle_beta                  90.099739
_cell_angle_gamma                 89.959217
_cell_volume                      3982.06024088

loop_
_atom_site_label
_atom_site_type_symbol
_atom_site_description
_atom_site_fract_x
_atom_site_fract_y
_atom_site_fract_z
_atom_type_partial_charge
O1    O     O_R   0.788190 0.043000 0.172520 -0.507182
O2    O     O_R   0.211810 0.043000 0.827480 -0.516761
O3    O     O_R   0.288190 0.543000 0.172520 -0.508395
O4    O     O_R   0.711810 0.543000 0.827480 -0.521333
O5    O     O_R   0.766240 0.292300 0.176860 -0.510869
O6    O     O_R   0.233760 0.292300 0.823140 -0.506655
O7    O     O_R   0.266240 0.792300 0.176860 -0.498433
O8    O     O_R   0.733760 0.792300 0.823140 -0.522752
C1    C     C_R   0.728701 0.370749 0.143942 0.520440
C2    C     C_R   0.269856 0.372466 0.854988 0.532509
C3    C     C_R   0.228685 0.870663 0.143908 0.538745
C4    C     C_R   0.769810 0.872541 0.854936 0.515536
O9    O     O_R   0.670310 0.409160 0.168720 -0.525254
O10   O     O_R   0.329690 0.409160 0.831280 -0.504235
O11   O     O_R   0.170310 0.909160 0.168720 -0.521830
O12   O     O_R   0.829690 0.909160 0.831280 -0.510851
O13   O     O_R   0.556160 0.251900 0.173380 -0.466849
O14   O     O_R   0.443840 0.251900 0.826620 -0.488505
O15   O     O_R   0.056160 0.751900 0.173380 -0.479561
O16   O     O_R   0.943840 0.751900 0.826620 -0.477348
C5    C     C_R   0.532277 0.155591 0.145016 0.557193
C6    C     C_R   0.466567 0.154832 0.855649 0.538407
C7    C     C_R   0.032375 0.655586 0.144945 0.542973
C8    C     C_R   0.966664 0.654843 0.855583 0.542050
O17   O     O_R   0.545410 0.050140 0.168240 -0.517839
O18   O     O_R   0.454590 0.050140 0.831760 -0.521117
O19   O     O_R   0.045410 0.550140 0.168240 -0.520500
O20   O     O_R   0.954590 0.550140 0.831760 -0.522010
O21   O     O_R   0.681530 0.958350 0.176970 -0.529041
O22   O     O_R   0.318470 0.958350 0.823030 -0.524124
O23   O     O_R   0.181530 0.458350 0.176970 -0.529519
O24   O     O_R   0.818470 0.458350 0.823030 -0.525855
C9    C     C_R   0.743324 0.967790 0.150453 0.518048
C10   C     C_R   0.256740 0.965243 0.848743 0.517583
C11   C     C_R   0.243363 0.467629 0.150530 0.515475
C12   C     C_R   0.756765 0.465296 0.848774 0.520126
O25   O     O_R   0.788610 0.044480 0.334450 -0.483007
O26   O     O_R   0.211390 0.044480 0.665550 -0.503935
O27   O     O_R   0.288610 0.544480 0.334450 -0.510419
O28   O     O_R   0.711390 0.544480 0.665550 -0.513911
O29   O     O_R   0.766630 0.293670 0.326970 -0.464007
O30   O     O_R   0.233370 0.293670 0.673030 -0.452067
O31   O     O_R   0.266630 0.793670 0.326970 -0.463863
O32   O     O_R   0.733370 0.793670 0.673030 -0.488952
C13   C     C_R   0.731838 0.380856 0.352811 0.540407
C14   C     C_R   0.288988 0.332609 0.637866 0.551373
C15   C     C_R   0.226058 0.867550 0.359318 0.559827
C16   C     C_R   0.768909 0.882176 0.646971 0.533769
O33   O     O_R   0.670730 0.410640 0.330640 -0.532484
O34   O     O_R   0.329270 0.410640 0.669360 -0.525191
O35   O     O_R   0.170730 0.910640 0.330640 -0.529106
O36   O     O_R   0.829270 0.910640 0.669360 -0.518101
O37   O     O_R   0.556550 0.253260 0.323480 -0.474955
O38   O     O_R   0.443450 0.253260 0.676520 -0.513620
O39   O     O_R   0.056550 0.753260 0.323480 -0.464675
O40   O     O_R   0.943450 0.753260 0.676520 -0.462774
C17   C     C_R   0.532606 0.157735 0.352606 0.542798
C18   C     C_R   0.466851 0.154108 0.646169 0.521185
C19   C     C_R   0.031663 0.657911 0.352802 0.543013
C20   C     C_R   0.968316 0.658139 0.647119 0.534314
O41   O     O_R   0.545830 0.051610 0.330160 -0.508950
O42   O     O_R   0.454170 0.051610 0.669840 -0.511336
O43   O     O_R   0.045830 0.551610 0.330160 -0.503591
O44   O     O_R   0.954170 0.551610 0.669840 -0.503069
O45   O     O_R   0.681920 0.959720 0.327070 -0.520806
O46   O     O_R   0.318080 0.959720 0.672930 -0.492001
O47   O     O_R   0.181920 0.459720 0.327070 -0.509136
O48   O     O_R   0.818080 0.459720 0.672930 -0.500098
C21   C     C_R   0.741786 0.969763 0.356052 0.522622
C22   C     C_R   0.255387 0.962454 0.648179 0.525351
C23   C     C_R   0.243596 0.464391 0.353005 0.526267
C24   C     C_R   0.756640 0.471229 0.643673 0.526030
Cr1   Cr    Cr6+3 0.772820 0.169820 0.252640 1.087608
Cr2   Cr    Cr6+3 0.227180 0.169820 0.747360 1.077535
Cr3   Cr    Cr6+3 0.272820 0.669820 0.252640 1.070858
Cr4   Cr    Cr6+3 0.727180 0.669820 0.747360 1.049158
Cr5   Cr    Cr6+3 0.615040 0.323610 0.249150 1.068261
Cr6   Cr    Cr6+3 0.384960 0.323610 0.750850 1.057834
Cr7   Cr    Cr6+3 0.115040 0.823610 0.249150 1.078433
Cr8   Cr    Cr6+3 0.884960 0.823610 0.750850 1.087155
Cr9   Cr    Cr6+3 0.616720 0.011130 0.250660 1.012893
Cr10  Cr    Cr6+3 0.383280 0.011130 0.749340 1.038344
Cr11  Cr    Cr6+3 0.116720 0.511130 0.250660 1.022401
Cr12  Cr    Cr6+3 0.883280 0.511130 0.749340 1.027666
O49   O     O_3   0.668190 0.168190 0.250820 -0.282173
O50   O     O_3   0.331810 0.168190 0.749180 -0.299586
O51   O     O_3   0.168190 0.668190 0.250820 -0.285955
O52   O     O_3   0.831810 0.668190 0.749180 -0.274800
C25   C     C_3   0.526645 0.260099 0.969557 -0.094971
C26   C     C_3   0.470362 0.261488 0.029782 -0.085820
C27   C     C_3   0.026930 0.760028 0.969418 -0.092419
C28   C     C_3   0.970650 0.761582 0.029645 -0.088969
C29   C     C_3   0.566349 0.160583 0.010580 0.008875
C30   C     C_3   0.430511 0.161251 0.990351 0.014373
C31   C     C_3   0.066566 0.660440 0.010467 0.011054
C32   C     C_3   0.930718 0.661421 0.990248 0.013023
H1    H     H_    0.549246 0.339485 0.942275 0.164708
H2    H     H_    0.446429 0.342031 0.054511 0.191668
H3    H     H_    0.049530 0.839334 0.942061 0.167376
H4    H     H_    0.946765 0.842200 0.054333 0.188687
C33   C     C_3   0.510816 0.162376 0.069819 0.003487
C34   C     C_3   0.486275 0.160290 0.931280 0.009535
C35   C     C_3   0.011027 0.662396 0.069704 0.002620
C36   C     C_3   0.986471 0.660296 0.931174 0.010174
C37   C     C_3   0.470489 0.062637 0.031312 -0.112232
C38   C     C_3   0.526258 0.061113 0.971559 -0.114934
C39   C     C_3   0.970623 0.562742 0.031217 -0.114179
C40   C     C_3   0.026387 0.561045 0.971465 -0.112490
H5    H     H_    0.447565 0.984080 0.058984 0.150262
H6    H     H_    0.549795 0.979939 0.947093 0.141910
H7    H     H_    0.947674 0.484293 0.058951 0.147205
H8    H     H_    0.049846 0.479804 0.947001 0.144347
H9    H     H_    0.842231 0.039726 0.059792 0.177358
H10   H     H_    0.140062 0.975214 0.926286 0.144500
H11   H     H_    0.343115 0.537729 0.060216 0.178495
H12   H     H_    0.640074 0.475113 0.926300 0.141145
C41   C     C_R   0.751983 0.899615 0.930108 0.024646
C42   C     C_R   0.241484 0.890114 0.066702 0.041287
C43   C     C_R   0.252240 0.399222 0.930282 0.022722
C44   C     C_R   0.741520 0.390401 0.066774 0.043148
C45   C     C_R   0.703285 0.832699 0.972966 0.045049
C46   C     C_R   0.300351 0.844798 0.028662 0.050769
C47   C     C_R   0.203334 0.332602 0.973055 0.042754
C48   C     C_R   0.800450 0.345308 0.028790 0.051354
C49   C     C_R   0.709571 0.836927 0.048766 0.061193
C50   C     C_R   0.297523 0.842627 0.952739 0.056993
C51   C     C_R   0.209539 0.336724 0.048872 0.061066
C52   C     C_R   0.797678 0.343039 0.952873 0.058229
C53   C     C_R   0.804083 0.979400 0.037204 -0.114985
C54   C     C_R   0.184612 0.937240 0.953845 -0.110886
C55   C     C_R   0.304656 0.478037 0.037535 -0.113919
C56   C     C_R   0.684660 0.437320 0.953888 -0.111525
C57   C     C_R   0.799933 0.973427 0.964302 -0.086757
C58   C     C_R   0.183060 0.927369 0.026960 -0.122360
C59   C     C_R   0.300566 0.472222 0.964630 -0.089776
C60   C     C_R   0.683085 0.427506 0.027002 -0.119011
C61   C     C_R   0.648917 0.761935 0.944684 -0.124694
C62   C     C_R   0.361105 0.799699 0.062073 -0.136752
C63   C     C_R   0.148905 0.262078 0.944677 -0.125255
C64   C     C_R   0.861206 0.300458 0.062286 -0.137617
C65   C     C_R   0.106598 0.192957 0.989793 -0.136441
C66   C     C_R   0.912442 0.242069 0.022177 -0.132646
C67   C     C_R   0.606656 0.692896 0.989901 -0.136449
C68   C     C_R   0.412315 0.741397 0.021849 -0.134190
C69   C     C_R   0.616092 0.691835 0.064085 0.002879
C70   C     C_R   0.403871 0.724985 0.948148 -0.001628
C71   C     C_R   0.115936 0.191809 0.063992 0.003301
C72   C     C_R   0.904023 0.225348 0.948507 -0.002140
C73   C     C_R   0.669185 0.760559 0.092570 -0.069170
C74   C     C_R   0.347187 0.776841 0.914060 -0.092199
C75   C     C_R   0.168979 0.260518 0.092598 -0.068182
C76   C     C_R   0.847420 0.277259 0.914286 -0.094080
C77   C     C_R   0.756371 0.917856 0.079881 0.018054
C78   C     C_R   0.243846 0.904517 0.916795 0.040452
C79   C     C_R   0.256522 0.417250 0.080086 0.021655
C80   C     C_R   0.743936 0.404695 0.916872 0.039729
H13   H     H_    0.635849 0.761261 0.888515 0.156684
H14   H     H_    0.371213 0.811005 0.118536 0.168823
H15   H     H_    0.135883 0.261512 0.888498 0.162706
H16   H     H_    0.871264 0.311956 0.118744 0.161735
H17   H     H_    0.836013 0.025926 0.933897 0.192643
H18   H     H_    0.133808 0.944124 0.051720 0.190383
H19   H     H_    0.337047 0.524162 0.934387 0.194270
H20   H     H_    0.633800 0.444119 0.051730 0.191102
H21   H     H_    0.068311 0.136612 0.966347 0.194446
H22   H     H_    0.957876 0.208702 0.049022 0.190150
H23   H     H_    0.568295 0.636596 0.966565 0.194184
H24   H     H_    0.457789 0.707963 0.048605 0.190033
H25   H     H_    0.679468 0.752659 0.149534 0.110972
H26   H     H_    0.339585 0.758726 0.857543 0.128934
H27   H     H_    0.179168 0.252588 0.149579 0.113567
H28   H     H_    0.839867 0.258960 0.857787 0.120985
H29   H     H_    0.561329 0.330708 0.447107 0.149075
H30   H     H_    0.532648 0.325474 0.574226 0.124312
H31   H     H_    0.017128 0.860254 0.435254 0.175143
H32   H     H_    0.982819 0.860336 0.563270 0.171923
C81   C     C_R   0.494864 0.147132 0.572743 -0.014299
C82   C     C_R   0.503258 0.167687 0.424001 -0.013518
C83   C     C_R   0.999376 0.668710 0.575112 -0.033174
C84   C     C_R   0.000359 0.668477 0.424610 -0.028510
C85   C     C_R   0.481240 0.044514 0.527664 -0.000988
C86   C     C_R   0.469197 0.067766 0.454232 -0.025687
C87   C     C_R   0.010594 0.563115 0.536096 -0.005548
C88   C     C_R   0.988860 0.562976 0.464179 -0.010280
C89   C     C_R   0.531678 0.255949 0.468619 -0.137047
C90   C     C_R   0.521063 0.250156 0.541665 -0.167185
C91   C     C_R   0.005448 0.776925 0.462528 -0.149690
C92   C     C_R   0.994512 0.777057 0.536541 -0.155889
C93   C     C_R   0.479764 0.921292 0.550452 0.042235
C94   C     C_R   0.434752 0.981228 0.411218 0.042048
C95   C     C_R   0.035786 0.456067 0.566898 0.047552
C96   C     C_R   0.966069 0.454951 0.433297 0.053307
C97   C     C_R   0.021194 0.349268 0.532195 -0.148227
C98   C     C_R   0.983773 0.348393 0.467524 -0.143676
C99   C     C_R   0.452572 0.833817 0.504381 -0.162732
C100  C     C_R   0.431370 0.863108 0.435458 -0.125627
H33   H     H_    0.037747 0.267842 0.557464 0.143037
H34   H     H_    0.969725 0.265856 0.441963 0.142704
H35   H     H_    0.448075 0.741175 0.521442 0.145896
H36   H     H_    0.412521 0.792793 0.400636 0.158628
H37   H     H_    0.637169 0.899127 0.442704 0.148723
H38   H     H_    0.329769 0.778345 0.579080 0.161274
H39   H     H_    0.154871 0.328899 0.434182 0.146571
H40   H     H_    0.832423 0.311049 0.570462 0.135998
C101  C     C_R   0.751813 0.928431 0.576091 -0.005213
C102  C     C_R   0.235555 0.883832 0.437141 -0.003088
C103  C     C_R   0.282629 0.346083 0.559071 -0.004124
C104  C     C_R   0.753536 0.425054 0.422434 -0.009789
C105  C     C_R   0.806657 0.974129 0.534541 0.036125
C106  C     C_R   0.185810 0.948908 0.476490 0.022476
C107  C     C_R   0.338136 0.388176 0.514136 0.011516
C108  C     C_R   0.711263 0.511186 0.454759 0.014940
C109  C     C_R   0.812375 0.937328 0.463425 -0.007895
C110  C     C_R   0.176571 0.919849 0.549066 -0.001048
C111  C     C_R   0.329344 0.384611 0.438873 -0.009466
C112  C     C_R   0.694152 0.494589 0.527158 0.001765
C113  C     C_R   0.687966 0.900825 0.467636 -0.137999
C114  C     C_R   0.286569 0.818811 0.550430 -0.142969
C115  C     C_R   0.207439 0.336682 0.454841 -0.162447
C116  C     C_R   0.794306 0.359258 0.538604 -0.157196
C117  C     C_R   0.691475 0.891460 0.541573 -0.150660
C118  C     C_R   0.280816 0.807030 0.475962 -0.145462
C119  C     C_R   0.219541 0.311539 0.526655 -0.143209
C120  C     C_R   0.796460 0.350909 0.464823 -0.140816
C121  C     C_R   0.853782 0.058366 0.560914 -0.087378
C122  C     C_R   0.145644 0.041926 0.447308 -0.090534
C123  C     C_R   0.400075 0.441225 0.539505 -0.095107
C124  C     C_R   0.678349 0.601659 0.413778 -0.083412
C125  C     C_R   0.909285 0.093390 0.519184 -0.182913
C126  C     C_R   0.090742 0.087853 0.485896 -0.185136
C127  C     C_R   0.448343 0.488688 0.491984 -0.182475
C128  C     C_R   0.622058 0.662995 0.441196 -0.164169
C129  C     C_R   0.922894 0.037274 0.453899 -0.100904
C130  C     C_R   0.073587 0.040891 0.553261 -0.103163
C131  C     C_R   0.443939 0.467708 0.419159 -0.092555
C132  C     C_R   0.601584 0.642156 0.511189 -0.124369
C133  C     C_R   0.876546 0.952038 0.427385 0.050570
C134  C     C_R   0.114775 0.952597 0.584526 0.050270
C135  C     C_R   0.387018 0.405131 0.392501 0.045340
C136  C     C_R   0.631703 0.550346 0.552301 0.051783
C137  C     C_R   0.749301 0.918771 0.427416 -0.020807
C138  C     C_R   0.236581 0.886713 0.586547 -0.029434
C139  C     C_R   0.261050 0.383575 0.412579 -0.024837
C140  C     C_R   0.743284 0.429943 0.570906 -0.020289
H41   H     H_    0.845976 0.101480 0.612216 0.134423
H42   H     H_    0.157711 0.083555 0.396272 0.146239
H43   H     H_    0.413797 0.451427 0.594746 0.206179
H44   H     H_    0.694148 0.620744 0.359110 0.124421
H45   H     H_    0.647694 0.858049 0.571464 0.128807
H46   H     H_    0.312583 0.741159 0.449182 0.146985
H47   H     H_    0.176848 0.275671 0.557917 0.182389
H48   H     H_    0.829969 0.283690 0.441217 0.182144
H49   H     H_    0.941427 0.162673 0.539817 0.103902
H50   H     H_    0.061792 0.158432 0.461306 0.101129
H51   H     H_    0.492749 0.531751 0.512960 0.148390
H52   H     H_    0.593433 0.725516 0.407646 0.118972
H53   H     H_    0.968059 0.061047 0.422805 0.149709
H54   H     H_    0.030174 0.074258 0.583268 0.152501
H55   H     H_    0.486498 0.495194 0.384691 0.157445
H56   H     H_    0.558818 0.692479 0.531893 0.160600
C141  C     C_2   0.643323 0.154267 0.020124 0.217857
H57   H     H_    0.666098 0.154873 0.073293 0.117966
O53   O     O_2   0.680798 0.148483 0.967578 -0.540181
C142  C     C_2   0.353533 0.155985 0.979648 0.230527
H58   H     H_    0.331351 0.166790 0.926561 0.119379
O54   O     O_2   0.315426 0.139526 0.030992 -0.529424
C143  C     C_2   0.143536 0.653896 0.020063 0.218659
H59   H     H_    0.166278 0.654795 0.073250 0.117113
O55   O     O_2   0.181045 0.647623 0.967556 -0.537165
C144  C     C_2   0.853731 0.656349 0.979546 0.230189
H60   H     H_    0.831553 0.667227 0.926463 0.121599
O56   O     O_2   0.815612 0.639960 0.030887 -0.533394
C145  C     C_2   0.517057 0.877388 0.615249 0.253404
H61   H     H_    0.559036 0.930176 0.638076 0.100279
O57   O     O_2   0.498504 0.786083 0.646272 -0.473308
C146  C     C_2   0.401954 0.013990 0.341496 0.251058
H62   H     H_    0.392393 0.107510 0.328357 0.084261
O58   O     O_2   0.386118 0.937379 0.297822 -0.499270
C147  C     C_2   0.080070 0.455923 0.632394 0.255122
H63   H     H_    0.102879 0.539173 0.651318 0.097210
O59   O     O_2   0.090498 0.363530 0.666424 -0.500234
C148  C     C_2   0.922590 0.453411 0.367191 0.247195
H64   H     H_    0.897873 0.535490 0.348259 0.088373
O60   O     O_2   0.914905 0.361339 0.332757 -0.510868
C149  C     C_2   0.892215 0.885856 0.360199 0.240964
H65   H     H_    0.861254 0.808055 0.345720 0.079025
O61   O     O_2   0.938696 0.918797 0.320009 -0.495564
C150  C     C_2   0.095965 0.899728 0.655467 0.243823
H66   H     H_    0.124510 0.822685 0.676134 0.088208
O62   O     O_2   0.049047 0.942072 0.691567 -0.500897
C151  C     C_2   0.386803 0.364429 0.316614 0.240923
H67   H     H_    0.344832 0.308103 0.297039 0.084830
O63   O     O_2   0.433141 0.393511 0.275215 -0.488083
C152  C     C_2   0.592525 0.504444 0.615886 0.238923
H68   H     H_    0.609157 0.422048 0.642380 0.103749
O64   O     O_2   0.542000 0.557126 0.639810 -0.492480
C153  C     C_2   0.071563 0.119978 0.113237 0.205671
H69   H     H_    0.077146 0.130142 0.170832 0.124421
O65   O     O_2   0.029316 0.047373 0.090642 -0.528844
C154  C     C_2   0.949307 0.145443 0.906525 0.179661
H70   H     H_    0.964050 0.170263 0.852258 0.122157
O66   O     O_2   0.965716 0.046655 0.929963 -0.528996
C155  C     C_2   0.571741 0.620165 0.113444 0.206156
H71   H     H_    0.577352 0.630533 0.171025 0.118015
O67   O     O_2   0.529487 0.547465 0.090968 -0.524043
C156  C     C_2   0.449349 0.645771 0.905892 0.177606
H72   H     H_    0.463789 0.671028 0.851584 0.130673
O68   O     O_2   0.466239 0.547037 0.929115 -0.534578

loop_
_geom_bond_atom_site_label_1
_geom_bond_atom_site_label_2
_geom_bond_distance
_ccdc_geom_bond_type
C30   C142  1.491793 S    
O4    C12   1.281836 A    
C112  C140  1.435699 A    
O25   C21   1.288105 A    
C153  O65   1.221297 D    
C151  H67   1.085114 S    
C124  C128  1.378273 A    
C41   C57   1.390515 A    
Cr7   O51   2.007147 S    
C155  O67   1.221321 D    
C148  H64   1.085582 S    
O39   C19   1.283377 A    
C17   C82   1.451312 S    
O21   C9    1.289887 A    
C1    O9    1.286751 A    
O44   Cr12  2.061904 S    
C70   C74   1.383015 A    
C3    O11   1.287028 A    
C7    C35   1.462454 S    
C4    O12   1.296799 A    
C83   C87   1.402428 A    
O2    C10   1.281740 A    
C63   H15   1.076614 S    
C33   C37   1.534699 S    
H10   C54   1.081214 S    
C54   C58   1.367509 A    
H32   C92   1.078502 S    
C113  C117  1.383510 A    
O16   Cr8   1.972111 S    
C29   C33   1.536571 S    
C83   C92   1.402900 A    
C105  C109  1.394793 A    
C81   C90   1.377042 A    
O28   Cr4   2.095046 S    
O12   Cr8   2.074250 S    
O22   Cr10  1.943556 S    
O15   C7    1.282504 A    
C87   C88   1.403747 A    
C84   C91   1.405665 A    
O46   Cr10  1.981985 S    
C155  H71   1.085775 S    
O48   C24   1.304361 A    
C156  H72   1.085760 S    
C82   C86   1.405601 A    
C49   C73   1.408754 A    
C53   C57   1.363647 A    
C50   C78   1.405605 A    
C72   C154  1.472610 S    
C32   C36   1.537182 S    
C144  O56   1.218828 D    
C111  C135  1.423533 A    
C154  H70   1.085347 S    
C60   H20   1.069552 S    
C130  H54   1.071908 S    
C93   C145  1.483277 S    
C59   H19   1.067800 S    
O5    Cr1   1.960902 S    
Cr12  O52   2.006771 S    
O7    Cr3   1.960902 S    
C17   O41   1.280590 A    
C43   C47   1.436311 A    
C19   O43   1.287320 A    
C110  C138  1.394424 A    
C20   O44   1.285589 A    
H31   C91   1.078600 S    
C149  O61   1.221174 D    
O46   C22   1.288304 A    
C55   C79   1.391876 A    
C126  C130  1.397474 A    
C147  O59   1.220941 D    
C31   C40   1.534882 S    
C52   C80   1.405748 A    
C99   C100  1.384344 A    
C132  C136  1.397601 A    
C16   O36   1.271716 A    
C30   C34   1.537272 S    
Cr8   O52   2.008729 S    
C97   C98   1.402637 A    
O27   C23   1.287837 A    
C35   C39   1.534579 S    
C86   C94   1.419898 A    
O31   C15   1.285617 A    
O16   C8    1.281029 A    
O32   C16   1.291243 A    
C150  O62   1.221259 D    
C123  C127  1.385700 A    
O47   Cr11  1.976375 S    
C109  C137  1.399397 A    
C74   H26   1.083856 S    
C20   C83   1.474126 S    
O5    C1    1.284019 A    
H29   C89   1.083523 S    
C73   H25   1.083086 S    
O24   C12   1.281169 A    
C19   C84   1.473906 S    
C151  O63   1.221218 D    
C11   C79   1.453800 S    
C130  C134  1.385697 A    
C141  H57   1.082922 S    
C76   H28   1.083789 S    
C9    C77   1.453654 S    
H30   C90   1.061350 S    
C47   C63   1.411179 A    
C28   C32   1.542216 S    
C75   H27   1.083101 S    
C42   C46   1.428425 A    
C45   C61   1.411152 A    
O32   Cr4   1.952246 S    
C62   H14   1.078413 S    
C129  C133  1.393065 A    
C2    C43   1.476789 S    
C51   C75   1.408678 A    
C31   C143  1.489487 S    
C52   C76   1.404566 A    
O11   Cr7   2.066412 S    
C142  H58   1.082899 S    
C39   C40   1.546542 S    
O27   Cr3   2.082152 S    
O3    Cr3   2.082581 S    
C42   C58   1.403957 A    
O8    C4    1.278032 A    
Cr5   O49   2.007147 S    
C94   C146  1.486737 S    
C103  C107  1.433658 A    
C106  C122  1.397135 A    
C104  C108  1.395625 A    
C31   C35   1.536655 S    
C99   H35   1.080416 S    
C132  H56   1.067456 S    
O22   C10   1.281354 A    
C112  C136  1.430334 A    
C2    O10   1.296606 A    
C27   C28   1.559767 S    
C65   C71   1.394833 A    
C122  C126  1.376852 A    
C4    C41   1.476306 S    
C96   C98   1.384827 A    
C71   C75   1.381926 A    
C45   C49   1.419456 A    
C29   C38   1.534813 S    
C66   H22   1.069843 S    
C102  C106  1.407935 A    
C47   C51   1.419605 A    
H12   C56   1.081220 S    
O3    C11   1.271099 A    
C56   C60   1.367448 A    
C67   H23   1.061488 S    
C54   C78   1.381188 A    
Cr1   O49   2.008541 S    
C118  H46   1.078528 S    
Cr3   O51   2.008541 S    
C13   C104  1.451592 S    
O26   Cr2   2.095046 S    
C5    O17   1.273021 A    
O29   C13   1.274800 A    
O28   C24   1.260669 A    
O14   C6    1.281014 A    
C39   H7    1.104110 S    
C72   C76   1.383189 A    
C143  H59   1.082995 S    
C124  H44   1.083854 S    
C104  C120  1.404559 A    
C109  C133  1.413230 A    
C148  O60   1.221287 D    
O40   Cr8   1.952352 S    
C61   H13   1.076654 S    
H38   C114  1.081940 S    
O41   Cr9   2.065487 S    
C64   H16   1.078406 S    
C53   C77   1.391944 A    
C50   C74   1.404466 A    
C21   C137  1.450321 S    
C98   H34   1.071702 S    
C102  C118  1.413507 A    
C81   C85   1.445721 A    
C145  O57   1.219606 D    
O33   Cr5   2.098393 S    
C114  C138  1.397279 A    
C125  C129  1.396548 A    
O35   Cr7   2.098393 S    
C120  H48   1.082196 S    
C123  H43   1.069509 S    
C84   C88   1.400453 A    
C135  C151  1.488441 S    
C146  H62   1.082972 S    
C1    C44   1.475259 S    
C127  C131  1.381759 A    
C27   H3    1.105777 S    
C3    C42   1.475556 S    
Cr9   O49   2.008028 S    
C69   C155  1.484010 S    
C18   O42   1.244658 A    
Cr11  O51   2.008028 S    
O26   C22   1.286252 A    
C30   C37   1.537015 S    
O20   Cr12  2.103695 S    
C24   C140  1.457595 S    
C133  C149  1.488180 S    
C87   C95   1.404295 A    
C85   C86   1.410604 A    
C103  C119  1.407242 A    
H40   C116  1.081595 S    
C64   C66   1.398642 A    
C38   H6    1.110469 S    
C152  H68   1.086216 S    
O30   C14   1.325443 A    
C37   H5    1.104341 S    
C85   C93   1.433146 A    
C71   C153  1.483886 S    
C16   C101  1.452348 S    
C156  O68   1.221696 D    
C147  H63   1.085463 S    
C88   C96   1.405704 A    
C122  H42   1.081347 S    
C127  H51   1.053920 S    
C48   C52   1.416934 A    
O42   Cr10  2.061904 S    
O18   Cr10  2.103695 S    
O31   Cr3   1.964196 S    
C105  C121  1.394191 A    
O34   Cr6   2.088992 S    
C154  O66   1.221228 D    
C26   C30   1.542374 S    
C10   C78   1.455599 S    
O24   Cr12  1.943556 S    
O30   Cr2   1.952246 S    
O48   Cr12  1.981985 S    
C8    O20   1.270664 A    
C46   C62   1.411547 A    
C68   C70   1.396699 A    
C51   C79   1.400170 A    
O37   C17   1.276798 A    
C15   O35   1.279708 A    
Cr10  O50   2.006771 S    
C43   C59   1.391303 A    
O40   C20   1.286786 A    
O43   Cr11  2.065487 S    
C44   C60   1.403942 A    
C113  C137  1.410589 A    
O37   Cr5   1.946107 S    
C95   C97   1.385115 A    
O21   Cr9   1.948150 S    
C149  H65   1.085549 S    
O39   Cr7   1.946107 S    
C93   C99   1.402570 A    
O45   Cr9   1.976375 S    
C13   O33   1.285470 A    
C136  C152  1.492731 S    
O13   Cr5   1.979822 S    
O15   Cr7   1.979822 S    
C95   C147  1.486734 S    
C32   C39   1.536916 S    
C117  H45   1.074486 S    
O23   C11   1.289886 A    
C131  H55   1.083345 S    
C96   C148  1.487582 S    
C36   C40   1.535387 S    
C134  C150  1.489510 S    
C12   C80   1.455500 S    
C119  H47   1.081582 S    
C15   C102  1.474566 S    
C110  C134  1.407799 A    
C131  C135  1.388872 A    
C48   C64   1.411295 A    
C126  H50   1.062882 S    
O6    C2    1.278379 A    
C37   C38   1.546587 S    
C111  C139  1.398787 A    
O1    Cr1   2.082581 S    
C65   H21   1.061649 S    
O19   Cr11  2.099364 S    
C23   C139  1.463119 S    
C91   C92   1.396369 A    
C143  O55   1.218629 D    
C89   C90   1.378719 A    
O45   C21   1.274223 A    
O47   C23   1.279200 A    
C121  C125  1.375470 A    
C115  C119  1.385514 A    
C108  C124  1.408626 A    
C40   H8    1.110462 S    
C70   C156  1.472918 S    
C142  O54   1.218849 D    
C6    O18   1.270653 A    
C144  H60   1.082882 S    
C62   C68   1.398979 A    
C25   C26   1.559760 S    
O36   Cr8   2.088992 S    
C69   C73   1.381849 A    
O38   Cr6   1.952352 S    
O13   C5    1.282572 A    
C107  C111  1.414055 A    
C25   C34   1.533685 S    
C63   C65   1.397813 A    
C153  H69   1.085738 S    
C128  H52   1.081666 S    
C128  C132  1.381966 A    
C27   C36   1.533621 S    
C100  H36   1.081875 S    
O1    C9    1.270897 A    
H11   C55   1.080707 S    
O7    C3    1.283850 A    
C116  C140  1.395399 A    
H9    C53   1.080340 S    
C68   H24   1.069948 S    
C55   C59   1.363537 A    
C32   C144  1.491875 S    
O23   Cr11  1.948150 S    
C41   C45   1.436261 A    
C28   C35   1.537208 S    
C56   C80   1.381250 A    
C82   C89   1.401232 A    
C108  C112  1.401109 A    
O6    Cr2   1.973139 S    
C7    O19   1.273041 A    
Cr4   O52   2.008512 S    
O2    Cr2   2.070304 S    
C94   C100  1.388744 A    
C5    C33   1.462262 S    
Cr6   O50   2.008729 S    
C61   C67   1.397932 A    
C107  C123  1.409965 A    
C25   C29   1.542135 S    
C49   C77   1.400050 A    
C114  C118  1.399781 A    
C29   C141  1.489325 S    
C121  H41   1.083423 S    
C14   C103  1.480831 S    
O9    Cr5   2.066412 S    
C66   C72   1.396543 A    
C141  O53   1.218488 D    
C129  H53   1.076023 S    
C106  C110  1.401078 A    
O29   Cr1   1.964196 S    
C58   H18   1.069528 S    
C25   H1    1.105842 S    
C8    C36   1.460926 S    
C46   C50   1.417049 A    
C26   C33   1.537156 S    
C101  C105  1.402001 A    
C145  H61   1.085307 S    
Cr2   O50   2.008512 S    
O14   Cr6   1.972111 S    
C146  O58   1.220781 D    
O8    Cr4   1.973139 S    
C116  C120  1.380190 A    
C28   H4    1.109917 S    
O38   C18   1.321727 A    
C67   C69   1.394788 A    
O25   Cr1   2.082152 S    
O17   Cr9   2.099364 S    
C57   H17   1.067723 S    
C125  H49   1.061313 S    
C14   O34   1.304646 A    
C6    C34   1.461145 S    
H39   C115  1.083107 S    
C150  H66   1.085343 S    
H37   C113  1.079657 S    
C22   C138  1.473855 S    
C152  O64   1.219396 D    
C97   H33   1.066556 S    
C101  C117  1.387824 A    
C115  C139  1.396616 A    
C34   C38   1.535339 S    
C18   C81   1.474329 S    
O10   Cr6   2.074250 S    
O4    Cr4   2.070304 S    
C27   C31   1.542297 S    
C26   H2    1.109951 S    
C44   C48   1.427968 A    
