data_mof_unit_31072.cif
_audit_creation_date              2013-03-05T15:42:34-0500
_audit_creation_method            fapswitch 2.2
_symmetry_space_group_name_H-M    P1
_symmetry_Int_Tables_number       1
_space_group_crystal_system       triclinic
_cell_length_a                    10.844197
_cell_length_b                    10.923566
_cell_length_c                    9.662489
_cell_angle_alpha                 90.16351
_cell_angle_beta                  90.69154
_cell_angle_gamma                 90.089613
_cell_volume                      1144.50288215

loop_
_atom_site_label
_atom_site_type_symbol
_atom_site_description
_atom_site_fract_x
_atom_site_fract_y
_atom_site_fract_z
_atom_type_partial_charge
O1    O     O_R   0.500020 0.321960 0.617040 -0.531120
O2    O     O_R   0.499980 0.321920 0.382900 -0.577232
C1    C     C_R   0.496853 0.265286 0.499759 0.882320
O3    O     O_R   0.319670 0.500020 0.617100 -0.573614
O4    O     O_R   0.319630 0.499980 0.382950 -0.562071
C2    C     C_R   0.262671 0.489036 0.499569 0.839765
Cu1   Cu    Cu3+1 0.500020 0.500020 0.638630 1.040799
Cu2   Cu    Cu3+1 0.499980 0.499980 0.361370 1.005343
O5    O     O_R   0.500020 0.678080 0.617100 -0.533547
O6    O     O_R   0.499980 0.678040 0.382960 -0.601443
O7    O     O_R   0.680370 0.500020 0.617050 -0.599954
O8    O     O_R   0.680330 0.499980 0.382900 -0.589877
C3    C     C_R   0.506133 0.734820 0.500418 0.760137
C4    C     C_R   0.738357 0.505947 0.501832 0.803133
C5    C     C_R   0.119643 0.391295 0.741447 0.249738
C6    C     C_R   0.066708 0.408423 0.873320 0.314924
C7    C     C_R   0.956867 0.473759 0.884160 -0.280332
C8    C     C_R   0.894063 0.512781 0.766073 -0.210361
H1    H     H_    0.811842 0.565886 0.782693 0.202374
C9    C     C_R   0.941873 0.490855 0.632849 0.068323
C10   C     C_R   0.064742 0.450474 0.624398 -0.041980
C11   C     C_R   0.128641 0.474027 0.499830 -0.055678
C12   C     C_R   0.062828 0.501925 0.378627 -0.127646
H2    H     H_    0.887252 0.528070 0.284329 0.166318
C13   C     C_R   0.936061 0.512663 0.381210 -0.173142
C14   C     C_R   0.873688 0.508225 0.507183 -0.073970
C15   C     C_2   0.497271 0.933048 0.390699 -0.246192
C16   C     C_2   0.530984 0.865817 0.501643 0.183945
H3    H     H_    0.456569 0.889364 0.299842 0.171336
C17   C     C_2   0.506285 0.066615 0.387124 -0.106686
C18   C     C_2   0.485887 0.133534 0.500639 -0.169563
H4    H     H_    0.524041 0.109925 0.288261 0.185282
H5    H     H_    0.459822 0.090983 0.597397 0.205755
C19   C     C_2   0.577780 0.440323 0.923007 -0.014693
N1    N     N_2   0.498640 0.498660 0.846910 -0.259138
H6    H     H_    0.651009 0.390418 0.872395 0.158933
H7    H     H_    0.425117 0.540603 0.892940 0.223875
C20   C     C_2   0.573875 0.435406 0.078662 -0.015378
N2    N     N_2   0.498610 0.498630 0.153040 -0.258908
H8    H     H_    0.639895 0.376418 0.130886 0.154728
H9    H     H_    0.439837 0.559255 0.105406 0.216353
H10   H     H_    0.109322 0.516681 0.281482 0.199497
N3    N     N_R   0.212994 0.299038 0.721120 0.134870
O9    O     O_R   0.295137 0.274888 0.816258 -0.284172
O10   O     O_R   0.210476 0.232083 0.609468 -0.374048
N4    N     N_R   0.122634 0.360833 0.996967 0.151424
O11   O     O_R   0.229392 0.402716 0.037873 -0.354471
O12   O     O_R   0.055707 0.300129 0.084170 -0.336202
H11   H     H_    0.917924 0.491770 0.984926 0.175783
N5    N     N_R   0.603797 0.916325 0.614112 0.116886
O13   O     O_R   0.583450 0.883368 0.741114 -0.330353
O14   O     O_R   0.699874 0.983690 0.588208 -0.330071

loop_
_geom_bond_atom_site_label_1
_geom_bond_atom_site_label_2
_geom_bond_distance
_ccdc_geom_bond_type
O4    Cu2   1.969337 S    
N5    O14   1.301772 A    
N3    O9    1.300182 A    
C18   H5    1.085577 S    
C3    C16   1.455686 S    
Cu2   N2    2.012875 S    
C15   H3    1.086656 S    
C8    C9    1.413501 A    
Cu2   O8    1.964286 S    
C4    C14   1.468016 S    
C7    C8    1.390100 A    
C5    N3    1.444243 S    
Cu1   Cu2   2.679015 S    
N2    H9    1.025954 S    
O1    Cu1   1.955613 S    
C10   C11   1.420013 A    
H2    C13   1.083511 S    
C15   C17   1.462681 S    
C1    C18   1.443977 S    
N3    O10   1.301643 A    
O4    C2    1.297269 A    
C12   H10   1.083197 S    
C9    C14   1.427310 A    
O3    Cu1   1.964286 S    
C16   N5    1.443382 S    
Cu2   O6    1.955612 S    
C20   H8    1.084874 S    
O8    C4    1.304921 A    
C19   N1    1.293219 D    
C19   H6    1.084497 S    
C12   C13   1.380388 A    
C17   C18   1.337207 D    
O7    C4    1.286934 A    
N4    O12   1.301110 A    
C7    H11   1.083578 S    
C5    C6    1.415912 A    
C17   H4    1.086350 S    
C5    C10   1.428494 A    
C20   N2    1.293341 D    
C9    C10   1.407425 A    
N1    H7    1.025651 S    
O3    C2    1.291578 A    
C8    H1    1.077883 S    
N4    O11   1.300794 A    
C6    N4    1.432659 S    
C15   C16   1.348349 D    
Cu1   O5    1.956734 S    
O5    C3    1.290474 A    
C11   C12   1.398665 A    
Cu1   O7    1.969335 S    
O2    C1    1.289842 A    
N5    O13   1.301152 A    
C13   C14   1.400552 A    
C19   C20   1.506230 S    
Cu1   N1    2.012837 S    
O2    Cu2   1.956735 S    
C6    C7    1.394408 A    
O1    C1    1.289823 A    
O6    C3    1.292777 A    
C2    C11   1.462444 S    
