data_mof_unit_17706.cif
_audit_creation_date              2012-12-10T16:54:55-0500
_audit_creation_method            fapswitch 2.2
_symmetry_space_group_name_H-M    P1
_symmetry_Int_Tables_number       1
_space_group_crystal_system       triclinic
_cell_length_a                    7.964588
_cell_length_b                    8.64908
_cell_length_c                    15.673852
_cell_angle_alpha                 94.328965
_cell_angle_beta                  81.188752
_cell_angle_gamma                 92.108243
_cell_volume                      1063.57952648

loop_
_atom_site_label
_atom_site_type_symbol
_atom_type_description
_atom_site_fract_x
_atom_site_fract_y
_atom_site_fract_z
_atom_type_partial_charge
C1    C     C_R   0.543021 0.793298 0.496308 0.959569
C2    C     C_3   0.390343 0.622983 0.073874 0.323033
C3    C     C_3   0.511897 0.483980 0.081750 0.060230
C4    C     C_3   0.443485 0.318196 0.046365 0.248010
C5    C     C_3   0.449592 0.321696 0.943452 0.394280
C6    C     C_1   0.527449 0.481550 0.172208 0.044680
C7    C     C_1   0.470762 0.506539 0.827602 0.129959
C8    C     C_1   0.478813 0.507096 0.751612 -0.102010
C9    C     C_2   0.560697 0.950666 0.477782 -0.101876
C10   C     C_2   0.440304 0.048131 0.518102 0.075978
C11   C     C_R   0.494611 0.503246 0.661718 0.891753
C12   C     C_R   0.457116 0.206629 0.502793 0.910309
C13   C     C_R   0.505347 0.496411 0.338281 0.880311
C14   C     C_3   0.357075 0.616493 0.976151 0.400455
C15   C     C_3   0.666847 0.553602 0.933594 -0.092983
C16   C     C_3   0.689909 0.519583 0.027162 -0.444069
C17   C     C_1   0.520341 0.487007 0.248305 -0.105916
C18   C     C_3   0.482672 0.497499 0.918205 -0.018241
H1    H     H_    0.673734 0.681597 0.931558 0.219984
H2    H     H_    0.755777 0.619776 0.057588 0.239953
H3    H     H_    0.778229 0.423980 0.025999 0.236746
N1    N     N_2   0.950340 0.457950 0.477370 0.093501
N2    N     N_2   0.049660 0.542050 0.522630 -0.001931
O1    O     O_R   0.389240 0.738570 0.505550 -0.591511
O2    O     O_R   0.678400 0.711630 0.491050 -0.634857
O3    O     O_R   0.355360 0.513470 0.630110 -0.592657
O4    O     O_R   0.644510 0.486530 0.615610 -0.652886
O5    O     O_R   0.321600 0.288370 0.508950 -0.564166
O6    O     O_R   0.610760 0.261430 0.494450 -0.613675
O7    O     O_R   0.355490 0.513470 0.384390 -0.560331
O8    O     O_R   0.644640 0.486530 0.369890 -0.596958
Zn1   Zn    Zn3+2 0.306930 0.517990 0.509680 1.062736
Zn2   Zn    Zn3+2 0.693070 0.482010 0.490320 1.022281
C19   C     C_3   0.471725 0.781516 0.102468 -0.814052
H4    H     H_    0.510570 0.780249 0.167449 0.245595
H5    H     H_    0.584646 0.817120 0.057332 0.225779
H6    H     H_    0.377093 0.874210 0.107913 0.286247
Br1   Br    Br    0.122144 0.574457 0.966476 -0.487221
Br2   Br    Br    0.180059 0.622546 0.161462 -0.472223
C20   C     C_3   0.551612 0.185489 0.071751 -0.855999
H7    H     H_    0.528790 0.172860 0.142691 0.245816
H8    H     H_    0.514729 0.073746 0.040402 0.270494
H9    H     H_    0.690353 0.199734 0.053793 0.240864
C21   C     C_3   0.695813 0.990798 0.402519 -0.792041
H10   H     H_    0.744421 0.884930 0.363233 0.247929
H11   H     H_    0.642901 0.063577 0.358080 0.231036
H12   H     H_    0.805354 0.051607 0.427388 0.295957
Br3   Br    Br    0.269992 0.001142 0.615681 -0.445024
Br4   Br    Br    0.050943 0.319782 0.387537 -0.368420
C22   C     C_3   0.972893 0.623239 0.601730 -0.461021
H13   H     H_    0.071269 0.698719 0.627727 0.223091
H14   H     H_    0.871051 0.699053 0.590919 0.215742
H15   H     H_    0.928199 0.539324 0.650921 0.186722
Br5   Br    Br    0.376208 0.819980 0.926516 -0.500626
C23   C     C_3   0.817373 0.501642 0.862428 -0.722984
H16   H     H_    0.903730 0.602546 0.846276 0.278582
H17   H     H_    0.893306 0.410178 0.882407 0.292158
H18   H     H_    0.779370 0.457005 0.800139 0.213868
Br6   Br    Br    0.243862 0.227962 0.900312 -0.445864
C24   C     C_3   0.588035 0.214508 0.890738 -0.737999
H19   H     H_    0.551681 0.091094 0.895714 0.288645
H20   H     H_    0.605312 0.232314 0.820567 0.240811
H21   H     H_    0.712058 0.227715 0.913380 0.231086
C25   C     C_3   0.261059 0.277342 0.092161 -0.689716
H22   H     H_    0.161961 0.345510 0.071985 0.286668
H23   H     H_    0.226325 0.153729 0.076808 0.269849
H24   H     H_    0.251816 0.293101 0.163693 0.256553

loop_
_geom_bond_atom_site_label_1
_geom_bond_atom_site_label_2
_ccdc_geom_bond_type
C15   C18   S    
C22   H14   S    
C23   H16   S    
O1    Zn1   S    
O3    Zn1   S    
C16   H3    S    
C11   O4    A    
C12   O6    A    
C14   Br1   S    
C19   H6    S    
C9    C10   D    
C14   C18   S    
C11   O3    A    
C21   H12   S    
C13   C17   S    
C16   H2    S    
C7    C18   S    
N2    Zn1   S    
C2    C19   S    
O8    Zn2   S    
C2    C3    S    
C1    O2    A    
C7    C8    T    
C23   H17   S    
C3    C4    S    
O4    Zn2   S    
C15   H1    S    
C10   C12   S    
C12   O5    A    
N1    Br4   S    
C25   H22   S    
C20   H8    S    
C20   H7    S    
C14   Br5   S    
C21   H11   S    
C22   H13   S    
C19   H5    S    
C24   H21   S    
C15   C23   S    
C10   Br3   S    
C2    C14   S    
C23   H18   S    
C22   H15   S    
C5    Br6   S    
C15   C16   S    
O7    Zn1   S    
C25   H24   S    
O6    Zn2   S    
C13   O7    A    
O5    Zn1   S    
C1    C9    S    
C21   H10   S    
C1    O1    A    
C24   H20   S    
C19   H4    S    
C3    C6    S    
N1    Zn2   S    
C6    C17   T    
C4    C25   S    
N1    N2    D    
C4    C5    S    
N2    C22   S    
C5    C18   S    
C5    C24   S    
C8    C11   S    
C2    Br2   S    
C13   O8    A    
C20   H9    S    
C3    C16   S    
C4    C20   S    
O2    Zn2   S    
C24   H19   S    
C9    C21   S    
C25   H23   S    
