data_mof_unit_6916.cif
_audit_creation_date              2012-12-10T17:35:52-0500
_audit_creation_method            fapswitch 2.2
_symmetry_space_group_name_H-M    P1
_symmetry_Int_Tables_number       1
_space_group_crystal_system       triclinic
_cell_length_a                    10.457
_cell_length_b                    12.187362
_cell_length_c                    12.761912
_cell_angle_alpha                 94.359316
_cell_angle_beta                  92.640638
_cell_angle_gamma                 88.005724
_cell_volume                      1619.19223936

loop_
_atom_site_label
_atom_site_type_symbol
_atom_type_description
_atom_site_fract_x
_atom_site_fract_y
_atom_site_fract_z
_atom_type_partial_charge
C1    C     C_R   0.497825 0.522383 0.699824 0.905023
C2    C     C_R   0.614566 0.166405 0.586818 0.474430
C3    C     C_R   0.547885 0.861828 0.548353 0.001534
C4    C     C_R   0.451717 0.137540 0.452193 0.000770
C5    C     C_R   0.550836 0.977374 0.533170 -0.073609
C6    C     C_R   0.468951 0.020106 0.453619 -0.077278
C7    C     C_R   0.741942 0.501860 0.501126 0.871879
C8    C     C_R   0.258001 0.499008 0.501815 0.870811
C9    C     C_3   0.961951 0.485438 0.600262 -0.163320
C10   C     C_3   0.037316 0.519010 0.407138 -0.133992
C11   C     C_3   0.044380 0.581352 0.573480 -0.199536
C12   C     C_R   0.501040 0.477289 0.300077 0.910826
C13   C     C_3   0.955236 0.423209 0.433898 -0.167510
C14   C     C_3   0.122664 0.498380 0.504495 0.019056
C15   C     C_3   0.877013 0.505451 0.502685 0.006140
C16   C     C_3   0.042960 0.402713 0.531609 -0.099071
C17   C     C_3   0.956313 0.601653 0.475913 -0.140722
C18   C     C_R   0.504828 0.461718 0.188473 -0.149025
C19   C     C_R   0.489528 0.535697 0.811064 -0.118126
C20   C     C_R   0.380836 0.611565 0.962802 0.395093
C21   C     C_R   0.606851 0.380710 0.035358 0.409345
C22   C     C_R   0.400339 0.610281 0.856230 -0.261631
C23   C     C_R   0.560482 0.462269 0.870166 -0.205284
C24   C     C_R   0.588743 0.383000 0.142207 -0.280404
C25   C     C_R   0.341498 0.183228 0.391090 0.191979
C26   C     C_R   0.217532 0.171463 0.425519 -0.169112
C27   C     C_R   0.110711 0.198852 0.361816 -0.182275
C28   C     C_R   0.126570 0.242866 0.265441 -0.127365
C29   C     C_R   0.249543 0.254322 0.230303 -0.145166
C30   C     C_R   0.356322 0.221095 0.291315 -0.083178
C31   C     C_R   0.598316 0.820324 0.648591 0.184829
C32   C     C_R   0.529625 0.844378 0.740083 -0.169485
C33   C     C_R   0.579311 0.811986 0.836995 -0.154385
C34   C     C_R   0.432360 0.533946 0.129250 -0.194491
C35   C     C_R   0.696312 0.753292 0.842944 -0.103284
C36   C     C_R   0.765331 0.729305 0.752406 -0.154095
C37   C     C_R   0.717465 0.764148 0.655925 -0.073328
C38   C     C_R   0.362702 0.970888 0.272464 0.153157
C39   C     C_R   0.232843 0.970989 0.238382 -0.029088
C40   C     C_R   0.197245 0.989179 0.133978 -0.061784
C41   C     C_R   0.290752 0.006763 0.062777 -0.069312
C42   C     C_R   0.420097 0.005544 0.095668 -0.132994
C43   C     C_R   0.456165 0.986985 0.199890 -0.151253
C44   C     C_R   0.749829 0.014133 0.652311 0.149517
C45   C     C_R   0.539995 0.458827 0.975765 0.024112
C46   C     C_R   0.759444 0.025442 0.762833 -0.026261
C47   C     C_R   0.873385 0.995034 0.816337 -0.082584
C48   C     C_R   0.978565 0.954085 0.760035 -0.122768
C49   C     C_R   0.970315 0.944187 0.650080 -0.161277
C50   C     C_R   0.856686 0.974818 0.596225 -0.156368
C51   C     C_R   0.449795 0.535078 0.022917 0.025065
C52   C     C_R   0.403761 0.943840 0.380774 -0.164173
C53   C     C_R   0.632174 0.051928 0.594281 -0.164896
C54   C     C_R   0.402078 0.832167 0.401211 0.475438
Cl1   Cl    Cl    0.267684 0.708471 0.016172 -0.648561
Cl2   Cl    Cl    0.716025 0.280724 0.981000 -0.669749
Cl3   Cl    Cl    0.714909 0.257014 0.664194 -0.610116
Cl4   Cl    Cl    0.297993 0.743610 0.325844 -0.620580
H1    H     H_    0.085278 0.645487 0.630615 0.145687
H2    H     H_    0.344062 0.665454 0.808236 0.177218
H3    H     H_    0.203720 0.136968 0.499800 0.128447
H4    H     H_    0.015608 0.185549 0.387339 0.143455
H5    H     H_    0.043647 0.265317 0.216845 0.151594
H6    H     H_    0.262038 0.284488 0.153941 0.150159
H7    H     H_    0.450088 0.220100 0.258755 0.139890
H8    H     H_    0.438643 0.889515 0.736479 0.125368
H9    H     H_    0.526497 0.831503 0.907334 0.164310
H10   H     H_    0.733985 0.727346 0.917829 0.149672
H11   H     H_    0.857348 0.686128 0.757389 0.139163
H12   H     H_    0.910578 0.361612 0.376317 0.137916
H13   H     H_    0.775705 0.751850 0.588151 0.129501
H14   H     H_    0.159565 0.956924 0.292677 0.138271
H15   H     H_    0.097153 0.989658 0.108282 0.128530
H16   H     H_    0.263013 0.020809 0.982016 0.126424
H17   H     H_    0.492473 0.018530 0.040301 0.144093
H18   H     H_    0.556804 0.984963 0.224134 0.132653
H19   H     H_    0.678738 0.057615 0.807152 0.160141
H20   H     H_    0.880102 0.003141 0.901442 0.145428
H21   H     H_    0.066557 0.930327 0.801609 0.138860
H22   H     H_    0.052015 0.912971 0.606572 0.139266
H23   H     H_    0.925888 0.472439 0.678726 0.171292
H24   H     H_    0.851673 0.967702 0.511026 0.127974
H25   H     H_    0.072962 0.531769 0.328470 0.169819
H26   H     H_    0.081481 0.322786 0.557361 0.158854
H27   H     H_    0.917591 0.682524 0.452355 0.146410
H28   H     H_    0.364974 0.590894 0.167581 0.253101
H29   H     H_    0.629448 0.406303 0.832117 0.248419
H30   H     H_    0.644046 0.326796 0.189767 0.176073
N1    N     N_R   0.523490 0.207800 0.519350 -0.153313
N2    N     N_R   0.476510 0.792200 0.480650 -0.153482
O1    O     O_R   0.506270 0.421700 0.658830 -0.574469
O2    O     O_R   0.493730 0.578300 0.341170 -0.563299
O3    O     O_R   0.491200 0.609310 0.646410 -0.620615
O4    O     O_R   0.508800 0.390690 0.353590 -0.645716
O5    O     O_R   0.693580 0.406210 0.506230 -0.568389
O6    O     O_R   0.306420 0.593790 0.493770 -0.575381
O7    O     O_R   0.678510 0.593830 0.493810 -0.649394
O8    O     O_R   0.321490 0.406170 0.506190 -0.625219
Zn1   Zn    Zn3+2 0.510060 0.374730 0.508290 0.985212
Zn2   Zn    Zn3+2 0.489940 0.625270 0.491710 0.984506

loop_
_geom_bond_atom_site_label_1
_geom_bond_atom_site_label_2
_ccdc_geom_bond_type
C23   C45   A    
C41   C42   A    
C35   C36   A    
C8    O6    A    
C4    C25   S    
C2    Cl3   S    
O2    Zn2   S    
C26   C27   A    
N1    Zn1   S    
C3    N2    A    
C17   H27   S    
O4    Zn1   S    
C48   H21   S    
C5    C53   A    
C28   C29   A    
C9    C16   S    
C54   N2    A    
C20   C51   A    
C22   H2    S    
C38   C39   A    
C11   C14   S    
O5    Zn1   S    
C38   C52   S    
C13   H12   S    
C45   C51   A    
C10   C17   S    
C10   H25   S    
C16   H26   S    
C40   H15   S    
C34   H28   S    
C8    O8    A    
C41   H16   S    
C44   C53   S    
C11   C17   S    
C31   C32   A    
C44   C46   A    
C39   H14   S    
C18   C24   A    
C12   O2    A    
C7    C15   S    
C29   H6    S    
C1    O1    A    
C23   H29   S    
C12   O4    A    
C20   Cl1   S    
C11   H1    S    
N2    Zn2   S    
C52   C54   A    
C21   C45   A    
C18   C34   A    
C1    C19   S    
C19   C22   A    
C4    C6    A    
C10   C14   S    
C39   C40   A    
C25   C26   A    
C2    C53   A    
C34   C51   A    
C31   C37   A    
C2    N1    A    
C19   C23   A    
C29   C30   A    
C27   H4    S    
C21   Cl2   S    
C24   H30   S    
C47   C48   A    
C42   H17   S    
C3    C31   S    
C9    C11   S    
O3    Zn2   S    
C40   C41   A    
C20   C22   A    
O8    Zn1   S    
C37   H13   S    
C14   C16   S    
C21   C24   A    
C42   C43   A    
O7    Zn2   S    
C36   H11   S    
C50   H24   S    
C32   H8    S    
C4    N1    A    
C54   Cl4   S    
C44   C50   A    
C25   C30   A    
C15   C17   S    
C46   C47   A    
C36   C37   A    
C8    C14   S    
C7    O7    A    
C26   H3    S    
C3    C5    A    
C10   C13   S    
C46   H19   S    
C7    O5    A    
C49   H22   S    
O1    Zn1   S    
C32   C33   A    
C13   C15   S    
C9    C15   S    
C38   C43   A    
C33   H9    S    
C5    C6    A    
C35   H10   S    
C48   C49   A    
O6    Zn2   S    
C33   C35   A    
C30   H7    S    
C28   H5    S    
C1    O3    A    
C49   C50   A    
C13   C16   S    
C12   C18   S    
C27   C28   A    
C43   H18   S    
C47   H20   S    
C6    C52   A    
C9    H23   S    
