data_mof_unit_37103.cif
_audit_creation_date              2012-12-11T14:56:42-0500
_audit_creation_method            fapswitch 2.2
_symmetry_space_group_name_H-M    P1
_symmetry_Int_Tables_number       1
_space_group_crystal_system       triclinic
_cell_length_a                    10.574217
_cell_length_b                    10.700564
_cell_length_c                    17.174512
_cell_angle_alpha                 80.222947
_cell_angle_beta                  89.704996
_cell_angle_gamma                 119.289861
_cell_volume                      1661.41908149

loop_
_atom_site_label
_atom_site_type_symbol
_atom_type_description
_atom_site_fract_x
_atom_site_fract_y
_atom_site_fract_z
_atom_type_partial_charge
C1    C     C_R   0.222834 0.854346 0.128786 0.542837
C2    C     C_1   0.653311 0.348044 0.707859 0.029478
C3    C     C_R   0.630352 0.716821 0.803654 0.303057
C4    C     C_R   0.635296 0.278602 0.086955 0.573599
C5    C     C_R   0.617828 0.700882 0.725899 -0.156322
C6    C     C_R   0.669292 0.823875 0.664526 -0.036784
C7    C     C_R   0.741772 0.965387 0.680498 0.238473
C8    C     C_R   0.751555 0.981461 0.759795 0.307343
C9    C     C_R   0.689104 0.856317 0.821290 0.008666
C10   C     C_R   0.254957 0.976042 0.754907 0.237796
C11   C     C_R   0.241510 0.958885 0.676385 0.314379
C12   C     C_R   0.794012 0.409064 0.265647 -0.208998
C13   C     C_R   0.166613 0.818590 0.659496 0.004315
C14   C     C_R   0.125235 0.694839 0.719918 0.308302
C15   C     C_R   0.145476 0.711597 0.797802 -0.153764
C16   C     C_R   0.640109 0.858419 0.125492 0.547996
C17   C     C_R   0.203474 0.850366 0.815949 -0.052341
C18   C     C_R   0.686913 0.809737 0.357061 0.544906
C19   C     C_R   0.689029 0.395716 0.394957 0.600861
C20   C     C_R   0.103478 0.810299 0.359069 0.553258
C21   C     C_R   0.677511 0.800164 0.585219 0.591089
C22   C     C_R   0.679481 0.383674 0.624770 0.587120
C23   C     C_R   0.784185 0.396970 0.187490 -0.201666
C24   C     C_R   0.101316 0.802279 0.585328 0.597855
C25   C     C_R   0.231079 0.868450 0.896808 0.574368
C26   C     C_R   0.637882 0.285352 0.861061 0.605550
C27   C     C_R   0.646841 0.867843 0.898819 0.600736
C28   C     C_R   0.522452 0.307643 0.205715 0.253865
C29   C     C_R   0.533986 0.321147 0.285458 0.356762
C30   C     C_R   0.668686 0.366356 0.315716 0.009508
C31   C     C_R   0.648354 0.338256 0.158225 0.017784
C32   C     C_1   0.668646 0.848408 0.205461 -0.017934
C33   C     C_1   0.680695 0.839075 0.274707 -0.020006
C34   C     C_1   0.180586 0.825736 0.211274 -0.025205
C35   C     C_1   0.151120 0.819943 0.279702 -0.021036
C36   C     C_1   0.645933 0.326012 0.778342 0.081618
Cr1   Cr    Cr6+3 0.402240 0.783890 0.019450 1.080580
Cr2   Cr    Cr6+3 0.382360 0.097900 0.991800 1.147164
Cr3   Cr    Cr6+3 0.715380 0.118170 0.988700 1.100877
Cr4   Cr    Cr6+3 0.936650 0.882420 0.465510 1.131449
Cr5   Cr    Cr6+3 0.605770 0.565620 0.493360 1.127136
Cr6   Cr    Cr6+3 0.921340 0.550490 0.496380 1.107529
F1    F     F_    0.293953 0.078569 0.616661 -0.605276
F2    F     F_    0.056236 0.557261 0.705002 -0.575913
F3    F     F_    0.414664 0.287232 0.333694 -0.611602
F4    F     F_    0.576983 0.595261 0.861974 -0.607421
F5    F     F_    0.812204 0.117687 0.776480 -0.595909
H1    H     H_    0.111263 0.615872 0.844312 0.183857
H2    H     H_    0.901143 0.453091 0.286626 0.169401
H3    H     H_    0.882144 0.425081 0.151278 0.164566
H4    H     H_    0.570919 0.591615 0.713604 0.174847
H5    H     H_    0.313715 0.242270 0.215008 0.375513
H6    H     H_    0.852104 0.175493 0.638672 0.399143
H7    H     H_    0.336812 0.188210 0.725166 0.374987
O1    O     O_R   0.521780 0.757110 0.108900 -0.491933
O2    O     O_R   0.805020 0.410040 0.421340 -0.524644
O3    O     O_R   0.049240 0.685450 0.403290 -0.516181
O4    O     O_R   0.275160 0.783810 0.101120 -0.504367
O5    O     O_R   0.077520 0.903010 0.551800 -0.439484
O6    O     O_R   0.802980 0.872780 0.546830 -0.455744
O7    O     O_R   0.578090 0.681300 0.569920 -0.519643
O8    O     O_R   0.608530 0.436370 0.586530 -0.491998
O9    O     O_R   0.798770 0.401880 0.597100 -0.453897
O10   O     O_R   0.043450 0.677890 0.566230 -0.451778
O11   O     O_3   0.821250 0.666180 0.485090 -0.322854
O12   O     O_R   0.513330 0.228330 0.898660 -0.455060
O13   O     O_R   0.237900 0.972600 0.090980 -0.481146
O14   O     O_R   0.511190 0.220540 0.061620 -0.432906
O15   O     O_R   0.736920 0.257720 0.063840 -0.536105
O16   O     O_R   0.710450 0.984050 0.081720 -0.503773
O17   O     O_R   0.524090 0.765520 0.933110 -0.454586
O18   O     O_R   0.277300 0.791600 0.938160 -0.518214
O19   O     O_R   0.240210 0.981010 0.915190 -0.440426
O20   O     O_3   0.390109 0.259788 0.174174 -0.652762
O21   O     O_3   0.798823 0.084175 0.617961 -0.646511
O22   O     O_3   0.318146 0.113670 0.773374 -0.650091
O23   O     O_R   0.739230 0.266130 0.888050 -0.457136
O24   O     O_R   0.712580 0.991850 0.918770 -0.446755
O25   O     O_3   0.499990 0.999980 0.999980 -0.306768
O26   O     O_R   0.083770 0.911170 0.376030 -0.468392
O27   O     O_R   0.808770 0.880340 0.383890 -0.498983
O28   O     O_R   0.584340 0.689460 0.394160 -0.488753
O29   O     O_R   0.614320 0.443940 0.423590 -0.427504

loop_
_geom_bond_atom_site_label_1
_geom_bond_atom_site_label_2
_ccdc_geom_bond_type
C19   O2    A    
Cr4   O6    S    
Cr5   O7    S    
C27   O24   A    
C28   O20   S    
C12   H2    S    
C7    C8    A    
Cr1   O25   S    
C12   C23   A    
Cr3   O23   S    
C28   C29   A    
H5    O20   S    
C5    C6    A    
Cr2   O25   S    
C10   C17   A    
Cr5   O29   S    
C18   O27   A    
C34   C35   T    
Cr6   O2    S    
C22   O9    A    
C20   C35   S    
C10   O22   S    
Cr2   O12   S    
C8    C9    A    
C2    C22   S    
Cr6   O11   S    
Cr4   O26   S    
C11   F1    S    
C21   O7    A    
Cr1   O4    S    
C24   O10   A    
Cr4   O5    S    
C13   C14   A    
H6    O21   S    
Cr5   O8    S    
C19   O29   A    
Cr6   O3    S    
C4    O15   A    
C1    C34   S    
C26   O23   A    
C20   O26   A    
C26   O12   A    
Cr3   O24   S    
C16   O16   A    
C21   O6    A    
C4    O14   A    
C23   H3    S    
C7    O21   S    
C6    C21   S    
C13   C24   S    
C29   F3    S    
Cr3   O25   S    
C29   C30   A    
C3    C9    A    
C22   O8    A    
Cr3   O15   S    
C25   O18   A    
H7    O22   S    
C26   C36   S    
Cr2   O14   S    
Cr4   O11   S    
Cr1   O17   S    
Cr6   O10   S    
C27   O17   A    
C9    C27   S    
C14   F2    S    
C2    C36   T    
C15   C17   A    
C12   C30   A    
C15   H1    S    
Cr4   O27   S    
C28   C31   A    
C3    C5    A    
Cr5   O11   S    
C6    C7    A    
C1    O13   A    
C16   C32   S    
C3    F4    S    
C17   C25   S    
C32   C33   T    
C8    F5    S    
C1    O4    A    
C11   C13   A    
C24   O5    A    
Cr5   O28   S    
C18   O28   A    
Cr3   O16   S    
C25   O19   A    
C18   C33   S    
C16   O1    A    
C4    C31   S    
C10   C11   A    
Cr1   O1    S    
Cr2   O13   S    
Cr1   O18   S    
C14   C15   A    
C5    H4    S    
C20   O3    A    
C19   C30   S    
Cr6   O9    S    
C23   C31   A    
Cr2   O19   S    
