data_mof_unit_21841.cif
_audit_creation_date              2012-12-11T15:08:35-0500
_audit_creation_method            fapswitch 2.2
_symmetry_space_group_name_H-M    P1
_symmetry_Int_Tables_number       1
_space_group_crystal_system       triclinic
_cell_length_a                    26.787006
_cell_length_b                    7.205056
_cell_length_c                    12.158538
_cell_angle_alpha                 90.000011
_cell_angle_beta                  104.195048
_cell_angle_gamma                 89.999848
_cell_volume                      2274.97024147

loop_
_atom_site_label
_atom_site_type_symbol
_atom_type_description
_atom_site_fract_x
_atom_site_fract_y
_atom_site_fract_z
_atom_type_partial_charge
O1    O     O_R   0.437360 0.505910 0.042120 -0.529349
O2    O     O_R   0.562640 0.005910 0.957880 -0.529348
O3    O     O_R   0.542480 0.176660 0.157100 -0.539641
O4    O     O_R   0.457520 0.676660 0.842900 -0.539641
C1    C     C_R   0.555988 0.344523 0.197337 0.693825
C2    C     C_R   0.444012 0.844524 0.802663 0.693827
O5    O     O_R   0.436520 0.176250 0.054800 -0.538699
O6    O     O_R   0.563480 0.676250 0.945200 -0.538701
O7    O     O_R   0.455920 0.005040 0.854840 -0.543530
O8    O     O_R   0.544080 0.505040 0.145160 -0.543530
C3    C     C_R   0.417614 0.344420 0.061790 0.676127
C4    C     C_R   0.582386 0.844419 0.938210 0.676125
O9    O     O_3   0.506490 0.338900 0.934520 -0.377317
O10   O     O_3   0.493510 0.838900 0.065480 -0.377316
V1    V     V_3+5 0.498800 0.064400 0.012150 1.470505
V2    V     V_3+5 0.501200 0.564400 0.987850 1.470503
C5    C     C_R   0.679918 0.869420 0.764553 -0.152153
C6    C     C_R   0.320082 0.369458 0.235446 -0.152153
H1    H     H_    0.597472 0.867939 0.727594 0.096789
H2    H     H_    0.402528 0.367984 0.272405 0.096789
H3    H     H_    0.773260 0.882849 0.727535 0.137808
H4    H     H_    0.226740 0.382884 0.272464 0.137808
H5    H     H_    0.679865 0.879263 0.676103 0.120199
H6    H     H_    0.320135 0.379322 0.323896 0.120199
C7    C     C_R   0.631707 0.851755 0.907326 -0.006983
C8    C     C_R   0.368293 0.351759 0.092673 -0.006982
C9    C     C_R   0.869861 0.864778 0.211357 -0.215210
C10   C     C_R   0.130139 0.364776 0.788643 -0.215214
C11   C     C_R   0.824589 0.863907 0.248421 0.521704
C12   C     C_R   0.175411 0.363908 0.751579 0.521706
C13   C     C_R   0.776898 0.862139 0.166915 -0.269138
C14   C     C_R   0.223102 0.362140 0.833086 -0.269142
C15   C     C_R   0.774018 0.855788 0.049119 0.003766
C16   C     C_R   0.225982 0.355787 0.950881 0.003764
C17   C     C_R   0.820943 0.860311 0.013756 0.046191
C18   C     C_R   0.179057 0.360312 0.986244 0.046191
C19   C     C_R   0.726066 0.855289 0.965163 0.106311
C20   C     C_R   0.273934 0.355293 0.034837 0.106308
C21   C     C_R   0.726350 0.865840 0.848536 0.138176
C22   C     C_R   0.273650 0.365862 0.151464 0.138176
C23   C     C_R   0.772824 0.873808 0.816260 -0.214257
C24   C     C_R   0.227175 0.373832 0.183739 -0.214256
C25   C     C_R   0.819368 0.870046 0.897249 -0.186380
C26   C     C_R   0.180632 0.370056 0.102750 -0.186379
C27   C     C_R   0.677635 0.845007 0.992331 -0.145724
C28   C     C_R   0.322365 0.344998 0.007669 -0.145724
C29   C     C_R   0.632917 0.863464 0.793684 -0.146530
C30   C     C_R   0.367083 0.363495 0.206315 -0.146529
C31   C     C_R   0.868677 0.859876 0.095872 -0.179576
C32   C     C_R   0.131323 0.359875 0.904128 -0.179574
H7    H     H_    0.674000 0.830210 0.078225 0.095777
H8    H     H_    0.325999 0.330182 0.921776 0.095774
H9    H     H_    0.906513 0.871649 0.273649 0.122842
H10   H     H_    0.093487 0.371647 0.726351 0.122842
H11   H     H_    0.742672 0.872788 0.197148 0.127507
H12   H     H_    0.257328 0.372792 0.802853 0.127510
H13   H     H_    0.854260 0.875729 0.867515 0.129936
H14   H     H_    0.145740 0.375740 0.132485 0.129936
C33   C     C_R   0.090482 0.860135 0.311280 -0.023795
C34   C     C_R   0.909518 0.360136 0.688720 -0.023793
C35   C     C_R   0.409636 0.850682 0.689075 -0.031077
C36   C     C_R   0.590365 0.350681 0.310925 -0.031077
C37   C     C_R   0.103287 0.816888 0.512690 -0.082637
C38   C     C_R   0.896714 0.316882 0.487310 -0.082643
C39   C     C_R   0.070546 0.823414 0.404476 -0.196836
C40   C     C_R   0.929454 0.323410 0.595525 -0.196831
C41   C     C_R   0.143315 0.888516 0.326556 -0.193593
C42   C     C_R   0.856685 0.388518 0.673441 -0.193609
C43   C     C_R   0.178131 0.866748 0.434379 -0.003244
C44   C     C_R   0.821870 0.366738 0.565619 -0.003238
C45   C     C_R   0.157030 0.838158 0.529039 0.056758
C46   C     C_R   0.842971 0.338150 0.470960 0.056763
C47   C     C_R   0.232778 0.867997 0.449838 0.019949
C48   C     C_R   0.767223 0.367978 0.550161 0.019945
C49   C     C_R   0.266207 0.859205 0.561515 -0.056603
C50   C     C_R   0.733793 0.359194 0.438483 -0.056603
C51   C     C_R   0.243276 0.832180 0.655560 -0.191463
C52   C     C_R   0.756725 0.332174 0.344438 -0.191462
C53   C     C_R   0.189187 0.825434 0.638611 0.369465
C54   C     C_R   0.810814 0.325428 0.361388 0.369467
C55   C     C_R   0.254701 0.863342 0.355370 -0.213272
C56   C     C_R   0.745301 0.363296 0.644629 -0.213269
C57   C     C_R   0.307187 0.842897 0.366565 -0.072444
C58   C     C_R   0.692814 0.342865 0.633434 -0.072445
C59   C     C_R   0.340767 0.834622 0.474738 0.091916
C60   C     C_R   0.659234 0.334608 0.525261 0.091916
C61   C     C_R   0.321082 0.859746 0.572436 0.094229
C62   C     C_R   0.678918 0.359737 0.427563 0.094230
C63   C     C_R   0.393957 0.803358 0.487639 -0.171343
C64   C     C_R   0.606044 0.303353 0.512360 -0.171340
C65   C     C_R   0.427614 0.802722 0.594765 -0.178302
C66   C     C_R   0.572386 0.302723 0.405235 -0.178303
C67   C     C_R   0.357575 0.890405 0.676547 -0.211782
C68   C     C_R   0.642425 0.390399 0.323453 -0.211783
H15   H     H_    0.346924 0.949854 0.748780 0.123600
H16   H     H_    0.653077 0.449847 0.251219 0.123600
H17   H     H_    0.467946 0.770843 0.603703 0.105505
H18   H     H_    0.532054 0.270849 0.396297 0.105506
H19   H     H_    0.086212 0.792472 0.583439 0.149670
H20   H     H_    0.913789 0.292465 0.416562 0.149670
H21   H     H_    0.029552 0.802846 0.393639 0.104218
H22   H     H_    0.970448 0.302841 0.606363 0.104217
H23   H     H_    0.155670 0.929775 0.252591 0.103169
H24   H     H_    0.844329 0.429791 0.747402 0.103177
H25   H     H_    0.231583 0.865255 0.269959 0.133996
H26   H     H_    0.768420 0.365165 0.730038 0.133997
H27   H     H_    0.409700 0.775283 0.415385 0.126967
H28   H     H_    0.590301 0.275277 0.584614 0.126968
O11   O     O_R   0.955980 0.206520 0.854760 -0.535852
O12   O     O_R   0.044020 0.706520 0.145240 -0.535853
O13   O     O_R   0.063490 0.536770 0.945200 -0.543360
O14   O     O_R   0.936510 0.036770 0.054800 -0.543361
C69   C     C_R   0.082156 0.368290 0.937020 0.697738
C70   C     C_R   0.917844 0.868291 0.062980 0.697737
O15   O     O_R   0.957530 0.536190 0.842880 -0.541365
O16   O     O_R   0.042470 0.036190 0.157120 -0.541365
O17   O     O_R   0.937350 0.707210 0.042130 -0.543703
O18   O     O_R   0.062650 0.207210 0.957870 -0.543702
C71   C     C_R   0.943570 0.367963 0.803048 0.685427
C72   C     C_R   0.056429 0.867963 0.196953 0.685427
O19   O     O_3   0.993540 0.373870 0.065440 -0.376777
O20   O     O_3   0.006460 0.873870 0.934560 -0.376777
V3    V     V_3+5 0.001200 0.648440 0.987860 1.409956
V4    V     V_3+5 0.998800 0.148440 0.012140 1.409956
C73   C     C_1   0.325498 0.837923 0.263938 0.288994
N1    N     N_1   0.339962 0.834646 0.181728 -0.325389
C74   C     C_1   0.674504 0.337881 0.736061 0.288997
N2    N     N_1   0.660040 0.334598 0.818272 -0.325387
C75   C     C_1   0.273076 0.779558 0.767728 0.301039
N3    N     N_1   0.296633 0.737754 0.857434 -0.364061
C76   C     C_1   0.726925 0.279555 0.232270 0.301038
N4    N     N_1   0.703368 0.237755 0.142563 -0.364060
O21   O     O_3   0.829161 0.887732 0.364276 -0.559697
C77   C     C_3   0.792792 0.784052 0.405955 0.050699
H29   H     H_    0.813989 0.712068 0.483792 0.154835
H30   H     H_    0.772444 0.677907 0.345897 0.094631
C78   C     C_3   0.753789 0.912923 0.438703 -0.304142
H31   H     H_    0.773920 0.003064 0.509554 0.212088
H32   H     H_    0.735388 0.995684 0.364188 0.211205
C79   C     C_3   0.710339 0.811634 0.472815 -0.844915
H33   H     H_    0.688792 0.726923 0.400823 0.242956
H34   H     H_    0.683113 0.915320 0.492253 0.233732
H35   H     H_    0.725488 0.724257 0.548547 0.243281
O22   O     O_3   0.170839 0.387735 0.635724 -0.559696
C80   C     C_3   0.207209 0.284058 0.594044 0.050702
H36   H     H_    0.186012 0.212076 0.516207 0.154836
H37   H     H_    0.227557 0.177913 0.654102 0.094631
C81   C     C_3   0.246211 0.412933 0.561298 -0.304143
H38   H     H_    0.226080 0.503079 0.490450 0.212088
H39   H     H_    0.264612 0.495689 0.635815 0.211205
C82   C     C_3   0.289661 0.311648 0.527182 -0.844914
H40   H     H_    0.311208 0.226930 0.599171 0.242957
H41   H     H_    0.316887 0.415337 0.507748 0.233732
H42   H     H_    0.274512 0.224279 0.451447 0.243283
O23   O     O_3   0.167434 0.766813 0.724905 -0.564831
C83   C     C_3   0.170537 0.903307 0.809552 0.044082
H43   H     H_    0.134790 0.987545 0.788785 0.131102
H44   H     H_    0.204533 0.995764 0.820300 0.118449
C84   C     C_3   0.173911 0.799950 0.919957 -0.256074
H45   H     H_    0.138470 0.717238 0.910005 0.220004
H46   H     H_    0.208072 0.708850 0.935821 0.234222
C85   C     C_3   0.178988 0.920602 0.023474 -0.826084
H47   H     H_    0.215381 0.000836 0.040378 0.252836
H48   H     H_    0.180048 0.827325 0.096206 0.214090
H49   H     H_    0.144989 0.011585 0.013577 0.248856
O24   O     O_3   0.832567 0.266810 0.275094 -0.564832
C86   C     C_3   0.829464 0.403306 0.190447 0.044080
H50   H     H_    0.865211 0.487546 0.211216 0.131103
H51   H     H_    0.795467 0.495761 0.179698 0.118449
C87   C     C_3   0.826092 0.299950 0.080042 -0.256077
H52   H     H_    0.861532 0.217239 0.089996 0.220006
H53   H     H_    0.791930 0.208849 0.064177 0.234222
C88   C     C_3   0.821015 0.420602 0.976526 -0.826086
H54   H     H_    0.784622 0.500833 0.959618 0.252838
H55   H     H_    0.819958 0.327326 0.903795 0.214086
H56   H     H_    0.855013 0.511585 0.986424 0.248858

loop_
_geom_bond_atom_site_label_1
_geom_bond_atom_site_label_2
_ccdc_geom_bond_type
C11   O21   S    
C37   C39   A    
C33   C72   S    
C9    C11   A    
C23   C25   A    
C40   H22   S    
O1    C3    A    
C79   H35   S    
C39   H21   S    
C38   C46   A    
O2    C4    A    
C77   C78   S    
O14   C70   A    
C80   H36   S    
C66   H18   S    
C86   H51   S    
H4    C24   S    
C88   H54   S    
O5    C3    A    
C78   H32   S    
C5    H5    S    
C48   C50   A    
C6    H6    S    
C2    C35   S    
C83   H43   S    
C50   C52   A    
O14   V4    S    
H1    C29   S    
C87   H52   S    
C27   H7    S    
C28   H8    S    
C46   C54   A    
C12   O22   S    
O19   V3    S    
C34   C71   S    
C5    C21   A    
C82   H42   S    
C54   O24   S    
C43   C45   A    
C6    C22   A    
O19   V4    S    
C37   H19   S    
C33   C41   A    
C10   C32   A    
C56   H26   S    
C26   H14   S    
C35   C67   A    
C36   C66   A    
C44   C48   A    
C82   H40   S    
C13   C15   A    
C43   C47   A    
C63   C65   A    
C17   C25   A    
C7    C29   A    
C16   C18   A    
C8    C30   A    
C58   C74   S    
C88   H55   S    
C31   C70   S    
C34   C40   A    
C67   H15   S    
C22   C24   A    
C47   C49   A    
O24   C86   S    
C24   C26   A    
C2    O7    A    
C11   C13   A    
C47   C55   A    
C80   H37   S    
C86   C87   S    
C85   H48   S    
C51   C53   A    
C78   C79   S    
C62   C68   A    
O15   V3    S    
C59   C61   A    
C41   H23   S    
C12   C14   A    
C5    C29   A    
C81   C82   S    
C79   H33   S    
C21   C23   A    
C57   C73   S    
O12   C72   A    
C86   H50   S    
C10   H10   S    
C77   H30   S    
C3    C8    S    
O13   V3    S    
C15   C19   A    
C45   C53   A    
O16   C72   A    
C41   C43   A    
C38   C40   A    
O4    V2    S    
C52   C76   S    
C17   C31   A    
O12   V3    S    
C85   H49   S    
C64   C66   A    
C84   H45   S    
C38   H20   S    
O6    C4    A    
C63   H27   S    
C84   H46   S    
C84   C85   S    
O13   C69   A    
O1    V2    S    
O18   V4    S    
C65   H17   S    
C68   H16   S    
O2    V1    S    
C49   C51   A    
H2    C30   S    
C35   C65   A    
H3    C23   S    
C81   H39   S    
C49   C61   A    
C57   C59   A    
C37   C45   A    
O15   C71   A    
C36   C68   A    
C60   C64   A    
C73   N1    T    
C18   C26   A    
O4    C2    A    
C19   C27   A    
C74   N2    T    
C7    C27   A    
C52   C54   A    
C80   C81   S    
C18   C32   A    
O11   C71   A    
C75   N3    T    
C48   C56   A    
C88   H56   S    
C55   H25   S    
C50   C62   A    
C59   C63   A    
O16   V4    S    
C16   C20   A    
C83   C84   S    
C42   H24   S    
C79   H34   S    
O22   C80   S    
O3    C1    A    
C6    C30   A    
C55   C57   A    
C51   C75   S    
C9    H9    S    
O11   V4    S    
C77   H29   S    
C85   H47   S    
C78   H31   S    
C56   C58   A    
C4    C7    S    
C32   C69   S    
C83   H44   S    
O17   V3    S    
C64   H28   S    
C10   C12   A    
C19   C21   A    
O8    V2    S    
C33   C39   A    
C20   C22   A    
O21   C77   S    
C87   H53   S    
C61   C67   A    
O5    V1    S    
C15   C17   A    
C1    C36   S    
C60   C62   A    
C81   H38   S    
C82   H41   S    
O7    V1    S    
C20   C28   A    
C70   O17   A    
C25   H13   S    
C53   O23   S    
C69   O18   A    
C9    C31   A    
C1    O8    A    
C34   C42   A    
O6    V2    S    
O9    V2    S    
O23   C83   S    
C42   C44   A    
O10   V1    S    
C58   C60   A    
O3    V1    S    
C44   C46   A    
C13   H11   S    
O20   V3    S    
C8    C28   A    
O20   V4    S    
C14   H12   S    
C76   N4    T    
C14   C16   A    
C87   C88   S    
