data_mof_unit_46862.cif
_audit_creation_date              2012-12-10T19:00:47-0500
_audit_creation_method            fapswitch 2.2
_symmetry_space_group_name_H-M    P1
_symmetry_Int_Tables_number       1
_space_group_crystal_system       triclinic
_cell_length_a                    15.076929
_cell_length_b                    10.824961
_cell_length_c                    9.559554
_cell_angle_alpha                 89.988806
_cell_angle_beta                  89.66625
_cell_angle_gamma                 90.340057
_cell_volume                      1560.13375045

loop_
_atom_site_label
_atom_site_type_symbol
_atom_type_description
_atom_site_fract_x
_atom_site_fract_y
_atom_site_fract_z
_atom_type_partial_charge
C1    C     C_R   0.497879 0.262454 0.500015 0.839707
C2    C     C_R   0.908224 0.535699 0.381758 0.135748
C3    C     C_R   0.951446 0.410371 0.738034 0.606785
C4    C     C_R   0.044064 0.406280 0.739049 0.305744
C5    C     C_R   0.092742 0.449880 0.621040 -0.106625
C6    C     C_R   0.046762 0.490922 0.500962 0.024322
C7    C     C_R   0.093713 0.531769 0.380925 0.144609
C8    C     C_R   0.047844 0.572586 0.262681 -0.165041
C9    C     C_R   0.955586 0.575065 0.263320 -0.143043
C10   C     C_R   0.185675 0.457020 0.620521 -0.175745
C11   C     C_R   0.231932 0.496496 0.500869 -0.071308
C12   C     C_R   0.328716 0.499352 0.500357 0.803708
C13   C     C_R   0.185925 0.532320 0.381133 -0.216127
C14   C     C_R   0.489952 0.063615 0.625247 0.156294
C15   C     C_R   0.487990 0.129532 0.500031 -0.193556
C16   C     C_R   0.472463 0.065256 0.374790 -0.271277
C17   C     C_R   0.472263 0.936424 0.373776 0.595740
C18   C     C_R   0.487954 0.870951 0.498951 -0.230671
C19   C     C_R   0.490167 0.936500 0.624625 0.053597
C20   C     C_3   0.554877 0.930585 0.742045 -0.425982
C21   C     C_3   0.554259 0.070787 0.743188 -0.409260
C22   C     C_R   0.555063 0.577615 0.073059 0.127208
C23   C     C_R   0.497803 0.737721 0.499717 0.833602
C24   C     C_R   0.441569 0.429629 0.075066 -0.117421
C25   C     C_R   0.441801 0.429017 0.926394 0.674129
C26   C     C_R   0.553943 0.579464 0.925346 -0.003891
C27   C     C_3   0.652969 0.582023 0.918037 0.178519
C28   C     C_3   0.654045 0.577234 0.076286 0.345298
C29   C     C_R   0.671364 0.499643 0.499814 0.808176
C30   C     C_R   0.815944 0.539399 0.383233 -0.158087
C31   C     C_R   0.768280 0.497633 0.500075 -0.081852
C32   C     C_R   0.813422 0.453608 0.617513 -0.128827
C33   C     C_R   0.906023 0.452298 0.619709 -0.110118
C34   C     C_R   0.953713 0.492554 0.500791 -0.021693
Cu1   Cu    Cu3+1 0.500000 0.499980 0.640670 1.021443
Cu2   Cu    Cu3+1 0.500000 0.500020 0.359330 1.026911
H1    H     H_    0.781487 0.576497 0.294163 0.181862
H2    H     H_    0.525137 0.888957 0.837872 0.222288
H3    H     H_    0.619702 0.891500 0.708896 0.223501
H4    H     H_    0.523747 0.110125 0.839371 0.228855
H5    H     H_    0.618827 0.112945 0.711821 0.197579
H6    H     H_    0.395505 0.370668 0.131424 0.159551
H7    H     H_    0.681859 0.498905 0.868452 0.193923
H8    H     H_    0.776357 0.418490 0.706257 0.191288
H9    H     H_    0.682883 0.659727 0.128569 0.072085
H10   H     H_    0.223158 0.432685 0.712424 0.199958
H11   H     H_    0.221914 0.563472 0.288963 0.163591
H12   H     H_    0.083388 0.603643 0.170141 0.163720
H13   H     H_    0.921251 0.607785 0.171264 0.171794
H14   H     H_    0.464682 0.114004 0.276683 0.197490
N1    N     N_R   0.500570 0.500930 0.147930 -0.184248
N2    N     N_R   0.500570 0.500890 0.852020 -0.239426
O1    O     O_R   0.500000 0.319640 0.618810 -0.544141
O2    O     O_R   0.500010 0.319680 0.381230 -0.580467
O3    O     O_R   0.370250 0.499950 0.618800 -0.541122
O4    O     O_R   0.370260 0.499990 0.381220 -0.595236
O5    O     O_R   0.499990 0.680320 0.618770 -0.570577
O6    O     O_R   0.500000 0.680360 0.381190 -0.529701
O7    O     O_R   0.629740 0.500010 0.618780 -0.593419
O8    O     O_R   0.629750 0.500050 0.381200 -0.527774
F1    F     F_    0.461488 0.877484 0.249594 -0.657683
F2    F     F_    0.384587 0.353659 0.857978 -0.668607
O9    O     O_3   0.687085 0.692817 0.861919 -0.721295
H15   H     H_    0.660914 0.763118 0.914218 0.314870
F3    F     F_    0.687010 0.465255 0.122253 -0.635857
F4    F     F_    0.905809 0.370726 0.852779 -0.615630
O10   O     O_3   0.083726 0.359294 0.857223 -0.661991
H16   H     H_    0.137295 0.313185 0.828505 0.333803

loop_
_geom_bond_atom_site_label_1
_geom_bond_atom_site_label_2
_ccdc_geom_bond_type
C10   H10   S    
C23   O6    A    
C11   C12   S    
C8    H12   S    
C6    C7    A    
C1    C15   S    
C26   N2    A    
Cu1   O1    S    
C20   H2    S    
C19   C20   S    
C29   O8    A    
C2    C30   A    
Cu1   O5    S    
C6    C34   A    
C32   C33   A    
C2    C34   A    
C24   N1    A    
C7    C13   A    
C17   C18   A    
C32   H8    S    
C25   N2    A    
C9    H13   S    
C5    C10   A    
C29   C31   S    
C22   C28   S    
C24   C25   A    
C4    C5    A    
C11   C13   A    
C26   C27   S    
C12   O4    A    
Cu2   N1    S    
C27   O9    S    
C1    O2    A    
Cu2   O4    S    
C5    C6    A    
C14   C21   S    
C13   H11   S    
C16   H14   S    
C33   C34   A    
Cu2   O6    S    
C25   F2    S    
C22   C26   A    
C30   C31   A    
C21   H5    S    
C28   H9    S    
C12   O3    A    
Cu2   O2    S    
C15   C16   A    
C3    C33   A    
O9    H15   S    
Cu1   O3    S    
C18   C23   S    
C3    F4    S    
C27   H7    S    
C7    C8    A    
C24   H6    S    
C20   C21   S    
C30   H1    S    
Cu1   O7    S    
C18   C19   A    
C10   C11   A    
C27   C28   S    
C23   O5    A    
C20   H3    S    
C29   O7    A    
Cu1   N2    S    
C8    C9    A    
C1    O1    A    
Cu1   Cu2   S    
C17   F1    S    
C14   C15   A    
C2    C9    A    
C28   F3    S    
C14   C19   A    
C31   C32   A    
C3    C4    A    
O10   H16   S    
C16   C17   A    
C22   N1    A    
Cu2   O8    S    
C4    O10   S    
C21   H4    S    
