data_mof_unit_49267.cif
_audit_creation_date              2012-12-10T18:01:15-0500
_audit_creation_method            fapswitch 2.2
_symmetry_space_group_name_H-M    P1
_symmetry_Int_Tables_number       1
_space_group_crystal_system       triclinic
_cell_length_a                    9.565014
_cell_length_b                    10.781555
_cell_length_c                    16.264357
_cell_angle_alpha                 91.649105
_cell_angle_beta                  87.369265
_cell_angle_gamma                 90.433852
_cell_volume                      1674.77912283

loop_
_atom_site_label
_atom_site_type_symbol
_atom_type_description
_atom_site_fract_x
_atom_site_fract_y
_atom_site_fract_z
_atom_type_partial_charge
C1    C     C_R   0.500701 0.737456 0.500167 0.977321
C2    C     C_R   0.499160 0.262425 0.499468 0.875768
C3    C     C_R   0.581924 0.932435 0.439064 0.366739
C4    C     C_R   0.416339 0.066616 0.558429 0.330985
C5    C     C_R   0.574758 0.061275 0.435095 0.290319
C6    C     C_R   0.423729 0.936766 0.561882 0.288039
C7    C     C_R   0.496627 0.128241 0.497216 -0.320020
C8    C     C_R   0.502220 0.871289 0.500357 -0.301665
C9    C     C_R   0.922277 0.590713 0.542461 0.320725
C10   C     C_R   0.079256 0.411377 0.456046 0.425290
C11   C     C_R   0.072574 0.587566 0.545268 0.297263
C12   C     C_R   0.930145 0.409124 0.457634 0.267518
C13   C     C_R   0.483210 0.502586 0.653243 0.944779
C14   C     C_R   0.516395 0.498875 0.346725 0.874528
C15   C     C_R   0.475699 0.523539 0.744728 -0.364200
C16   C     C_R   0.516517 0.508203 0.255037 -0.363350
C17   C     C_R   0.573025 0.603471 0.782308 0.422064
C18   C     C_R   0.398778 0.463544 0.213443 0.321201
C19   C     C_R   0.542518 0.656114 0.861176 0.255345
C20   C     C_R   0.363237 0.516622 0.138580 0.293037
C21   C     C_R   0.425796 0.613138 0.909525 -0.374389
C22   C     C_R   0.454891 0.601969 0.100158 -0.310527
C23   C     C_R   0.343963 0.515087 0.877710 0.369292
C24   C     C_R   0.587896 0.623617 0.132669 0.350153
C25   C     C_R   0.362120 0.477212 0.793324 0.329582
C26   C     C_R   0.617823 0.579587 0.211037 0.377658
C27   C     C_2   0.360293 0.699533 0.973617 0.499576
C28   C     C_2   0.388404 0.703320 0.054723 0.527619
Cu1   Cu    Cu3+1 0.359340 0.499980 0.500000 1.073478
Cu2   Cu    Cu3+1 0.640660 0.500020 0.500000 1.023949
N1    N     N_R   0.147930 0.499970 0.499980 -0.216695
N2    N     N_R   0.852070 0.500030 0.500020 -0.228248
O1    O     O_R   0.381260 0.680340 0.500000 -0.523471
O2    O     O_R   0.618740 0.319660 0.500000 -0.575240
O3    O     O_R   0.618830 0.680370 0.500010 -0.520197
O4    O     O_R   0.381170 0.319630 0.499990 -0.519138
O5    O     O_R   0.367440 0.500000 0.613600 -0.511960
O6    O     O_R   0.632560 0.500000 0.386400 -0.599299
O7    O     O_R   0.605010 0.500030 0.613600 -0.532284
O8    O     O_R   0.394990 0.499970 0.386400 -0.509851
O9    O     O_3   0.688719 0.646143 0.737483 -0.479855
C29   C     C_3   0.806944 0.582708 0.763046 -0.179385
H1    H     H_    0.801874 0.482638 0.744569 0.121401
H2    H     H_    0.820077 0.593432 0.830563 0.147475
H3    H     H_    0.901585 0.623045 0.732379 0.168615
O10   O     O_3   0.307482 0.381228 0.251810 -0.549466
C30   C     C_3   0.346876 0.260163 0.225790 -0.265026
H4    H     H_    0.455811 0.239500 0.242191 0.157566
H5    H     H_    0.335572 0.245645 0.158353 0.157712
H6    H     H_    0.276453 0.192997 0.257726 0.203452
O11   O     O_3   0.733551 0.626572 0.249688 -0.513128
C31   C     C_3   0.839804 0.535996 0.247837 -0.221193
H7    H     H_    0.800272 0.438374 0.247647 0.124675
H8    H     H_    0.901400 0.550063 0.303529 0.175864
H9    H     H_    0.912854 0.549039 0.193916 0.177543
O12   O     O_3   0.271113 0.392871 0.757780 -0.546294
C32   C     C_3   0.137662 0.446781 0.753103 -0.201395
H10   H     H_    0.085304 0.403793 0.699819 0.149568
H11   H     H_    0.142055 0.548663 0.743399 0.144594
H12   H     H_    0.071800 0.427035 0.809199 0.179392
O13   O     O_3   0.336120 0.804098 0.100801 -0.664499
H13   H     H_    0.359631 0.794826 0.159082 0.325866
O14   O     O_3   0.277263 0.793636 0.946887 -0.666234
H14   H     H_    0.266685 0.782014 0.886744 0.323929
O15   O     O_3   0.233654 0.469181 0.925884 -0.548220
C33   C     C_3   0.266844 0.347743 0.948314 -0.184221
H15   H     H_    0.366032 0.346240 0.981594 0.147083
H16   H     H_    0.273498 0.282600 0.894097 0.187442
H17   H     H_    0.181932 0.313323 0.990649 0.189031
O16   O     O_3   0.680190 0.705205 0.094629 -0.530420
C34   C     C_3   0.765010 0.636685 0.036658 -0.233365
H18   H     H_    0.701738 0.583546 0.991826 0.131281
H19   H     H_    0.833872 0.571647 0.067175 0.160046
H20   H     H_    0.833278 0.702130 0.001652 0.226119
O17   O     O_3   0.232453 0.499146 0.107027 -0.696587
H21   H     H_    0.175393 0.442711 0.142055 0.350908
O18   O     O_3   0.623768 0.756481 0.885020 -0.678411
H22   H     H_    0.595444 0.785229 0.941514 0.348362
O19   O     O_3   0.654369 0.864172 0.377687 -0.530746
C35   C     C_3   0.799031 0.872668 0.390913 -0.106192
H23   H     H_    0.822986 0.850282 0.455087 0.125282
H24   H     H_    0.841165 0.966005 0.375897 0.193235
H25   H     H_    0.854739 0.804206 0.349382 0.195527
O20   O     O_3   0.338168 0.134630 0.617449 -0.558604
C36   C     C_3   0.195909 0.128311 0.597754 -0.221358
H26   H     H_    0.152438 0.033090 0.604622 0.156388
H27   H     H_    0.179988 0.159875 0.534361 0.185270
H28   H     H_    0.135074 0.190677 0.641092 0.190120
O21   O     O_3   0.640325 0.116972 0.368066 -0.683631
H29   H     H_    0.599851 0.199955 0.361185 0.303578
O22   O     O_3   0.359596 0.871503 0.625384 -0.686583
H30   H     H_    0.330153 0.929697 0.670990 0.360569
O23   O     O_3   0.845002 0.683900 0.581697 -0.657868
H31   H     H_    0.902141 0.760796 0.582866 0.302529
O24   O     O_3   0.158542 0.325827 0.410007 -0.669072
H32   H     H_    0.097554 0.269732 0.378202 0.348142
O25   O     O_3   0.145432 0.670179 0.593695 -0.659752
H33   H     H_    0.083429 0.701244 0.639926 0.300735
O26   O     O_3   0.867386 0.311308 0.417484 -0.724205
H34   H     H_    0.789342 0.344336 0.388029 0.364716

loop_
_geom_bond_atom_site_label_1
_geom_bond_atom_site_label_2
_ccdc_geom_bond_type
C33   H16   S    
O23   H31   S    
C1    C8    S    
O9    C29   S    
C2    C7    S    
C25   O12   S    
C3    O19   S    
O25   H33   S    
C24   O16   S    
C30   H5    S    
O18   H22   S    
Cu1   O4    S    
Cu2   O3    S    
C22   C24   A    
C19   C21   A    
C24   C26   A    
C4    C7    A    
C32   H11   S    
C33   H17   S    
C6    O22   S    
Cu1   O1    S    
O12   C32   S    
Cu2   O6    S    
C19   O18   S    
C12   O26   S    
C9    N2    A    
C10   N1    A    
C30   H4    S    
O16   C34   S    
C13   O5    A    
C31   H9    S    
C28   O13   S    
C2    O2    A    
C33   H15   S    
C21   C27   S    
C11   N1    A    
C22   C28   S    
C12   N2    A    
C29   H2    S    
C35   H25   S    
C18   O10   S    
C31   H8    S    
C30   H6    S    
C36   H27   S    
C16   C26   A    
Cu2   O2    S    
C1    O1    A    
O11   C31   S    
O20   C36   S    
C35   H24   S    
C3    C8    A    
O22   H30   S    
C5    C7    A    
C32   H12   S    
C6    C8    A    
C36   H26   S    
O19   C35   S    
C20   O17   S    
C29   H3    S    
O17   H21   S    
Cu1   Cu2   S    
C14   O6    A    
O26   H34   S    
C4    O20   S    
C9    C11   A    
C10   C12   A    
C4    C6    A    
C20   C22   A    
C13   C15   S    
C14   C16   S    
C29   H1    S    
C9    O23   S    
C27   C28   D    
C31   H7    S    
C1    O3    A    
C34   H19   S    
C36   H28   S    
C2    O4    A    
C15   C17   A    
O10   C30   S    
C35   H23   S    
C3    C5    A    
C34   H20   S    
C11   O25   S    
C23   O15   S    
C21   C23   A    
C34   H18   S    
Cu1   N1    S    
C26   O11   S    
Cu2   N2    S    
C32   H10   S    
C10   O24   S    
Cu1   O8    S    
C17   C19   A    
Cu2   O7    S    
C18   C20   A    
C23   C25   A    
O13   H13   S    
C17   O9    S    
C13   O7    A    
C15   C25   A    
C14   O8    A    
O14   H14   S    
C16   C18   A    
O15   C33   S    
Cu1   O5    S    
O24   H32   S    
C27   O14   S    
O21   H29   S    
C5    O21   S    
