data_mof_unit_55570.cif
_audit_creation_date              2012-12-10T17:57:26-0500
_audit_creation_method            fapswitch 2.2
_symmetry_space_group_name_H-M    P1
_symmetry_Int_Tables_number       1
_space_group_crystal_system       triclinic
_cell_length_a                    9.508051
_cell_length_b                    10.83384
_cell_length_c                    13.448791
_cell_angle_alpha                 90.159163
_cell_angle_beta                  72.471824
_cell_angle_gamma                 90.018583
_cell_volume                      1321.01433827

loop_
_atom_site_label
_atom_site_type_symbol
_atom_type_description
_atom_site_fract_x
_atom_site_fract_y
_atom_site_fract_z
_atom_type_partial_charge
C1    C     C_R   0.499950 0.737966 0.500225 0.795610
C2    C     C_R   0.434665 0.477059 0.979295 0.084428
C3    C     C_R   0.472518 0.450972 0.871197 0.027615
C4    C     C_R   0.544450 0.463568 0.030841 0.034745
C5    C     C_R   0.685240 0.413382 0.976570 0.099110
C6    C     C_R   0.713300 0.373664 0.873045 0.207628
C7    C     C_R   0.606801 0.389799 0.822720 -0.226851
C8    C     C_R   0.518909 0.500743 0.134736 -0.227464
C9    C     C_R   0.762653 0.434920 0.132429 -0.221150
C10   C     C_R   0.373727 0.485372 0.814927 -0.084075
C11   C     C_R   0.627168 0.936230 0.501554 -0.176472
C12   C     C_R   0.421384 0.492813 0.700134 0.792421
C13   C     C_R   0.627167 0.063931 0.501492 -0.174938
C14   C     C_R   0.499812 0.128224 0.500389 -0.024745
C15   C     C_R   0.372357 0.063816 0.499589 -0.162497
C16   C     C_R   0.372353 0.936118 0.499666 -0.179765
C17   C     C_R   0.499820 0.871810 0.500505 -0.024986
C18   C     C_R   0.896543 0.572417 0.568366 0.004679
C19   C     C_R   0.045412 0.572252 0.568438 0.012023
C20   C     C_R   0.103387 0.427408 0.431749 -0.012142
C21   C     C_R   0.954476 0.427457 0.431765 -0.021704
C22   C     C_R   0.499920 0.262041 0.500090 0.789737
C23   C     C_R   0.578806 0.498126 0.299888 0.799036
C24   C     C_R   0.793631 0.401841 0.027978 -0.156082
C25   C     C_R   0.623823 0.481819 0.186625 -0.043525
C26   C     C_R   0.230335 0.524004 0.869433 -0.151328
C27   C     C_R   0.187126 0.535303 0.977094 -0.157068
C28   C     C_R   0.287951 0.514566 0.031635 -0.168078
Cu1   Cu    Cu3+1 0.359340 0.499980 0.500000 0.961157
Cu2   Cu    Cu3+1 0.640660 0.500020 0.500000 0.947415
H1    H     H_    0.845471 0.419877 0.171556 0.149139
H2    H     H_    0.726750 0.112015 0.502266 0.159142
H3    H     H_    0.272762 0.111806 0.498799 0.161022
H4    H     H_    0.272741 0.888046 0.498952 0.151273
H5    H     H_    0.817204 0.630533 0.623056 0.125298
H6    H     H_    0.078389 0.630141 0.623189 0.115967
H7    H     H_    0.182673 0.369119 0.377184 0.118750
H8    H     H_    0.921416 0.369343 0.377186 0.114075
H9    H     H_    0.901783 0.364629 0.989043 0.188481
H10   H     H_    0.417292 0.544615 0.177962 0.145468
H11   H     H_    0.151871 0.548115 0.828616 0.167336
H12   H     H_    0.246015 0.525933 0.114952 0.121874
H13   H     H_    0.075762 0.564146 0.018431 0.147493
H14   H     H_    0.630204 0.350326 0.745672 0.203567
H15   H     H_    0.726745 0.888242 0.502379 0.151563
N1    N     N_R   0.147940 0.499970 0.499970 -0.156609
N2    N     N_R   0.852060 0.500060 0.499990 -0.160588
O1    O     O_R   0.381250 0.680340 0.500010 -0.591174
O2    O     O_R   0.618820 0.680370 0.500010 -0.587336
O3    O     O_R   0.323240 0.499950 0.650980 -0.566400
O4    O     O_R   0.560810 0.499980 0.650980 -0.587787
O5    O     O_R   0.381180 0.319630 0.499990 -0.576625
O6    O     O_R   0.618750 0.319660 0.499990 -0.590504
O7    O     O_R   0.439190 0.500020 0.349020 -0.591166
O8    O     O_R   0.676760 0.500050 0.349020 -0.586300
Br1   Br    Br    0.895960 0.297478 0.794378 -0.568693

loop_
_geom_bond_atom_site_label_1
_geom_bond_atom_site_label_2
_ccdc_geom_bond_type
C12   O3    A    
Cu2   O4    S    
C1    O1    A    
C23   O8    A    
C6    C7    A    
C20   H7    S    
C18   H5    S    
C13   H2    S    
C1    C17   S    
Cu1   N1    S    
C4    C8    A    
C18   N2    A    
C14   C22   S    
C2    C3    A    
C19   N1    A    
C9    C25   A    
C9    C24   A    
C3    C10   A    
C13   C14   A    
C8    C25   A    
C11   C13   A    
C10   C26   A    
C26   C27   A    
Cu1   Cu2   S    
C5    C24   A    
C10   C12   S    
Cu1   O3    S    
C2    C4    A    
C28   H12   S    
Cu2   O2    S    
C22   O6    A    
C3    C7    A    
C19   H6    S    
C23   C25   S    
C5    C6    A    
Cu2   O6    S    
C11   H15   S    
Cu1   O7    S    
C9    H1    S    
Cu1   O1    S    
C15   C16   A    
C27   H13   S    
Cu2   N2    S    
C4    C5    A    
C12   O4    A    
C20   C21   A    
C23   O7    A    
C22   O5    A    
C18   C19   A    
Cu2   O8    S    
C27   C28   A    
C14   C15   A    
C11   C17   A    
C2    C28   A    
C8    H10   S    
C16   H4    S    
C7    H14   S    
C1    O2    A    
C24   H9    S    
C15   H3    S    
C20   N1    A    
C21   H8    S    
C26   H11   S    
C6    Br1   S    
C16   C17   A    
C21   N2    A    
Cu1   O5    S    
