data_mof_unit_48004.cif
_audit_creation_date              2012-12-10T17:33:57-0500
_audit_creation_method            fapswitch 2.2
_symmetry_space_group_name_H-M    P1
_symmetry_Int_Tables_number       1
_space_group_crystal_system       triclinic
_cell_length_a                    10.680265
_cell_length_b                    12.014494
_cell_length_c                    12.885292
_cell_angle_alpha                 93.201786
_cell_angle_beta                  90.485551
_cell_angle_gamma                 85.321475
_cell_volume                      1645.32040771

loop_
_atom_site_label
_atom_site_type_symbol
_atom_type_description
_atom_site_fract_x
_atom_site_fract_y
_atom_site_fract_z
_atom_type_partial_charge
C1    C     C_R   0.491833 0.521722 0.700224 0.934605
C2    C     C_R   0.459818 0.450514 0.976028 0.098741
C3    C     C_R   0.510507 0.545563 0.025143 0.175172
C4    C     C_R   0.742208 0.500130 0.500705 0.898755
C5    C     C_R   0.529359 0.550847 0.131088 -0.255105
C6    C     C_R   0.447327 0.369311 0.142377 -0.182250
C7    C     C_R   0.428104 0.362814 0.036262 -0.158510
C8    C     C_R   0.369479 0.957967 0.413462 -0.276875
C9    C     C_R   0.384709 0.840967 0.419857 0.099896
C10   C     C_R   0.556783 0.856084 0.535129 -0.033047
C11   C     C_R   0.545752 0.973450 0.529951 0.060668
C12   C     C_3   0.121133 0.504309 0.501231 0.014048
C13   C     C_R   0.450636 0.025781 0.469244 0.084460
C14   C     C_R   0.440626 0.144245 0.465637 -0.056911
C15   C     C_R   0.617634 0.155438 0.577254 0.151486
C16   C     C_R   0.502112 0.477966 0.299876 0.898849
C17   C     C_R   0.628862 0.038901 0.583495 -0.327349
C18   C     C_R   0.257655 0.501165 0.500480 0.843151
C19   C     C_3   0.933717 0.461248 0.607009 -0.232001
C20   C     C_3   0.078407 0.457144 0.603353 -0.353584
C21   C     C_3   0.935872 0.420202 0.411695 -0.190596
C22   C     C_3   0.916269 0.623035 0.485168 -0.394614
C23   C     C_3   0.079019 0.428660 0.407655 -0.475064
C24   C     C_3   0.878573 0.502094 0.501128 -0.020872
C25   C     C_2   0.874931 0.435584 0.305903 0.902726
C26   C     C_2   0.380418 0.351440 0.816036 0.945761
C27   C     C_2   0.882817 0.524564 0.705344 0.974676
C28   C     C_2   0.715693 0.215760 0.630579 0.941326
C29   C     C_2   0.095141 0.713494 0.572074 0.941021
C30   C     C_3   0.058793 0.626185 0.489232 -0.180903
C31   C     C_R   0.496213 0.463947 0.189264 -0.018371
C32   C     C_R   0.482039 0.534259 0.811802 -0.118507
C33   C     C_R   0.539692 0.635468 0.968617 -0.194675
C34   C     C_R   0.525164 0.629939 0.862210 -0.196949
C35   C     C_R   0.441879 0.446235 0.868505 -0.067697
H1    H     H_    0.909328 0.374381 0.613961 0.168265
H2    H     H_    0.880736 0.652362 0.409383 0.212515
H3    H     H_    0.870508 0.684434 0.543483 0.226943
H4    H     H_    0.088650 0.654052 0.412704 0.153350
H5    H     H_    0.845316 0.530675 0.182478 0.352653
H6    H     H_    0.576404 0.708925 0.006470 0.150850
H7    H     H_    0.389019 0.186265 0.776098 0.343677
H8    H     H_    0.367937 0.185464 0.418977 0.129972
H9    H     H_    0.772715 0.652064 0.772737 0.341247
H10   H     H_    0.764504 0.315878 0.752445 0.345125
H11   H     H_    0.295269 0.994750 0.365342 0.151501
H12   H     H_    0.107637 0.463173 0.333801 0.196854
H13   H     H_    0.703747 0.999342 0.629495 0.169963
H14   H     H_    0.118038 0.502989 0.671573 0.241321
H15   H     H_    0.117136 0.368514 0.607180 0.220494
H16   H     H_    0.127027 0.342916 0.409460 0.183701
H17   H     H_    0.092829 0.768918 0.722832 0.353664
H18   H     H_    0.567779 0.623778 0.168714 0.158147
H19   H     H_    0.419709 0.302413 0.188098 0.156944
H20   H     H_    0.386978 0.289599 0.003025 0.174141
H21   H     H_    0.552967 0.698566 0.818906 0.174013
H22   H     H_    0.321918 0.789009 0.376812 0.139916
H23   H     H_    0.629095 0.815463 0.582638 0.148653
H24   H     H_    0.920864 0.333389 0.432541 0.177744
N1    N     N_R   0.523380 0.207800 0.519350 -0.141957
N2    N     N_R   0.476620 0.792180 0.480650 -0.110004
O1    O     O_R   0.506240 0.421700 0.658830 -0.574712
O2    O     O_R   0.891495 0.530789 0.251556 -0.818991
O3    O     O_2   0.280190 0.369152 0.771199 -0.651356
O4    O     O_R   0.438827 0.242966 0.816094 -0.768182
O5    O     O_2   0.919177 0.492891 0.789864 -0.597248
O6    O     O_R   0.794231 0.616441 0.701328 -0.816161
O7    O     O_2   0.824798 0.194724 0.603366 -0.664379
O8    O     O_R   0.687373 0.285087 0.719095 -0.751760
O9    O     O_2   0.148271 0.793969 0.546399 -0.625689
O10   O     O_R   0.064210 0.704917 0.676325 -0.799901
O11   O     O_R   0.491240 0.609310 0.646410 -0.610539
O12   O     O_R   0.692710 0.406190 0.506230 -0.632368
O13   O     O_R   0.677700 0.593810 0.493810 -0.608984
O14   O     O_R   0.508760 0.390690 0.353590 -0.612783
O15   O     O_R   0.493760 0.578300 0.341170 -0.641442
O16   O     O_R   0.322300 0.406190 0.506190 -0.622480
O17   O     O_R   0.307290 0.593810 0.493770 -0.626041
O18   O     O_2   0.811984 0.363129 0.267539 -0.610805
Zn1   Zn    Zn3+2 0.510020 0.374730 0.508290 1.002875
Zn2   Zn    Zn3+2 0.489980 0.625270 0.491710 0.979792

loop_
_geom_bond_atom_site_label_1
_geom_bond_atom_site_label_2
_ccdc_geom_bond_type
C2    C35   A    
C34   H21   S    
C8    C13   A    
C16   O14   A    
C15   N1    A    
C28   O8    S    
C17   H13   S    
C7    H20   S    
C1    O1    A    
C16   C31   S    
C12   C23   S    
C20   H14   S    
H5    O2    S    
C9    N2    A    
C5    H18   S    
C28   O7    D    
C21   H24   S    
C19   H1    S    
C4    C24   S    
C3    C33   A    
C22   H3    S    
C25   O2    S    
C26   O3    D    
C20   H15   S    
C2    C7    A    
N1    Zn1   S    
C19   C20   S    
C8    C9    A    
C10   H23   S    
H7    O4    S    
C19   C27   S    
O14   Zn1   S    
C4    O13   A    
O11   Zn2   S    
C6    C31   A    
C25   O18   D    
C13   C14   A    
C6    H19   S    
C1    O11   A    
C23   H12   S    
H10   O8    S    
C32   C35   A    
C22   H2    S    
C1    C32   S    
C32   C34   A    
C29   C30   S    
C23   H16   S    
C18   O17   A    
C12   C20   S    
C33   C34   A    
C4    O12   A    
C21   C23   S    
C22   C24   S    
C10   N2    A    
O13   Zn2   S    
C29   O9    D    
O16   Zn1   S    
O1    Zn1   S    
C15   C17   A    
C21   C25   S    
C11   C17   A    
C22   C30   S    
C12   C30   S    
C16   O15   A    
C26   O4    S    
C3    C5    A    
O15   Zn2   S    
C6    C7    A    
C14   N1    A    
C33   H6    S    
C19   C24   S    
H17   O10   S    
N2    Zn2   S    
C11   C13   A    
O17   Zn2   S    
C15   C28   S    
C18   O16   A    
O12   Zn1   S    
C30   H4    S    
C2    C3    A    
C9    H22   S    
C8    H11   S    
C27   O6    S    
C10   C11   A    
C26   C35   S    
C21   C24   S    
C12   C18   S    
C27   O5    D    
H9    O6    S    
C29   O10   S    
C14   H8    S    
C5    C31   A    
