data_mof_unit_38851.cif
_audit_creation_date              2012-12-10T18:09:34-0500
_audit_creation_method            fapswitch 2.2
_symmetry_space_group_name_H-M    P1
_symmetry_Int_Tables_number       1
_space_group_crystal_system       triclinic
_cell_length_a                    14.338849
_cell_length_b                    16.19391
_cell_length_c                    9.838696
_cell_angle_alpha                 90.662617
_cell_angle_beta                  90.239242
_cell_angle_gamma                 90.195902
_cell_volume                      2284.37876271

loop_
_atom_site_label
_atom_site_type_symbol
_atom_type_description
_atom_site_fract_x
_atom_site_fract_y
_atom_site_fract_z
_atom_type_partial_charge
C1    C     C_R   0.117800 0.378047 0.499859 0.840282
C2    C     C_R   0.117780 0.621900 0.500332 0.842193
C3    C     C_R   0.617478 0.877759 0.499952 0.845762
C4    C     C_R   0.615955 0.122855 0.500151 0.817373
C5    C     C_3   0.099406 0.478928 0.077681 0.594630
C6    C     C_3   0.099893 0.519882 0.923853 0.594704
C7    C     C_3   0.596609 0.968653 0.080296 0.588493
C8    C     C_3   0.602163 0.006226 0.926246 0.606858
C9    C     C_R   0.878837 0.382441 0.499133 0.709347
C10   C     C_R   0.878884 0.617234 0.500412 0.713265
C11   C     C_R   0.379023 0.882638 0.499607 0.717068
C12   C     C_R   0.378976 0.117365 0.500131 0.706983
C13   C     C_3   0.848043 0.239172 0.568680 -0.413619
C14   C     C_3   0.780414 0.290138 0.349912 -0.392304
C15   C     C_3   0.854551 0.764237 0.555816 -0.407503
C16   C     C_3   0.772243 0.699652 0.356024 -0.388075
C17   C     C_3   0.346461 0.742530 0.583929 -0.397972
C18   C     C_3   0.287971 0.785716 0.353177 -0.396698
C19   C     C_3   0.288058 0.213644 0.646547 -0.396573
C20   C     C_3   0.346243 0.257921 0.416642 -0.400527
C21   C     C_3   0.273318 0.672964 0.587985 -0.291587
C22   C     C_3   0.226078 0.709125 0.357655 -0.289986
C23   C     C_3   0.225739 0.289753 0.642747 -0.287219
C24   C     C_3   0.273813 0.327813 0.414146 -0.286688
C25   C     C_3   0.774049 0.170588 0.573619 -0.278185
C26   C     C_3   0.710596 0.218044 0.351845 -0.327664
C27   C     C_3   0.786303 0.836391 0.540744 -0.317857
C28   C     C_3   0.697281 0.766579 0.359188 -0.289804
C29   C     C_3   0.717965 0.343460 0.572419 -0.365301
C30   C     C_3   0.724913 0.662807 0.594252 -0.382418
C31   C     C_3   0.216021 0.845025 0.563263 -0.369447
C32   C     C_3   0.215675 0.154923 0.435509 -0.368585
C33   C     C_3   0.807709 0.315523 0.497329 0.165373
C34   C     C_3   0.808843 0.684257 0.501590 0.160575
C35   C     C_3   0.308957 0.815573 0.499762 0.152694
C36   C     C_3   0.308859 0.184393 0.499829 0.158103
C37   C     C_3   0.186787 0.693496 0.500350 0.044462
C38   C     C_3   0.186824 0.306410 0.499822 0.042653
C39   C     C_3   0.683469 0.194983 0.498432 0.069612
C40   C     C_3   0.686014 0.805649 0.500901 0.076325
C41   C     C_3   0.141367 0.776179 0.547897 -0.373921
C42   C     C_3   0.141422 0.223752 0.449954 -0.370027
C43   C     C_3   0.641844 0.275569 0.561012 -0.377879
C44   C     C_3   0.651009 0.732235 0.589459 -0.354744
C45   C     C_3   0.951438 0.572911 0.083284 -0.243462
C46   C     C_3   0.939745 0.566952 0.919085 -0.216210
C47   C     C_3   0.937662 0.434235 0.080112 -0.216985
C48   C     C_3   0.949212 0.428040 0.916206 -0.240600
C49   C     C_3   0.465967 0.079455 0.083138 -0.270043
C50   C     C_3   0.452922 0.074855 0.919005 -0.229659
C51   C     C_3   0.427807 0.943132 0.080115 -0.210061
C52   C     C_3   0.436649 0.936751 0.916163 -0.209551
Cu1   Cu    Cu3+1 0.000100 0.500000 0.642410 1.018026
Cu2   Cu    Cu3+1 0.000100 0.500000 0.357590 1.017090
Cu3   Cu    Cu3+1 0.500100 0.000000 0.642410 1.024934
Cu4   Cu    Cu3+1 0.500100 0.000000 0.357590 1.013410
H1    H     H_    0.870978 0.255150 0.674059 0.191350
H2    H     H_    0.748641 0.343464 0.296554 0.165327
H3    H     H_    0.874404 0.757315 0.664641 0.190444
H4    H     H_    0.830302 0.719714 0.288910 0.199890
H5    H     H_    0.363288 0.762615 0.689845 0.202051
H6    H     H_    0.252149 0.835182 0.295251 0.173360
H7    H     H_    0.252596 0.163645 0.703761 0.175796
H8    H     H_    0.361867 0.238276 0.310365 0.196281
H9    H     H_    0.910366 0.216428 0.512709 0.154559
H10   H     H_    0.843329 0.271081 0.291539 0.196538
H11   H     H_    0.919477 0.777783 0.498533 0.148607
H12   H     H_    0.742508 0.641624 0.311623 0.167352
H13   H     H_    0.411936 0.718824 0.537577 0.149505
H14   H     H_    0.353624 0.770332 0.298263 0.208638
H15   H     H_    0.353848 0.229303 0.702045 0.187734
H16   H     H_    0.412416 0.281206 0.462756 0.143037
H17   H     H_    0.306578 0.615086 0.551400 0.145467
H18   H     H_    0.273527 0.657531 0.335525 0.232095
H19   H     H_    0.273114 0.341512 0.666869 0.230025
H20   H     H_    0.307698 0.385022 0.453681 0.141546
H21   H     H_    0.803450 0.112656 0.530654 0.162795
H22   H     H_    0.743585 0.164580 0.302887 0.265509
H23   H     H_    0.813152 0.877336 0.459898 0.175625
H24   H     H_    0.719161 0.816262 0.292567 0.283908
H25   H     H_    0.251794 0.662754 0.691518 0.286399
H26   H     H_    0.169033 0.715492 0.282906 0.245802
H27   H     H_    0.168382 0.282230 0.716432 0.243837
H28   H     H_    0.253007 0.340155 0.310601 0.285391
H29   H     H_    0.757267 0.159425 0.679583 0.278204
H30   H     H_    0.646815 0.235807 0.295112 0.194579
H31   H     H_    0.790425 0.874423 0.632208 0.241513
H32   H     H_    0.631612 0.736085 0.327272 0.222797
H33   H     H_    0.733922 0.355982 0.681570 0.180989
H34   H     H_    0.691297 0.401821 0.528240 0.140619
H35   H     H_    0.748814 0.655008 0.701107 0.180463
H36   H     H_    0.692848 0.603285 0.560501 0.146110
H37   H     H_    0.226535 0.860299 0.672894 0.184744
H38   H     H_    0.191210 0.902037 0.512561 0.141274
H39   H     H_    0.190534 0.097935 0.486092 0.141475
H40   H     H_    0.226006 0.139498 0.326046 0.184774
H41   H     H_    0.103264 0.771078 0.643698 0.232743
H42   H     H_    0.088848 0.795259 0.470942 0.145762
H43   H     H_    0.087913 0.204275 0.524786 0.144627
H44   H     H_    0.104524 0.229172 0.353033 0.236778
H45   H     H_    0.609806 0.267080 0.660685 0.230815
H46   H     H_    0.584281 0.297907 0.494909 0.138850
H47   H     H_    0.629234 0.749164 0.692704 0.251413
H48   H     H_    0.585866 0.706419 0.543794 0.129608
H49   H     H_    0.972871 0.631013 0.129338 0.237352
H50   H     H_    0.943193 0.627193 0.871016 0.230149
H51   H     H_    0.938922 0.373966 0.128144 0.228963
H52   H     H_    0.968764 0.369480 0.870625 0.237211
H53   H     H_    0.501734 0.133523 0.123982 0.235358
H54   H     H_    0.466952 0.133290 0.869169 0.229290
H55   H     H_    0.421696 0.882152 0.125763 0.231764
H56   H     H_    0.442793 0.876672 0.867540 0.239235
H57   H     H_    0.879101 0.576316 0.124130 0.138101
H58   H     H_    0.864358 0.556088 0.895509 0.118716
H59   H     H_    0.862635 0.446528 0.102732 0.114986
H60   H     H_    0.876795 0.425954 0.874440 0.134678
H61   H     H_    0.395820 0.093921 0.125228 0.154119
H62   H     H_    0.376466 0.075127 0.896510 0.126095
H63   H     H_    0.356058 0.964968 0.105281 0.117599
H64   H     H_    0.364572 0.945898 0.875923 0.121169
N1    N     N_3   0.001260 0.500000 0.143650 -0.229894
N2    N     N_3   0.001260 0.500000 0.856350 -0.229788
N3    N     N_3   0.501260 0.000000 0.143650 -0.229910
N4    N     N_3   0.501260 1.000000 0.856350 -0.225930
O1    O     O_R   0.091250 0.408820 0.620260 -0.515347
O2    O     O_R   0.091250 0.408820 0.379740 -0.466297
O3    O     O_R   0.091250 0.591180 0.620260 -0.466977
O4    O     O_R   0.091250 0.591180 0.379740 -0.517975
O5    O     O_R   0.591250 0.908820 0.620260 -0.483422
O6    O     O_R   0.591250 0.908820 0.379740 -0.481370
O7    O     O_R   0.591250 0.091180 0.620260 -0.484889
O8    O     O_R   0.591250 0.091180 0.379740 -0.521680
O9    O     O_R   0.908940 0.408800 0.620260 -0.613479
O10   O     O_R   0.908940 0.408800 0.379740 -0.596817
O11   O     O_R   0.908940 0.591200 0.620260 -0.597304
O12   O     O_R   0.908940 0.591200 0.379740 -0.615654
O13   O     O_R   0.408940 0.908800 0.620260 -0.614894
O14   O     O_R   0.408940 0.908800 0.379740 -0.589680
O15   O     O_R   0.408940 0.091200 0.620260 -0.606669
O16   O     O_R   0.408940 0.091200 0.379740 -0.613007
S1    S     S_3+6 0.209179 0.513452 0.170289 0.090400
O17   O     O_2   0.292963 0.468198 0.117783 -0.209373
O18   O     O_2   0.230838 0.600916 0.143710 -0.259629
O19   O     O_3   0.220027 0.500066 0.337649 -0.558917
H65   H     H_    0.285308 0.515341 0.360034 0.320392
S2    S     S_3+6 0.124267 0.638776 0.926647 0.019830
O20   O     O_2   0.225164 0.660985 0.911694 -0.231138
O21   O     O_2   0.075383 0.682792 0.815061 -0.376903
O22   O     O_3   0.096421 0.691729 0.067776 -0.581820
H66   H     H_    0.104076 0.750801 0.044866 0.368150
S3    S     S_3+6 0.120161 0.359618 0.074538 0.020701
O23   O     O_2   0.220176 0.335309 0.091208 -0.235631
O24   O     O_2   0.069397 0.316672 0.185218 -0.375022
O25   O     O_3   0.091148 0.307303 0.932524 -0.578421
H67   H     H_    0.096591 0.248078 0.955471 0.368763
S4    S     S_3+6 0.208608 0.484107 0.833245 0.091724
O26   O     O_2   0.293948 0.526425 0.889168 -0.204886
O27   O     O_2   0.226317 0.395817 0.857271 -0.264473
O28   O     O_3   0.220096 0.500323 0.666837 -0.555909
H68   H     H_    0.284910 0.484251 0.644635 0.320111
S5    S     S_3+6 0.712444 0.992377 0.179496 0.093583
O29   O     O_2   0.782364 0.925640 0.153318 -0.250181
O30   O     O_2   0.763227 0.067515 0.134959 -0.227350
O31   O     O_3   0.718228 0.999690 0.348739 -0.552413
H69   H     H_    0.785009 0.008782 0.370481 0.331626
S6    S     S_3+6 0.650803 0.117730 0.928370 0.020376
O32   O     O_2   0.753548 0.119933 0.898791 -0.216976
O33   O     O_2   0.607684 0.172981 0.826534 -0.384490
O34   O     O_3   0.641939 0.169981 0.075245 -0.581916
H70   H     H_    0.664919 0.226357 0.055365 0.364737
S7    S     S_3+6 0.597907 0.848796 0.070995 -0.004867
O35   O     O_2   0.693587 0.812071 0.069423 -0.277785
O36   O     O_2   0.547014 0.814715 0.190217 -0.378668
O37   O     O_3   0.549993 0.799304 0.937432 -0.556753
H71   H     H_    0.548272 0.740134 0.961978 0.377058
S8    S     S_3+6 0.700541 0.956277 0.836291 0.093693
O38   O     O_2   0.717628 0.997788 0.703290 -0.315343
O39   O     O_2   0.791201 0.966735 0.911123 -0.209277
O40   O     O_3   0.688230 0.854915 0.812575 -0.515038
H72   H     H_    0.749020 0.829635 0.835906 0.372169

loop_
_geom_bond_atom_site_label_1
_geom_bond_atom_site_label_2
_ccdc_geom_bond_type
C16   C28   S    
C9    C33   S    
S7    O35   D    
C17   H13   S    
C29   C33   S    
C3    O6    A    
C51   N3    S    
O34   H70   S    
C19   H15   S    
Cu1   O11   S    
C52   H56   S    
Cu3   Cu4   S    
C13   C25   S    
C14   C33   S    
C29   H33   S    
S5    O29   D    
C44   H48   S    
C7    C8    S    
C4    O8    A    
C13   H9    S    
C45   C46   S    
C47   H59   S    
S7    O36   D    
C26   H22   S    
C23   H27   S    
C25   H21   S    
C32   C36   S    
C20   H16   S    
S4    O26   D    
C11   O14   A    
C1    O1    A    
C38   C42   S    
C27   H23   S    
C19   C36   S    
S1    O18   D    
C48   N2    S    
C5    C6    S    
Cu4   O16   S    
C26   C39   S    
C47   N1    S    
C13   H1    S    
C28   C40   S    
Cu2   O10   S    
C21   H17   S    
C50   H54   S    
Cu3   O15   S    
C50   H62   S    
C16   H4    S    
S3    O25   S    
O37   H71   S    
Cu1   O3    S    
C16   C34   S    
Cu1   O1    S    
C15   C27   S    
C42   H43   S    
S8    O40   S    
C49   H61   S    
C20   C24   S    
C19   H7    S    
Cu3   O5    S    
C28   H32   S    
C47   C48   S    
C51   H63   S    
S3    O23   D    
C12   O16   A    
C16   H12   S    
C12   C36   S    
C18   C35   S    
C15   C34   S    
C48   H60   S    
C17   H5    S    
C9    O10   A    
S8    O39   D    
C15   H11   S    
C3    O5    A    
C29   C43   S    
S6    O33   D    
C30   C44   S    
C29   H34   S    
S5    O30   D    
C44   H47   S    
C45   H49   S    
C4    O7    A    
S2    O21   D    
C32   C42   S    
C14   H2    S    
S7    O37   S    
C46   H58   S    
C51   C52   S    
Cu4   N3    S    
Cu1   O9    S    
C1    O2    A    
C30   H36   S    
S1    O19   S    
C23   H19   S    
C30   C34   S    
C24   H20   S    
C39   C43   S    
Cu4   O6    S    
C45   N1    S    
Cu1   Cu2   S    
C22   C37   S    
Cu2   O4    S    
C17   C21   S    
C20   H8    S    
C19   C23   S    
C43   H45   S    
C13   C33   S    
C42   H44   S    
S2    O22   S    
Cu4   O14   S    
C24   C38   S    
O28   H68   S    
C4    C39   S    
C27   C40   S    
C26   H30   S    
Cu2   O12   S    
C25   H29   S    
C14   H10   S    
C12   O15   A    
C50   N4    S    
C10   C34   S    
C14   C26   S    
C27   H31   S    
O25   H67   S    
Cu4   O8    S    
C8    S6    S    
C1    C38   S    
C52   H64   S    
S8    O38   D    
C32   H40   S    
Cu2   N1    S    
C21   H25   S    
C3    C40   S    
Cu3   O7    S    
S6    O32   D    
C31   C35   S    
Cu1   N2    S    
C6    N2    S    
C23   C38   S    
C22   H26   S    
S5    O31   S    
C7    S5    S    
C49   H53   S    
S2    O20   D    
Cu3   N4    S    
O31   H69   S    
C5    N1    S    
C51   H55   S    
C31   C41   S    
C18   C22   S    
C15   H3    S    
S4    O28   S    
C8    N4    S    
C5    S1    S    
C7    N3    S    
C30   H35   S    
C5    S3    S    
C8    S8    S    
C24   H28   S    
C10   O12   A    
C31   H38   S    
C47   H51   S    
C18   H14   S    
Cu3   O13   S    
C2    O4    A    
O19   H65   S    
C11   C35   S    
C11   O13   A    
C43   H46   S    
C10   O11   A    
C31   H37   S    
S1    O17   D    
C2    O3    A    
Cu2   O2    S    
C2    C37   S    
C48   H52   S    
C6    S2    S    
C46   H50   S    
C52   N4    S    
S4    O27   D    
C41   H41   S    
S3    O24   D    
C37   C41   S    
C28   H24   S    
C6    S4    S    
O40   H72   S    
C20   C36   S    
C45   H57   S    
C40   C44   S    
C32   H39   S    
C21   C37   S    
S6    O34   S    
C49   C50   S    
C22   H18   S    
C41   H42   S    
C46   N2    S    
C18   H6    S    
C17   C35   S    
C7    S7    S    
O22   H66   S    
C25   C39   S    
C9    O9    A    
C49   N3    S    
