data_mof_unit_42136.cif
_audit_creation_date              2012-12-11T15:52:24-0500
_audit_creation_method            fapswitch 2.2
_symmetry_space_group_name_H-M    P1
_symmetry_Int_Tables_number       1
_space_group_crystal_system       triclinic
_cell_length_a                    11.126312
_cell_length_b                    11.050723
_cell_length_c                    18.793162
_cell_angle_alpha                 89.747426
_cell_angle_beta                  90.046627
_cell_angle_gamma                 120.065957
_cell_volume                      1999.76335124

loop_
_atom_site_label
_atom_site_type_symbol
_atom_type_description
_atom_site_fract_x
_atom_site_fract_y
_atom_site_fract_z
_atom_type_partial_charge
C1    C     C_R   0.520341 0.458281 0.147527 0.529473
C2    C     C_3   0.112018 0.747588 0.453296 -0.257252
C3    C     C_3   0.665923 0.921513 0.455323 -0.273275
C4    C     C_3   0.314579 0.563867 0.417787 -0.280950
C5    C     C_R   0.520434 0.458330 0.353187 0.563933
C6    C     C_R   0.544238 0.066527 0.355263 0.564123
C7    C     C_R   0.930579 0.476284 0.356144 0.574980
C8    C     C_R   0.425501 0.545252 0.638416 0.559795
C9    C     C_R   0.059476 0.542555 0.647459 0.519048
C10   C     C_R   0.481581 0.938850 0.646761 0.522012
C11   C     C_R   0.485641 0.955416 0.931155 0.020013
C12   C     C_R   0.542488 0.062610 0.147485 0.527989
C13   C     C_R   0.045331 0.530067 0.931329 0.021274
C14   C     C_R   0.470068 0.513479 0.931049 0.018501
C15   C     C_R   0.006593 0.502502 0.079107 0.012470
C16   C     C_R   0.496119 0.994011 0.078985 0.012594
C17   C     C_R   0.498814 0.505383 0.078933 0.012171
C18   C     C_R   0.401913 0.999749 0.963349 0.000316
C19   C     C_R   0.002013 0.401637 0.964055 -0.000506
C20   C     C_R   0.598482 0.597475 0.962854 0.000437
C21   C     C_R   0.980845 0.387537 0.036802 0.007072
C22   C     C_R   0.408647 0.020817 0.036072 0.007587
C23   C     C_R   0.937835 0.480193 0.147516 0.531672
C24   C     C_R   0.613119 0.591917 0.035655 0.006117
C25   C     C_R   0.561311 0.926208 0.048498 -0.161340
C26   C     C_R   0.073634 0.635972 0.048094 -0.162112
C27   C     C_R   0.365888 0.440399 0.048650 -0.160956
C28   C     C_R   0.091749 0.649504 0.974541 -0.146024
C29   C     C_R   0.557091 0.908205 0.974966 -0.146254
C30   C     C_R   0.351774 0.443351 0.975059 -0.147601
C31   C     C_3   0.393284 0.127587 0.947802 -0.283170
C32   C     C_3   0.875712 0.264418 0.949051 -0.284413
C33   C     C_3   0.733302 0.604395 0.947689 -0.281872
C34   C     C_R   0.451236 0.522945 0.855324 0.541911
C35   C     C_3   0.851259 0.248878 0.028686 -0.240189
C36   C     C_3   0.401669 0.151748 0.027393 -0.241048
C37   C     C_3   0.749445 0.597355 0.027404 -0.241703
C38   C     C_R   0.510444 0.009033 0.578404 -0.057701
C39   C     C_R   0.986055 0.503426 0.580227 -0.061809
C40   C     C_R   0.458608 0.531170 0.565709 -0.040086
C41   C     C_R   0.965028 0.482438 0.431291 -0.020131
C42   C     C_R   0.514595 0.030497 0.430152 -0.019952
C43   C     C_R   0.505586 0.504318 0.422443 -0.032599
C44   C     C_R   0.617487 0.013003 0.538289 0.002720
C45   C     C_R   0.072087 0.548409 0.855454 0.534039
C46   C     C_R   0.998640 0.613586 0.537621 0.014995
C47   C     C_R   0.356714 0.499676 0.514791 -0.049186
C48   C     C_R   0.994519 0.603861 0.465414 0.026348
C49   C     C_R   0.616649 0.021451 0.466502 0.052589
C50   C     C_R   0.377148 0.480460 0.443812 -0.069837
C51   C     C_R   0.415899 0.049494 0.469236 0.249464
C52   C     C_R   0.932418 0.362067 0.473362 0.263361
C53   C     C_R   0.616849 0.556795 0.471403 0.257219
C54   C     C_R   0.937953 0.370943 0.549062 0.243111
C55   C     C_R   0.418135 0.044822 0.545382 0.210664
C56   C     C_R   0.476460 0.927566 0.855371 0.533691
C57   C     C_R   0.591755 0.560473 0.543986 0.242792
C58   C     C_3   0.270215 0.143489 0.457491 -0.065355
C59   C     C_3   0.001202 0.203243 0.448247 -0.106381
C60   C     C_3   0.805560 0.740693 0.422204 -0.071035
C61   C     C_3   0.826740 0.229027 0.645931 -0.095066
C62   C     C_3   0.371769 0.163905 0.629615 -0.102015
C63   C     C_3   0.694673 0.493975 0.627500 -0.095409
C64   C     C_3   0.672927 0.914201 0.535023 -0.223544
C65   C     C_3   0.114979 0.762304 0.532849 -0.189372
C66   C     C_3   0.300640 0.591711 0.494661 -0.282295
Cr1   Cr    Cr6+3 0.769160 0.541570 0.250690 1.007591
Cr2   Cr    Cr6+3 0.458430 0.227590 0.250690 1.030223
Cr3   Cr    Cr6+3 0.772410 0.230840 0.250690 1.027524
Cr4   Cr    Cr6+3 0.541570 0.769160 0.749310 1.012044
Cr5   Cr    Cr6+3 0.227590 0.458430 0.749310 1.007704
Cr6   Cr    Cr6+3 0.230840 0.772410 0.749310 1.018909
H1    H     H_    0.625988 0.899271 0.080196 0.134056
H2    H     H_    0.756588 0.251671 0.044828 0.144899
H3    H     H_    0.499361 0.246657 0.043725 0.143592
H4    H     H_    0.745097 0.498905 0.044710 0.143571
H5    H     H_    0.485413 0.208866 0.918344 0.126221
H6    H     H_    0.794813 0.275008 0.919424 0.125917
H7    H     H_    0.720492 0.510660 0.919139 0.126527
H8    H     H_    0.861962 0.162202 0.052069 0.148294
H9    H     H_    0.304816 0.141285 0.050284 0.149299
H10   H     H_    0.836826 0.694948 0.049607 0.148670
H11   H     H_    0.599815 0.809401 0.556344 0.163502
H12   H     H_    0.099715 0.728038 0.079361 0.134644
H13   H     H_    0.212980 0.777487 0.556242 0.171576
H14   H     H_    0.368654 0.702434 0.510447 0.112275
H15   H     H_    0.084465 0.818703 0.426005 0.175977
H16   H     H_    0.767295 0.969981 0.427999 0.166836
H17   H     H_    0.214157 0.498040 0.390422 0.140206
H18   H     H_    0.780307 0.961003 0.555996 0.175031
H19   H     H_    0.080926 0.835908 0.551214 0.201039
H20   H     H_    0.194103 0.544912 0.512187 0.138804
H21   H     H_    0.205358 0.749768 0.430971 0.136232
H22   H     H_    0.584612 0.823060 0.431549 0.102377
H23   H     H_    0.274390 0.376463 0.080650 0.134624
H24   H     H_    0.386970 0.658272 0.386817 0.125283
H25   H     H_    0.359068 0.237811 0.480906 0.128641
H26   H     H_    0.183143 0.090647 0.495839 0.142261
H27   H     H_    0.231031 0.178088 0.412323 0.137372
H28   H     H_    0.976850 0.129872 0.493446 0.147865
H29   H     H_    0.105767 0.294502 0.456562 0.115931
H30   H     H_    0.005161 0.149824 0.399236 0.100934
H31   H     H_    0.850053 0.816758 0.466491 0.112260
H32   H     H_    0.730381 0.755381 0.389892 0.090603
H33   H     H_    0.888064 0.763357 0.383316 0.147058
H34   H     H_    0.137356 0.753116 0.951407 0.149096
H35   H     H_    0.733754 0.234587 0.629591 0.077364
H36   H     H_    0.874912 0.298240 0.692049 0.123256
H37   H     H_    0.794057 0.123063 0.666120 0.173370
H38   H     H_    0.422659 0.261793 0.597913 0.101665
H39   H     H_    0.446757 0.162953 0.668382 0.103576
H40   H     H_    0.286564 0.163000 0.660590 0.172959
H41   H     H_    0.691335 0.414912 0.589812 0.097224
H42   H     H_    0.604647 0.445242 0.664380 0.118088
H43   H     H_    0.788803 0.531848 0.660849 0.148505
H44   H     H_    0.613922 0.861801 0.952320 0.149099
H45   H     H_    0.248537 0.386678 0.952558 0.148413
H46   H     H_    0.291186 0.102066 0.924838 0.142751
H47   H     H_    0.901889 0.187598 0.926546 0.141591
H48   H     H_    0.810747 0.706429 0.923953 0.144569
O1    O     O_R   0.911480 0.572650 0.170990 -0.533748
O2    O     O_R   0.528970 0.640340 0.824320 -0.496600
O3    O     O_R   0.111370 0.471030 0.824320 -0.508686
O4    O     O_R   0.359660 0.888630 0.824320 -0.503573
O5    O     O_R   0.909980 0.572450 0.331530 -0.509586
O6    O     O_R   0.427550 0.337530 0.331530 -0.516290
O7    O     O_R   0.662470 0.090020 0.331530 -0.496876
O8    O     O_R   0.572450 0.909980 0.668470 -0.550682
O9    O     O_R   0.337530 0.427550 0.668470 -0.534335
O10   O     O_R   0.090020 0.662470 0.668470 -0.517735
O11   O     O_R   0.638950 0.528780 0.324500 -0.480272
O12   O     O_R   0.427350 0.338830 0.170990 -0.531786
O13   O     O_R   0.471220 0.110170 0.324500 -0.452618
O14   O     O_R   0.889830 0.361050 0.324500 -0.460411
O15   O     O_R   0.528780 0.638950 0.675500 -0.464205
O16   O     O_R   0.110170 0.471220 0.675500 -0.480677
O17   O     O_R   0.361050 0.889830 0.675500 -0.464094
O18   O     O_3   0.666667 0.333333 0.250560 -0.265645
O19   O     O_3   0.333333 0.666667 0.749440 -0.281340
O20   O     O_3   0.308248 0.048664 0.431157 -0.566851
O21   O     O_3   0.895501 0.237233 0.440044 -0.526703
O22   O     O_3   0.750336 0.602975 0.448572 -0.520999
O23   O     O_R   0.661170 0.088520 0.170990 -0.535660
O24   O     O_3   0.920238 0.256997 0.588905 -0.557307
O25   O     O_3   0.313788 0.046098 0.584837 -0.583445
O26   O     O_3   0.701727 0.609078 0.591091 -0.527186
O27   O     O_R   0.572650 0.911480 0.829010 -0.533997
O28   O     O_R   0.338830 0.427350 0.829010 -0.531141
O29   O     O_R   0.088520 0.661170 0.829010 -0.528612
O30   O     O_R   0.640340 0.528970 0.175680 -0.509098
O31   O     O_R   0.471030 0.111370 0.175680 -0.505006
O32   O     O_R   0.888630 0.359660 0.175680 -0.506780

loop_
_geom_bond_atom_site_label_1
_geom_bond_atom_site_label_2
_ccdc_geom_bond_type
C44   C49   A    
C40   C47   A    
C54   O24   S    
C23   O32   A    
C11   C18   A    
Cr3   O14   S    
C16   C25   A    
Cr2   O18   S    
C58   H26   S    
C64   H18   S    
C1    O12   A    
C61   H37   S    
C3    C49   S    
C35   H2    S    
C63   O26   S    
C9    O10   A    
C45   O3    A    
C56   O4    A    
Cr5   O3    S    
Cr2   O13   S    
C19   C21   A    
C25   H1    S    
C6    O7    A    
C6    O13   A    
Cr1   O5    S    
C55   O25   S    
C39   C54   A    
Cr4   O8    S    
C35   H8    S    
C9    C39   S    
C53   O22   S    
Cr2   O12   S    
Cr1   O18   S    
C61   H36   S    
C60   O22   S    
C4    H24   S    
C63   H42   S    
C34   O28   A    
C43   C53   A    
Cr6   O19   S    
C38   C55   A    
C20   C24   A    
C28   H34   S    
C62   O25   S    
C5    O6    A    
C26   H12   S    
C13   C28   A    
C10   O17   A    
C27   C30   A    
C60   H31   S    
C41   C52   A    
C45   O29   A    
C42   C51   A    
C63   H43   S    
C51   O20   S    
C2    C65   S    
C15   C23   S    
Cr5   O28   S    
C5    C43   S    
Cr4   O19   S    
C34   O2    A    
C57   O26   S    
Cr6   O4    S    
C8    O15   A    
C59   H28   S    
Cr3   O32   S    
C12   O31   A    
C58   H25   S    
C14   C30   A    
C10   O8    A    
C19   C32   S    
Cr1   O1    S    
C18   C31   S    
C52   C54   A    
C31   H5    S    
C47   C50   A    
C25   C29   A    
C46   C48   A    
C17   C24   A    
C13   C19   A    
C59   H29   S    
C32   C35   S    
C12   C16   S    
C1    O30   A    
C46   C65   S    
C23   O1    A    
Cr5   O16   S    
C53   C57   A    
C33   H7    S    
C15   C26   A    
C66   H20   S    
C2    C48   S    
C3    C64   S    
C33   C37   S    
C4    C50   S    
C17   C27   A    
C64   H11   S    
C38   C44   A    
C36   H3    S    
C14   C20   A    
Cr5   O9    S    
Cr4   O2    S    
C61   O24   S    
C62   H38   S    
C5    O11   A    
C36   H9    S    
C24   C37   S    
C2    H15   S    
C62   H39   S    
C65   H13   S    
C59   O21   S    
C7    O14   A    
C39   C46   A    
C20   C33   S    
Cr6   O17   S    
C7    O5    A    
C37   H4    S    
Cr4   O15   S    
C37   H10   S    
C32   H47   S    
C44   C64   S    
Cr2   O6    S    
C66   H14   S    
C13   C45   S    
C4    H17   S    
C58   O20   S    
Cr3   O18   S    
C65   H19   S    
C16   C22   A    
C40   C57   A    
C47   C66   S    
C3    H16   S    
C18   C22   A    
C59   H30   S    
C1    C17   S    
C29   H44   S    
C2    H21   S    
Cr1   O11   S    
C58   H27   S    
C14   C34   S    
Cr5   O19   S    
C43   C50   A    
Cr6   O10   S    
C21   C35   S    
C30   H45   S    
Cr3   O23   S    
C22   C36   S    
C31   H46   S    
C26   C28   A    
C52   O21   S    
C12   O23   A    
C10   C38   S    
C56   O27   A    
Cr2   O31   S    
C11   C29   A    
C4    C66   S    
C41   C48   A    
C3    H22   S    
C51   C55   A    
C7    C41   S    
C61   H35   S    
C60   H33   S    
C42   C49   A    
C32   H6    S    
C63   H41   S    
C9    O16   A    
C15   C21   A    
C62   H40   S    
Cr3   O7    S    
C33   H48   S    
Cr6   O29   S    
C6    C42   S    
C8    O9    A    
C31   C36   S    
Cr4   O27   S    
C8    C40   S    
C27   H23   S    
C60   H32   S    
C11   C56   S    
Cr1   O30   S    
