data_mof_unit_11403.cif
_audit_creation_date              2012-12-10T17:36:50-0500
_audit_creation_method            fapswitch 2.2
_symmetry_space_group_name_H-M    P1
_symmetry_Int_Tables_number       1
_space_group_crystal_system       triclinic
_cell_length_a                    10.593231
_cell_length_b                    12.390891
_cell_length_c                    13.14789
_cell_angle_alpha                 117.080969
_cell_angle_beta                  76.691857
_cell_angle_gamma                 101.016224
_cell_volume                      1487.88064628

loop_
_atom_site_label
_atom_site_type_symbol
_atom_type_description
_atom_site_fract_x
_atom_site_fract_y
_atom_site_fract_z
_atom_type_partial_charge
C1    C     C_R   0.509861 0.855119 0.286018 0.817399
C2    C     C_3   0.015338 0.015805 0.603745 0.294834
C3    C     C_3   0.932045 0.907860 0.523571 -0.145583
C4    C     C_3   0.876903 0.998819 0.500148 -0.033514
C5    C     C_R   0.333284 0.277062 0.028804 -0.186612
C6    C     C_R   0.456971 0.227660 0.836886 -0.050067
C7    C     C_R   0.572722 0.816206 0.076525 0.410941
C8    C     C_R   0.593676 0.734426 0.959318 0.460080
C9    C     C_R   0.559454 0.609782 0.927237 -0.352354
C10   C     C_R   0.492126 0.565664 0.009115 0.018205
C11   C     C_R   0.454807 0.650781 0.124646 -0.006481
C12   C     C_R   0.740184 0.999391 0.499709 0.793434
C13   C     C_R   0.457293 0.439481 0.978935 0.126332
C14   C     C_R   0.372063 0.401330 0.059510 0.145424
C15   C     C_R   0.323108 0.487770 0.168217 -0.233558
C16   C     C_R   0.362327 0.610621 0.199830 -0.139624
C17   C     C_R   0.504250 0.349769 0.870445 -0.209983
C18   C     C_R   0.373935 0.190544 0.917157 -0.158937
C19   C     C_R   0.509675 0.773858 0.161193 -0.302789
C20   C     C_R   0.705560 0.340471 0.321670 -0.267770
C21   C     C_R   0.310080 0.753126 0.631522 0.070862
C22   C     C_R   0.248552 0.644368 0.633005 -0.255487
C23   C     C_R   0.481757 0.144900 0.713849 0.842480
C24   C     C_R   0.311290 0.538677 0.569207 -0.115012
C25   C     C_R   0.441831 0.542389 0.513617 -0.005599
C26   C     C_R   0.491796 0.650843 0.500074 0.200923
C27   C     C_R   0.519651 0.440516 0.462131 -0.153139
C28   C     C_R   0.630969 0.440478 0.377961 0.027318
C29   C     C_R   0.667536 0.540903 0.351427 0.433127
C30   C     C_R   0.603212 0.646164 0.416693 -0.275340
C31   C     C_R   0.497755 0.342229 0.495013 0.402091
C32   C     C_R   0.674816 0.243700 0.352016 0.008805
C33   C     C_R   0.259838 0.000501 0.500194 0.835387
C34   C     C_3   0.984091 0.983810 0.395383 -0.168819
C35   C     C_3   0.041760 0.893125 0.418822 -0.209769
C36   C     C_3   0.123015 0.001004 0.500044 -0.038671
C37   C     C_3   0.067460 0.091763 0.476692 -0.159676
C38   C     C_3   0.957822 0.106821 0.581523 -0.171096
Cu1   Cu    Cu3+1 0.529830 0.098270 0.475420 0.985162
Cu2   Cu    Cu3+1 0.470170 0.901730 0.524580 0.930062
H1    H     H_    0.079353 0.806038 0.352237 0.155213
H2    H     H_    0.576454 0.372267 0.808767 0.156292
H3    H     H_    0.583656 0.550184 0.836932 0.181025
H4    H     H_    0.314977 0.673538 0.282427 0.172548
H5    H     H_    0.731856 0.166531 0.307544 0.170670
H6    H     H_    0.788543 0.337038 0.254736 0.201257
H7    H     H_    0.259124 0.834177 0.677065 0.167316
H8    H     H_    0.967773 0.970536 0.309824 0.148210
H9    H     H_    0.252987 0.453964 0.558280 0.180764
H10   H     H_    0.149999 0.640752 0.678815 0.167103
H11   H     H_    0.641198 0.720722 0.395605 0.218576
H12   H     H_    0.125413 0.166936 0.457451 0.164219
H13   H     H_    0.920345 0.193807 0.648438 0.154594
H14   H     H_    0.874131 0.832903 0.543202 0.167742
H15   H     H_    0.336616 0.095854 0.892450 0.163580
H16   H     H_    0.253631 0.460451 0.229001 0.149238
H17   H     H_    0.267624 0.247357 0.089710 0.139805
N1    N     N_R   0.575030 0.246270 0.438190 -0.196005
N2    N     N_R   0.425760 0.754330 0.561190 -0.203514
O1    O     O_R   0.537510 0.972500 0.318130 -0.537369
O2    O     O_R   0.487140 0.806530 0.359650 -0.610243
O3    O     O_R   0.708330 0.082950 0.479220 -0.582815
O4    O     O_R   0.657960 0.916980 0.520740 -0.606222
O5    O     O_R   0.512860 0.193470 0.640350 -0.535737
O6    O     O_R   0.462490 0.027500 0.681870 -0.591516
O7    O     O_R   0.342040 0.083020 0.479260 -0.558078
O8    O     O_R   0.291670 0.917050 0.520780 -0.585914
O9    O     O_3   0.621529 0.936901 0.107977 -0.541161
C39   C     C_3   0.528425 0.998659 0.099174 -0.228415
H18   H     H_    0.433651 0.992646 0.155430 0.136581
H19   H     H_    0.513564 0.963701 0.008040 0.165819
H20   H     H_    0.565019 0.096455 0.128921 0.180586
O10   O     O_3   0.661642 0.777867 0.879454 -0.541857
C40   C     C_3   0.591802 0.741629 0.787575 -0.276059
H21   H     H_    0.485105 0.748798 0.817994 0.148454
H22   H     H_    0.610131 0.647785 0.721468 0.175499
H23   H     H_    0.627722 0.803095 0.744373 0.199374
O11   O     O_3   0.775365 0.540825 0.268591 -0.585337
C41   C     C_3   0.732568 0.531246 0.170504 -0.298587
H24   H     H_    0.692903 0.616313 0.188856 0.166145
H25   H     H_    0.658908 0.451316 0.138410 0.165608
H26   H     H_    0.817446 0.517755 0.099876 0.199706
Br1   Br    Br    0.374803 0.352820 0.632394 -0.548710
Br2   Br    Br    0.040839 0.039625 0.754122 -0.531373

loop_
_geom_bond_atom_site_label_1
_geom_bond_atom_site_label_2
_ccdc_geom_bond_type
C30   H11   S    
C34   C37   S    
C32   H5    S    
C2    Br2   S    
C35   C36   S    
C32   N1    A    
C7    C8    A    
Cu1   O5    S    
C11   C19   A    
C29   C30   A    
Cu2   O4    S    
C40   H22   S    
C31   N1    A    
C28   C29   A    
C21   N2    A    
C3    H14   S    
Cu1   O1    S    
C15   C16   A    
C33   C36   S    
C31   Br1   S    
C34   C35   S    
O10   C40   S    
C39   H19   S    
C17   H2    S    
C7    O9    S    
C29   O11   S    
C8    C9    A    
Cu2   O8    S    
C4    C12   S    
C9    C10   A    
C16   H4    S    
C22   H10   S    
Cu2   N2    S    
C21   C22   A    
C33   O7    A    
C6    C18   A    
C4    C34   S    
C9    H3    S    
C1    C19   S    
C40   H21   S    
C27   C31   A    
C24   C25   A    
C1    O1    A    
Cu1   Cu2   S    
C41   H25   S    
C12   O4    A    
O11   C41   S    
O9    C39   S    
C5    C18   A    
C20   C28   A    
C25   C26   A    
Cu1   N1    S    
C40   H23   S    
Cu2   O2    S    
C39   H20   S    
C37   C38   S    
C12   O3    A    
C11   C16   A    
C2    C38   S    
C3    C35   S    
C5    C14   A    
C18   H15   S    
C23   O5    A    
C4    C38   S    
C26   C30   A    
C7    C19   A    
Cu2   O6    S    
Cu1   O7    S    
C22   C24   A    
C34   H8    S    
C3    C4    S    
C6    C17   A    
C33   O8    A    
C20   C32   A    
C2    C36   S    
C24   H9    S    
C37   H12   S    
Cu1   O3    S    
C36   C37   S    
C10   C13   A    
C1    O2    A    
C41   H26   S    
C5    H17   S    
C25   C27   A    
C13   C17   A    
C15   H16   S    
C23   O6    A    
C2    C3    S    
C38   H13   S    
C6    C23   S    
C8    O10   S    
C39   H18   S    
C35   H1    S    
C10   C11   A    
C41   H24   S    
C27   C28   A    
C14   C15   A    
C26   N2    A    
C13   C14   A    
C20   H6    S    
C21   H7    S    
