data_mof_unit_55149.cif
_audit_creation_date              2012-12-10T17:58:21-0500
_audit_creation_method            fapswitch 2.2
_symmetry_space_group_name_H-M    P1
_symmetry_Int_Tables_number       1
_space_group_crystal_system       triclinic
_cell_length_a                    9.530075
_cell_length_b                    10.795366
_cell_length_c                    15.49784
_cell_angle_alpha                 89.81337
_cell_angle_beta                  74.459778
_cell_angle_gamma                 89.703328
_cell_volume                      1536.11621473

loop_
_atom_site_label
_atom_site_type_symbol
_atom_type_description
_atom_site_fract_x
_atom_site_fract_y
_atom_site_fract_z
_atom_type_partial_charge
C1    C     C_R   0.999469 0.262294 0.502087 0.851069
C2    C     C_R   0.000534 0.737701 0.497907 0.850549
C3    C     C_R   0.575435 0.575632 0.089123 -0.205480
C4    C     C_R   0.414725 0.479709 0.905320 -0.202703
C5    C     C_R   0.720623 0.592056 0.043596 -0.223794
C6    C     C_R   0.269073 0.465588 0.950514 -0.224400
C7    C     C_R   0.929505 0.067237 0.446660 -0.227475
C8    C     C_R   0.070503 0.932739 0.553323 -0.227641
C9    C     C_R   0.929777 0.938942 0.443270 0.276053
C10   C     C_R   0.070275 0.061031 0.556690 0.275791
C11   C     C_R   0.000129 0.871499 0.497454 -0.134910
C12   C     C_R   0.999883 0.128484 0.502529 -0.135643
C13   C     C_R   0.546460 0.437666 0.564529 -0.007045
C14   C     C_R   0.453533 0.562367 0.435486 -0.006521
C15   C     C_R   0.397755 0.437996 0.564628 0.001667
C16   C     C_R   0.602242 0.562028 0.435383 0.002503
C17   C     C_R   0.918273 0.501456 0.672067 0.811546
C18   C     C_R   0.081721 0.499856 0.327871 0.811032
C19   C     C_R   0.872767 0.513816 0.769791 -0.036327
C20   C     C_R   0.126606 0.497864 0.229630 -0.037972
C21   C     C_R   0.917459 0.581979 0.908260 -0.207581
C22   C     C_R   0.075311 0.461041 0.087501 -0.203105
C23   C     C_R   0.968623 0.557027 0.817122 -0.183340
C24   C     C_R   0.027256 0.471249 0.180255 -0.174001
C25   C     C_R   0.726847 0.492721 0.814671 -0.228658
C26   C     C_R   0.273007 0.518426 0.185245 -0.233039
C27   C     C_R   0.670939 0.521944 0.905775 0.094112
C28   C     C_R   0.323849 0.511875 0.091457 0.094285
C29   C     C_R   0.769875 0.564952 0.952828 0.159802
C30   C     C_R   0.222552 0.479829 0.042924 0.161244
C31   C     C_R   0.520162 0.510077 0.951100 0.068681
C32   C     C_R   0.472809 0.532193 0.045049 0.067117
Cu1   Cu    Cu3+1 0.140660 0.500020 0.500000 0.978805
Cu2   Cu    Cu3+1 0.859340 0.499980 0.500000 0.979321
H1    H     H_    0.795082 0.626307 0.079956 0.159538
H2    H     H_    0.192469 0.441698 0.912702 0.156000
H3    H     H_    0.346061 0.535658 0.225958 0.144586
H4    H     H_    0.659354 0.453217 0.776398 0.142362
H5    H     H_    0.913521 0.454805 0.213395 0.157415
H6    H     H_    0.081866 0.574589 0.783368 0.156674
H7    H     H_    0.992761 0.617136 0.943608 0.147690
H8    H     H_    0.997637 0.436357 0.050702 0.147616
H9    H     H_    0.546914 0.601636 0.158661 0.144020
H10   H     H_    0.439855 0.468803 0.833801 0.141361
H11   H     H_    0.877012 0.119446 0.404065 0.185980
H12   H     H_    0.122989 0.880527 0.595921 0.185548
H13   H     H_    0.579863 0.387192 0.616131 0.129109
H14   H     H_    0.420123 0.612875 0.383899 0.127915
H15   H     H_    0.319539 0.388532 0.616542 0.163203
H16   H     H_    0.680457 0.611507 0.383474 0.161879
N1    N     N_R   0.352080 0.500030 0.499980 -0.166897
N2    N     N_R   0.647920 0.499970 0.500020 -0.166741
O1    O     O_R   0.118740 0.319660 0.500000 -0.541375
O2    O     O_R   0.881260 0.680340 0.500000 -0.541596
O3    O     O_R   0.881170 0.319630 0.500010 -0.587225
O4    O     O_R   0.118830 0.680370 0.499990 -0.587860
O5    O     O_R   0.055570 0.500030 0.629830 -0.583534
O6    O     O_R   0.944430 0.499970 0.370170 -0.583612
O7    O     O_R   0.818000 0.500000 0.629840 -0.594542
O8    O     O_R   0.182000 0.500000 0.370160 -0.595180
Br1   Br    Br    0.841755 0.862152 0.359129 -0.544653
Br2   Br    Br    0.158489 0.137783 0.640744 -0.541626

loop_
_geom_bond_atom_site_label_1
_geom_bond_atom_site_label_2
_ccdc_geom_bond_type
C19   C23   A    
C26   H3    S    
C21   C29   A    
C15   N1    A    
C25   H4    S    
Cu1   N1    S    
C13   N2    A    
C4    H10   S    
Cu1   O5    S    
Cu2   N2    S    
C31   C32   A    
C13   C15   A    
C21   H7    S    
Cu1   O4    S    
C28   C30   A    
Cu1   Cu2   S    
C1    O3    A    
Cu2   O3    S    
C7    H11   S    
C22   H8    S    
C20   C24   A    
C9    C11   A    
C3    H9    S    
C10   Br2   S    
C1    C12   S    
C20   C26   A    
C17   O7    A    
C8    C11   A    
C9    Br1   S    
C2    C11   S    
C10   C12   A    
C22   C24   A    
C18   O8    A    
C13   H13   S    
C17   C19   S    
C6    H2    S    
Cu2   O2    S    
Cu1   O8    S    
C18   C20   S    
C2    O4    A    
C15   H15   S    
C21   C23   A    
Cu1   O1    S    
C3    C32   A    
C19   C25   A    
C14   C16   A    
C7    C12   A    
C4    C31   A    
C27   C29   A    
C27   C31   A    
C23   H6    S    
C5    C29   A    
C5    H1    S    
C28   C32   A    
C24   H5    S    
Cu2   O6    S    
C4    C6    A    
C2    O2    A    
C17   O5    A    
C16   N2    A    
C7    C9    A    
C1    O1    A    
C14   H14   S    
C22   C30   A    
C8    H12   S    
C6    C30   A    
Cu2   O7    S    
C26   C28   A    
C18   O6    A    
C8    C10   A    
C14   N1    A    
C16   H16   S    
C3    C5    A    
C25   C27   A    
