data_mof_unit_9667.cif
_audit_creation_date              2012-12-11T15:34:41-0500
_audit_creation_method            fapswitch 2.2
_symmetry_space_group_name_H-M    P1
_symmetry_Int_Tables_number       1
_space_group_crystal_system       triclinic
_cell_length_a                    15.059774
_cell_length_b                    15.068896
_cell_length_c                    34.937566
_cell_angle_alpha                 90.514154
_cell_angle_beta                  89.908486
_cell_angle_gamma                 59.98687
_cell_volume                      6864.95158218

loop_
_atom_site_label
_atom_site_type_symbol
_atom_type_description
_atom_site_fract_x
_atom_site_fract_y
_atom_site_fract_z
_atom_type_partial_charge
C1    C     C_R   0.302616 0.608156 0.555833 0.549047
C2    C     C_R   0.234674 0.711759 0.386778 -0.122248
C3    C     C_R   0.752358 0.148631 0.266136 -0.105588
C4    C     C_R   0.758062 0.141593 0.226336 -0.106086
C5    C     C_R   0.670332 0.200662 0.204163 0.027419
C6    C     C_R   0.723205 0.228170 0.348527 -0.112300
C7    C     C_R   0.707646 0.246502 0.387813 -0.120101
C8    C     C_R   0.552034 0.236728 0.383672 -0.121077
C9    C     C_R   0.742923 0.586983 0.647342 -0.081536
C10   C     C_R   0.567423 0.218895 0.344412 -0.121238
C11   C     C_R   0.650869 0.218528 0.326377 0.026021
C12   C     C_R   0.619479 0.255404 0.405434 0.020177
C13   C     C_R   0.212860 0.714481 0.348024 -0.119927
C14   C     C_R   0.086838 0.705396 0.093600 0.028958
C15   C     C_R   0.091140 0.618769 0.110442 -0.164506
C16   C     C_R   0.128004 0.590077 0.147346 -0.138635
C17   C     C_R   0.161598 0.647172 0.168260 -0.012693
C18   C     C_R   0.166187 0.727949 0.150545 -0.079612
C19   C     C_R   0.129937 0.757138 0.113424 0.234860
C20   C     C_R   0.260090 0.639534 0.226693 -0.117704
C21   C     C_R   0.203022 0.635145 0.331164 0.027438
C22   C     C_R   0.570774 0.731153 0.649324 -0.110101
C23   C     C_R   0.248305 0.628765 0.409043 0.023561
C24   C     C_R   0.736040 0.025363 0.943295 0.539081
C25   C     C_R   0.745328 0.722475 0.945228 0.560181
C26   C     C_R   0.038186 0.734030 0.948270 0.545517
C27   C     C_R   0.722966 0.038720 0.052857 0.538418
C28   C     C_R   0.733336 0.734514 0.054717 0.545688
C29   C     C_R   0.661118 0.664040 0.668335 -0.037557
C30   C     C_R   0.028181 0.744393 0.057821 0.568410
C31   C     C_R   0.557165 0.715067 0.610903 0.044975
C32   C     C_R   0.677662 0.672640 0.787721 0.343440
C33   C     C_R   0.668434 0.670543 0.710212 0.346009
C34   C     C_R   0.775724 0.604779 0.847874 -0.129680
C35   C     C_R   0.790087 0.616206 0.886431 -0.148777
C36   C     C_R   0.619485 0.766027 0.890490 0.078518
C37   C     C_R   0.606030 0.753915 0.851576 -0.089619
C38   C     C_R   0.685531 0.676189 0.829668 0.008620
C39   C     C_R   0.611480 0.589721 0.554938 0.580269
C40   C     C_R   0.268016 0.639403 0.266350 -0.116688
C41   C     C_R   0.714900 0.699667 0.907846 0.028206
C42   C     C_R   0.723464 0.072010 0.905341 0.017350
C43   C     C_R   0.633297 0.101309 0.884580 -0.113212
C44   C     C_R   0.629718 0.121345 0.845640 -0.114215
C45   C     C_R   0.715778 0.113347 0.826828 0.024577
C46   C     C_R   0.803059 0.092282 0.848028 -0.114529
C47   C     C_R   0.807009 0.071520 0.887056 -0.120696
C48   C     C_R   0.747641 0.183393 0.767119 -0.104086
C49   C     C_R   0.740995 0.194882 0.727461 -0.102627
C50   C     C_R   0.703529 0.142997 0.704947 0.025760
C51   C     C_R   0.197099 0.629631 0.289426 0.023166
C52   C     C_R   0.590364 0.300340 0.553514 0.542320
C53   C     C_R   0.676609 0.076473 0.722680 -0.107195
C54   C     C_R   0.682427 0.065742 0.762289 -0.107878
C55   C     C_R   0.715949 0.120730 0.784844 0.023609
C56   C     C_R   0.591421 0.181061 0.647799 -0.106077
C57   C     C_R   0.564233 0.218255 0.610771 -0.110604
C58   C     C_R   0.723550 0.219969 0.604122 -0.112487
C59   C     C_R   0.750913 0.182352 0.641143 -0.111064
C60   C     C_R   0.683489 0.165913 0.663782 0.024157
C61   C     C_R   0.628319 0.241617 0.589103 0.014161
C62   C     C_R   0.120889 0.615479 0.272473 -0.109447
C63   C     C_R   0.092363 0.696995 0.911252 -0.001333
C64   C     C_R   0.300263 0.610262 0.446092 0.542386
C65   C     C_R   0.129876 0.753702 0.892388 -0.095600
C66   C     C_R   0.156651 0.736179 0.853660 0.093696
C67   C     C_R   0.146520 0.660604 0.833391 0.029160
C68   C     C_R   0.117965 0.597870 0.852946 -0.139367
C69   C     C_R   0.091054 0.615835 0.891626 -0.133426
C70   C     C_R   0.234837 0.566085 0.773605 -0.092859
C71   C     C_R   0.243239 0.560890 0.733757 -0.054136
C72   C     C_R   0.170910 0.641864 0.711378 0.064743
C73   C     C_R   0.112310 0.616550 0.232787 -0.104682
C74   C     C_R   0.090064 0.728053 0.729396 -0.093918
C75   C     C_R   0.081996 0.733423 0.769216 -0.079386
C76   C     C_R   0.607981 0.589754 0.445271 0.546547
C77   C     C_R   0.155178 0.653141 0.791476 0.044254
C78   C     C_R   0.193664 0.720526 0.652958 -0.152847
C79   C     C_R   0.224280 0.713832 0.614876 -0.125112
C80   C     C_R   0.231876 0.550011 0.608449 -0.082128
C81   C     C_R   0.200787 0.556521 0.646570 0.241477
C82   C     C_R   0.185697 0.640323 0.669576 0.030630
C83   C     C_R   0.247983 0.626450 0.592746 -0.022677
C84   C     C_R   0.180614 0.630670 0.209611 0.028524
C85   C     C_R   0.691555 0.719039 0.090625 0.023058
C86   C     C_R   0.608577 0.802462 0.109237 -0.115235
C87   C     C_R   0.583051 0.793343 0.146841 -0.114063
C88   C     C_R   0.587813 0.303151 0.443665 0.540779
C89   C     C_R   0.639591 0.700561 0.166317 0.030430
C90   C     C_R   0.717169 0.615061 0.146673 -0.113586
C91   C     C_R   0.742985 0.624226 0.109175 -0.121908
C92   C     C_R   0.630791 0.608056 0.224012 -0.109446
C93   C     C_R   0.631464 0.597801 0.263640 -0.067760
C94   C     C_R   0.628276 0.674275 0.287778 0.061455
C95   C     C_R   0.206710 0.557458 0.354001 -0.114462
C96   C     C_R   0.619082 0.763506 0.271950 -0.106278
C97   C     C_R   0.618420 0.773865 0.232297 -0.110788
C98   C     C_R   0.626197 0.695348 0.207973 0.027604
C99   C     C_R   0.549981 0.730991 0.352179 -0.167782
C100  C     C_R   0.634657 0.627578 0.590961 0.027687
C101  C     C_R   0.545582 0.712217 0.390930 -0.138325
C102  C     C_R   0.711522 0.557643 0.385652 -0.084945
C103  C     C_R   0.716131 0.575949 0.346797 0.240344
C104  C     C_R   0.632984 0.661053 0.329535 0.033717
C105  C     C_R   0.624429 0.623130 0.407664 -0.017809
C106  C     C_R   0.229508 0.554095 0.392776 -0.117846
C107  C     C_R   0.699078 0.101661 0.087915 0.018139
C108  C     C_R   0.772766 0.122113 0.103778 -0.114449
C109  C     C_R   0.760046 0.161683 0.140847 -0.115728
C110  C     C_R   0.673570 0.181300 0.162599 0.027195
C111  C     C_R   0.595802 0.169313 0.145524 -0.117918
C112  C     C_R   0.731230 0.568936 0.609021 0.212379
C113  C     C_R   0.608344 0.130007 0.108433 -0.123950
C114  C     C_R   0.577713 0.269626 0.222442 -0.117630
C115  C     C_R   0.571945 0.276290 0.262246 -0.114921
C116  C     C_R   0.658735 0.214295 0.284357 0.029924
Cl1   Cl    Cl    0.841366 0.470712 0.585790 -0.542928
Cl2   Cl    Cl    0.182676 0.457794 0.664535 -0.582913
Cl3   Cl    Cl    0.826318 0.489488 0.320523 -0.635276
Cl4   Cl    Cl    0.137719 0.861000 0.094324 -0.586170
Cr1   Cr    Cr6+3 0.421670 0.426920 0.499620 1.035048
Cr2   Cr    Cr6+3 0.427030 0.651190 0.500980 1.063685
Cr3   Cr    Cr6+3 0.651280 0.421870 0.499380 1.071050
Cr4   Cr    Cr6+3 0.910810 0.908010 0.001130 1.069350
Cr5   Cr    Cr6+3 0.682800 0.909890 0.998370 1.063625
Cr6   Cr    Cr6+3 0.908370 0.682300 0.002180 1.020221
H1    H     H_    0.877639 0.048980 0.902272 0.140728
H2    H     H_    0.870172 0.086046 0.833994 0.128210
H3    H     H_    0.774921 0.236519 0.587976 0.158484
H4    H     H_    0.133035 0.815631 0.907088 0.162728
H5    H     H_    0.062533 0.570755 0.905353 0.136604
H6    H     H_    0.307630 0.494855 0.720400 0.148153
H7    H     H_    0.291528 0.503513 0.790517 0.120399
H8    H     H_    0.034002 0.791471 0.712634 0.118422
H9    H     H_    0.019300 0.800596 0.782768 0.131004
H10   H     H_    0.181813 0.785896 0.670097 0.138561
H11   H     H_    0.863515 0.562739 0.898738 0.140386
H12   H     H_    0.823182 0.169514 0.652546 0.126268
H13   H     H_    0.234959 0.774446 0.603499 0.176139
H14   H     H_    0.110412 0.539101 0.837684 0.129213
H15   H     H_    0.247753 0.482784 0.591673 0.167903
H16   H     H_    0.567250 0.876471 0.095634 0.135779
H17   H     H_    0.806956 0.558476 0.095504 0.133318
H18   H     H_    0.635836 0.529578 0.275538 0.140714
H19   H     H_    0.635475 0.547143 0.205889 0.109778
H20   H     H_    0.521871 0.859924 0.161233 0.112060
H21   H     H_    0.615488 0.823608 0.290275 0.113099
H22   H     H_    0.815640 0.537772 0.661032 0.190873
H23   H     H_    0.760889 0.247843 0.714643 0.123736
H24   H     H_    0.616120 0.841368 0.220684 0.108839
H25   H     H_    0.485850 0.797216 0.339375 0.115506
H26   H     H_    0.477543 0.764304 0.407158 0.142543
H27   H     H_    0.762435 0.542766 0.161079 0.118101
H28   H     H_    0.773792 0.489115 0.398035 0.166281
H29   H     H_    0.842963 0.102194 0.088428 0.155562
H30   H     H_    0.550013 0.115542 0.096887 0.133555
H31   H     H_    0.511997 0.209244 0.327865 0.109725
H32   H     H_    0.499471 0.329377 0.275807 0.111827
H33   H     H_    0.509398 0.316835 0.205961 0.109729
H34   H     H_    0.773720 0.226399 0.784065 0.121304
H35   H     H_    0.508760 0.794829 0.664658 0.172688
H36   H     H_    0.820121 0.172203 0.153192 0.120111
H37   H     H_    0.820100 0.100147 0.282699 0.111638
H38   H     H_    0.830021 0.086439 0.212997 0.116020
H39   H     H_    0.788328 0.227782 0.335142 0.133444
H40   H     H_    0.761052 0.260466 0.403833 0.138637
H41   H     H_    0.528600 0.183235 0.161737 0.108186
H42   H     H_    0.483679 0.242590 0.396428 0.135174
H43   H     H_    0.060966 0.575770 0.095923 0.142603
H44   H     H_    0.208179 0.776110 0.330806 0.111975
H45   H     H_    0.560857 0.139618 0.829869 0.122464
H46   H     H_    0.837709 0.542483 0.831997 0.147143
H47   H     H_    0.328909 0.647964 0.279084 0.110035
H48   H     H_    0.314594 0.648846 0.209412 0.110284
H49   H     H_    0.126107 0.525844 0.160156 0.121485
H50   H     H_    0.065794 0.607598 0.289949 0.133119
H51   H     H_    0.049357 0.611121 0.220345 0.120293
H52   H     H_    0.198672 0.495945 0.341376 0.119053
H53   H     H_    0.239060 0.489510 0.409341 0.133756
H54   H     H_    0.192628 0.772480 0.166306 0.142623
H55   H     H_    0.248166 0.770699 0.398535 0.133740
H56   H     H_    0.649242 0.034204 0.705977 0.121803
H57   H     H_    0.534316 0.807666 0.838251 0.169681
H58   H     H_    0.567430 0.102974 0.897857 0.154229
H59   H     H_    0.659840 0.015096 0.775410 0.124810
H60   H     H_    0.537365 0.170093 0.664674 0.130975
H61   H     H_    0.490313 0.234232 0.600024 0.154228
I1    I     I_    0.415861 0.830069 0.587429 -0.339131
I2    I     I_    0.208076 0.828865 0.827199 -0.367323
I3    I     I_    0.491075 0.886949 0.919567 -0.317431
N1    N     N_R   0.758096 0.601493 0.766692 -0.223412
N2    N     N_R   0.753430 0.600199 0.728746 -0.216316
N3    N     N_R   0.587905 0.741957 0.731209 -0.217700
N4    N     N_R   0.592615 0.743315 0.769226 -0.216973
O1    O     O_R   0.502070 0.323090 0.541280 -0.512794
O2    O     O_R   0.831550 0.656950 0.958960 -0.526184
O3    O     O_R   0.998590 0.685540 0.963930 -0.503499
O4    O     O_R   0.338340 0.520690 0.539540 -0.503444
O5    O     O_R   0.008220 0.831200 0.045060 -0.438037
O6    O     O_R   0.813270 0.997930 0.038810 -0.496339
O7    O     O_R   0.657500 0.016560 0.039940 -0.517957
O8    O     O_R   0.685680 0.820940 0.038120 -0.495004
O9    O     O_R   0.822130 0.666070 0.043610 -0.518938
O10   O     O_R   0.989860 0.694000 0.042400 -0.518277
O11   O     O_3   0.833990 0.833400 0.000560 -0.255666
O12   O     O_R   0.520720 0.641670 0.461580 -0.498650
O13   O     O_R   0.324760 0.674070 0.543580 -0.487532
O14   O     O_R   0.522400 0.640310 0.540110 -0.475423
O15   O     O_R   0.675940 0.500630 0.542210 -0.446425
O16   O     O_R   0.641790 0.337020 0.538150 -0.496148
O17   O     O_R   0.500260 0.324550 0.456580 -0.515800
O18   O     O_R   0.336660 0.522040 0.461020 -0.502205
O19   O     O_R   0.322940 0.675540 0.458880 -0.516399
O20   O     O_R   0.674120 0.502090 0.457500 -0.511148
O21   O     O_R   0.640110 0.338380 0.459630 -0.504449
O22   O     O_3   0.499990 0.499990 0.499990 -0.257404
O23   O     O_R   0.017640 0.822070 0.960410 -0.509089
O24   O     O_R   0.822000 0.989470 0.960340 -0.505689
O25   O     O_R   0.666920 0.007430 0.955290 -0.499773
O26   O     O_R   0.694410 0.812480 0.959650 -0.462815

loop_
_geom_bond_atom_site_label_1
_geom_bond_atom_site_label_2
_ccdc_geom_bond_type
C48   C55   A    
C79   H13   S    
C63   C65   A    
C52   O1    A    
C76   C105  S    
C88   O21   A    
Cr3   O21   S    
C5    C114  A    
C24   C42   S    
Cr2   O12   S    
C1    O4    A    
C67   C77   S    
C26   C63   S    
C97   C98   A    
C85   C91   A    
C92   C98   A    
C53   C54   A    
C108  C109  A    
C48   H34   S    
Cr4   O5    S    
C39   O15   A    
C93   C94   A    
Cr6   O11   S    
C33   N2    A    
C36   I3    S    
C46   H2    S    
C36   C37   A    
C22   C29   A    
C34   C35   A    
C109  H36   S    
C40   H47   S    
C20   C40   A    
C75   H9    S    
C5    C110  S    
C58   H3    S    
C115  C116  A    
C37   H57   S    
C66   I2    S    
C29   C33   S    
C43   H58   S    
C56   C57   A    
C15   H43   S    
C102  C105  A    
C18   C19   A    
Cr1   O18   S    
C39   C100  S    
C26   O3    A    
C2    C13   A    
C110  C111  A    
C107  C113  A    
C8    H42   S    
C71   H6    S    
C46   C47   A    
C18   H54   S    
C20   H48   S    
C63   C69   A    
C68   C69   A    
C54   H59   S    
C45   C46   A    
C31   I1    S    
C70   H7    S    
C97   H24   S    
C4    H38   S    
C62   C73   A    
C70   C71   A    
C32   C38   S    
C102  H28   S    
C73   C84   A    
N3    N4    A    
C3    H37   S    
C73   H51   S    
C9    C112  A    
Cr1   O17   S    
C30   O5    A    
C6    H39   S    
C94   C104  S    
C59   C60   A    
C27   O7    A    
Cr3   O22   S    
C39   O14   A    
C70   C77   A    
C52   O16   A    
C36   C41   A    
C51   C62   A    
C14   C30   S    
C80   C83   A    
C1    O13   A    
C14   C19   A    
C76   O12   A    
C81   C82   A    
C91   H17   S    
C101  C105  A    
C7    C12   A    
Cr1   O4    S    
Cr4   O24   S    
Cr5   O8    S    
C50   C53   A    
C57   H61   S    
C74   C75   A    
C12   C88   S    
C115  H32   S    
N1    N2    A    
Cr1   O22   S    
Cr2   O14   S    
C64   O19   A    
C66   C67   A    
C72   C74   A    
C22   C31   A    
C114  C115  A    
C25   C41   S    
C6    C11   A    
C22   H35   S    
C78   C79   A    
C16   C17   A    
C21   C95   A    
C59   H12   S    
Cr6   O10   S    
C58   C59   A    
C85   C86   A    
C23   C106  A    
C99   H25   S    
C81   Cl2   S    
C88   O17   A    
C56   C60   A    
C32   N1    A    
C2    H55   S    
C43   C44   A    
C24   O25   A    
C37   C38   A    
C95   C106  A    
Cr6   O2    S    
C78   C82   A    
C95   H52   S    
C27   C107  S    
C8    C12   A    
C62   H50   S    
C96   C97   A    
C2    C23   A    
C17   C18   A    
C13   C21   A    
C111  C113  A    
C31   C100  A    
C90   H27   S    
C94   C96   A    
C11   C116  S    
C75   C77   A    
C10   H31   S    
C25   O2    A    
Cr5   O25   S    
C16   H49   S    
C32   N4    A    
C13   H44   S    
C99   C101  A    
C7    H40   S    
C56   H60   S    
C19   Cl4   S    
C80   H15   S    
C87   C89   A    
C69   H5    S    
C68   H14   S    
Cr4   O11   S    
C111  H41   S    
C42   C43   A    
C107  C108  A    
C3    C4    A    
C106  H53   S    
C21   C51   S    
C34   H46   S    
C44   C45   A    
C86   C87   A    
C86   H16   S    
C54   C55   A    
C96   H21   S    
Cr4   O23   S    
C23   C64   S    
C101  H26   S    
C92   H19   S    
C34   C38   A    
C28   O9    A    
Cr2   O13   S    
C103  Cl3   S    
C27   O6    A    
C80   C81   A    
Cr5   O11   S    
C52   C61   S    
C87   H20   S    
C57   C61   A    
C6    C7    A    
C67   C68   A    
C9    C29   A    
Cr6   O9    S    
C1    C83   S    
C40   C51   A    
C30   O10   A    
Cr4   O6    S    
C9    H22   S    
Cr2   O19   S    
C49   H23   S    
C89   C98   S    
C3    C116  A    
C17   C84   S    
C28   O8    A    
C20   C84   A    
C44   H45   S    
C50   C60   S    
C71   C72   A    
C109  C110  A    
Cr5   O7    S    
C79   C83   A    
C90   C91   A    
C112  Cl1   S    
C108  H29   S    
C47   H1    S    
C58   C61   A    
C48   C49   A    
C74   H8    S    
C65   H4    S    
C93   H18   S    
C92   C93   A    
Cr2   O22   S    
C99   C104  A    
C42   C47   A    
C65   C66   A    
C102  C103  A    
C35   C41   A    
C72   C82   S    
C114  H33   S    
C28   C85   S    
C10   C11   A    
C33   N3    A    
Cr5   O26   S    
C76   O20   A    
C4    C5    A    
C45   C55   S    
C8    C10   A    
C49   C50   A    
Cr3   O20   S    
Cr3   O15   S    
C103  C104  A    
C14   C15   A    
C64   O18   A    
C25   O26   A    
C113  H30   S    
C100  C112  A    
C89   C90   A    
C53   H56   S    
C78   H10   S    
Cr6   O3    S    
Cr1   O1    S    
C35   H11   S    
C15   C16   A    
Cr3   O16   S    
C26   O23   A    
C24   O24   A    
