data_mof_unit_63618.cif
_audit_creation_date              2012-10-26T17:39:49-0400
_audit_creation_method            fapswitch 2.2
_symmetry_space_group_name_H-M    P1
_symmetry_Int_Tables_number       1
_space_group_crystal_system       triclinic
_cell_length_a                    30.335955
_cell_length_b                    30.335957
_cell_length_c                    38.996562
_cell_angle_alpha                 90.000011
_cell_angle_beta                  90.000017
_cell_angle_gamma                 89.939543
_cell_volume                      35887.3549635

loop_
_atom_site_label
_atom_site_type_symbol
_atom_type_description
_atom_site_fract_x
_atom_site_fract_y
_atom_site_fract_z
_atom_type_partial_charge
C1    C     C_R   0.915098 0.500020 0.999999 0.541778
C2    C     C_R   0.503876 0.202312 0.031262 -0.105470
C3    C     C_R   0.499845 0.726168 0.000419 -0.004071
C4    C     C_R   0.226168 0.999846 0.499581 -0.004071
C5    C     C_R   0.999945 0.773925 0.499992 -0.003005
C6    C     C_R   0.773832 0.000154 0.499581 -0.004071
C7    C     C_R   0.000055 0.226075 0.499992 -0.003005
C8    C     C_R   1.000000 0.500000 0.933760 0.536922
C9    C     C_R   0.500000 0.000000 0.933760 0.538175
C10   C     C_R   0.000000 0.500000 0.066240 0.536878
C11   C     C_R   0.500000 1.000000 0.066238 0.537672
C12   C     C_R   0.500000 0.000000 0.433762 0.537672
C13   C     C_R   0.202386 0.501217 0.031039 -0.105855
C14   C     C_R   1.000000 0.500000 0.433760 0.536879
C15   C     C_R   0.500000 1.000000 0.566240 0.538175
C16   C     C_R   0.000000 0.500000 0.566239 0.536922
C17   C     C_R   0.499985 0.414923 0.000009 0.527738
C18   C     C_R   0.414958 0.499997 1.000000 0.528721
C19   C     C_R   0.500015 0.585077 0.000009 0.527738
C20   C     C_R   0.585042 0.500003 1.000000 0.528721
C21   C     C_R   0.999997 0.914958 0.500000 0.528721
C22   C     C_R   0.914923 0.999985 0.499991 0.527738
C23   C     C_R   0.000003 0.085042 0.500000 0.528721
C24   C     C_R   0.496124 0.797688 0.031262 -0.105469
C25   C     C_R   0.085077 0.000015 0.499991 0.527738
C26   C     C_R   0.961888 0.511826 0.622139 -0.114781
C27   C     C_R   0.511325 0.038238 0.622141 -0.116783
C28   C     C_R   0.038112 0.488173 0.622139 -0.114781
C29   C     C_R   0.488675 0.961762 0.622141 -0.116782
C30   C     C_R   0.961905 0.488199 0.377860 -0.114929
C31   C     C_R   0.487145 0.962244 0.377866 -0.114741
C32   C     C_R   0.038095 0.511801 0.377860 -0.114929
C33   C     C_R   0.512855 0.037755 0.377866 -0.114742
C34   C     C_R   0.537756 0.012852 0.122134 -0.114742
C35   C     C_R   0.797607 0.501361 0.968971 -0.105688
C36   C     C_R   0.011801 0.538095 0.122139 -0.114929
C37   C     C_R   0.462244 0.987148 0.122134 -0.114742
C38   C     C_R   0.988199 0.461905 0.122139 -0.114929
C39   C     C_R   0.461762 0.988675 0.877859 -0.116782
C40   C     C_R   0.011826 0.461888 0.877861 -0.114781
C41   C     C_R   0.538238 0.011325 0.877859 -0.116782
C42   C     C_R   0.988174 0.538112 0.877861 -0.114780
C43   C     C_R   0.961783 0.512316 0.657935 0.202376
C44   C     C_R   0.511852 0.038339 0.657933 0.201877
C45   C     C_R   0.038217 0.487683 0.657935 0.202376
C46   C     C_R   0.503817 0.797455 0.969443 -0.105859
C47   C     C_R   0.488148 0.961661 0.657933 0.201877
C48   C     C_R   0.961801 0.487710 0.342064 0.202242
C49   C     C_R   0.486799 0.962112 0.342059 0.202422
C50   C     C_R   0.038199 0.512290 0.342064 0.202242
C51   C     C_R   0.513201 0.037888 0.342059 0.202422
C52   C     C_R   0.537889 0.013198 0.157941 0.202421
C53   C     C_R   0.012290 0.538199 0.157936 0.202242
C54   C     C_R   0.462111 0.986802 0.157941 0.202421
C55   C     C_R   0.987710 0.461801 0.157936 0.202242
C56   C     C_R   0.461661 0.988148 0.842067 0.201877
C57   C     C_R   0.202393 0.498639 0.968971 -0.105688
C58   C     C_R   0.012316 0.461783 0.842065 0.202376
C59   C     C_R   0.538339 0.011852 0.842067 0.201877
C60   C     C_R   0.987683 0.538217 0.842065 0.202376
C61   C     C_R   1.000000 0.500000 0.676200 0.034429
C62   C     C_R   0.500000 0.000000 0.676200 0.033854
C63   C     C_R   1.000000 0.500000 0.323800 0.034309
C64   C     C_R   0.500000 1.000000 0.323802 0.030554
C65   C     C_R   0.500000 1.000000 0.176198 0.030556
C66   C     C_R   1.000000 0.500000 0.176200 0.034309
C67   C     C_R   0.500000 1.000000 0.823800 0.033854
C68   C     C_R   0.496183 0.202544 0.969443 -0.105859
C69   C     C_R   0.000000 0.500000 0.823800 0.034429
C70   C     C_R   0.000000 0.500000 0.603995 -0.075312
C71   C     C_R   0.500000 0.000000 0.603995 -0.077125
C72   C     C_R   1.000000 0.500000 0.396005 -0.075396
C73   C     C_R   0.500000 1.000000 0.396008 -0.082554
C74   C     C_R   0.500000 1.000000 0.103992 -0.082555
C75   C     C_R   0.000000 0.500000 0.103995 -0.075396
C76   C     C_R   0.500000 0.000000 0.896004 -0.077124
C77   C     C_R   1.000000 0.500000 0.896005 -0.075312
C78   C     C_R   0.028137 0.528359 0.732113 -0.039071
C79   C     C_R   0.297455 0.003817 0.530557 -0.105859
C80   C     C_R   0.528403 0.971848 0.732115 -0.039309
C81   C     C_R   0.971863 0.471641 0.732113 -0.039071
C82   C     C_R   0.471597 0.028152 0.732115 -0.039309
C83   C     C_R   0.028168 0.471612 0.267887 -0.039073
C84   C     C_R   0.471638 0.028197 0.267892 -0.038789
C85   C     C_R   0.971832 0.528388 0.267887 -0.039073
C86   C     C_R   0.528362 0.971803 0.267892 -0.038788
C87   C     C_R   0.471806 0.028364 0.232108 -0.038788
C88   C     C_R   0.028388 0.471832 0.232113 -0.039073
C89   C     C_R   0.528194 0.971635 0.232108 -0.038788
C90   C     C_R   0.998639 0.702393 0.531028 -0.105688
C91   C     C_R   0.971612 0.528168 0.232113 -0.039073
C92   C     C_R   0.528152 0.971597 0.767885 -0.039309
C93   C     C_R   0.028359 0.528137 0.767887 -0.039071
C94   C     C_R   0.471848 0.028403 0.767885 -0.039310
C95   C     C_R   0.971641 0.471863 0.767887 -0.039071
C96   C     C_R   0.000000 0.500000 0.785969 0.094148
C97   C     C_R   0.500000 0.000000 0.785969 0.093783
C98   C     C_R   1.000000 0.500000 0.214031 0.094339
C99   C     C_R   0.500000 1.000000 0.214029 0.095722
C100  C     C_R   0.500000 1.000000 0.285971 0.095720
C101  C     C_R   0.702545 0.996183 0.530557 -0.105858
C102  C     C_R   1.000000 0.500000 0.285969 0.094339
C103  C     C_R   0.500000 0.000000 0.714031 0.093783
C104  C     C_R   1.000000 0.500000 0.714030 0.094148
C105  C     C_3   0.867071 0.499058 0.065827 -0.283023
C106  C     C_3   0.876310 0.452070 0.077759 -0.417815
C107  C     C_3   0.509836 0.132577 0.065566 -0.281407
C108  C     C_3   0.465343 0.119023 0.080429 -0.421231
C109  C     C_3   0.132929 0.500942 0.065827 -0.283023
C110  C     C_3   0.123690 0.547930 0.077759 -0.417815
C111  C     C_3   0.490164 0.867423 0.065566 -0.281407
C112  C     C_R   0.499982 0.084912 0.000052 0.542119
C113  C     C_R   0.001361 0.297607 0.531028 -0.105688
C114  C     C_3   0.534657 0.880977 0.080429 -0.421232
C115  C     C_3   0.867060 0.501076 0.934177 -0.282722
C116  C     C_3   0.876299 0.548058 0.922277 -0.418468
C117  C     C_3   0.509309 0.866768 0.934748 -0.285569
C118  C     C_3   0.464403 0.878431 0.919649 -0.418952
C119  C     C_3   0.132940 0.498924 0.934177 -0.282722
C120  C     C_3   0.123701 0.451941 0.922277 -0.418469
C121  C     C_3   0.490690 0.133232 0.934748 -0.285569
C122  C     C_3   0.535597 0.121569 0.919649 -0.418953
C123  C     C_3   0.366768 0.009310 0.565252 -0.285569
C124  C     C_R   0.297688 0.996124 0.468738 -0.105470
C125  C     C_3   0.378431 0.964403 0.580351 -0.418953
C126  C     C_3   0.998924 0.632940 0.565823 -0.282722
C127  C     C_3   0.951942 0.623701 0.577723 -0.418469
C128  C     C_3   0.633232 0.990690 0.565252 -0.285569
C129  C     C_3   0.621569 0.035597 0.580351 -0.418952
C130  C     C_3   0.001076 0.367060 0.565823 -0.282722
C131  C     C_3   0.048058 0.376299 0.577722 -0.418469
C132  C     C_3   0.367423 0.990163 0.434434 -0.281407
C133  C     C_3   0.380977 0.034656 0.419571 -0.421231
C134  C     C_3   0.999058 0.367071 0.434173 -0.283023
C135  C     C_R   0.998783 0.297614 0.468961 -0.105856
C136  C     C_3   0.952070 0.376310 0.422240 -0.417815
C137  C     C_3   0.632577 0.009836 0.434434 -0.281407
C138  C     C_3   0.619023 0.965344 0.419571 -0.421231
C139  C     C_3   0.000942 0.632928 0.434173 -0.283023
C140  C     C_3   0.047930 0.623690 0.422240 -0.417815
C141  C     C_3   0.634202 0.570857 0.963357 -0.273523
C142  C     C_3   0.633774 0.563172 0.924694 -0.412285
C143  C     C_3   0.568929 0.365279 0.961245 -0.272821
C144  C     C_3   0.559104 0.365958 0.922876 -0.411841
C145  C     C_3   0.365797 0.429143 0.963357 -0.273523
C146  C     C_R   0.702311 0.003876 0.468738 -0.105470
C147  C     C_3   0.366226 0.436827 0.924694 -0.412284
C148  C     C_3   0.431070 0.634721 0.961245 -0.272821
C149  C     C_3   0.440896 0.634042 0.922876 -0.411841
C150  C     C_3   0.634392 0.429170 0.036626 -0.273436
C151  C     C_3   0.633909 0.436844 0.075290 -0.411863
C152  C     C_3   0.568967 0.634384 0.038915 -0.272650
C153  C     C_3   0.559305 0.633449 0.077307 -0.412061
C154  C     C_3   0.365607 0.570830 0.036626 -0.273436
C155  C     C_3   0.366091 0.563156 0.075290 -0.411863
C156  C     C_3   0.431033 0.365616 0.038915 -0.272650
C157  C     C_R   0.001217 0.702386 0.468961 -0.105856
C158  C     C_3   0.440695 0.366551 0.077307 -0.412061
C159  C     C_3   0.134384 0.068967 0.461085 -0.272650
C160  C     C_3   0.133449 0.059304 0.422693 -0.412061
C161  C     C_3   0.070830 0.865607 0.463374 -0.273436
C162  C     C_3   0.063156 0.866091 0.424709 -0.411863
C163  C     C_3   0.865616 0.931033 0.461085 -0.272650
C164  C     C_3   0.866551 0.940696 0.422693 -0.412061
C165  C     C_3   0.929170 0.134392 0.463374 -0.273436
C166  C     C_3   0.936844 0.133909 0.424709 -0.411863
C167  C     C_3   0.134721 0.931071 0.538754 -0.272822
C168  C     C_R   0.843740 0.499271 0.031477 -0.004967
C169  C     C_3   0.134042 0.940896 0.577124 -0.411842
C170  C     C_3   0.070857 0.134203 0.536643 -0.273523
C171  C     C_3   0.063173 0.133774 0.575306 -0.412284
C172  C     C_3   0.865279 0.068929 0.538754 -0.272822
C173  C     C_3   0.865958 0.059104 0.577124 -0.411842
C174  C     C_3   0.929143 0.865797 0.536643 -0.273523
C175  C     C_3   0.936827 0.866226 0.575306 -0.412285
C176  C     C_R   0.504377 0.156161 0.031558 -0.006117
C177  C     C_R   0.156260 0.500729 0.031477 -0.004967
C178  C     C_R   0.495623 0.843839 0.031558 -0.006117
C179  C     C_R   0.843734 0.500871 0.968529 -0.004923
C180  C     C_R   0.084902 0.499980 0.999999 0.541777
C181  C     C_R   0.504425 0.843572 0.968941 -0.005074
C182  C     C_R   0.156266 0.499129 0.968529 -0.004923
C183  C     C_R   0.495575 0.156428 0.968941 -0.005074
C184  C     C_R   0.343572 0.004426 0.531059 -0.005074
C185  C     C_R   0.999129 0.656266 0.531471 -0.004923
C186  C     C_R   0.656428 0.995574 0.531059 -0.005074
C187  C     C_R   0.000871 0.343734 0.531471 -0.004923
C188  C     C_R   0.343839 0.995623 0.468442 -0.006117
C189  C     C_R   0.999271 0.343740 0.468523 -0.004967
C190  C     C_R   0.656161 0.004377 0.468442 -0.006117
C191  C     C_R   0.500018 0.915088 0.000052 0.542120
C192  C     C_R   0.000729 0.656260 0.468523 -0.004967
C193  C     C_R   0.866960 0.500066 0.000002 0.053980
C194  C     C_R   0.499929 0.133067 0.000188 0.054533
C195  C     C_R   0.133040 0.499934 0.000002 0.053980
C196  C     C_R   0.500071 0.866933 0.000188 0.054533
C197  C     C_R   0.366933 0.000071 0.499812 0.054533
C198  C     C_R   0.999934 0.633040 0.499998 0.053980
C199  C     C_R   0.633067 0.999929 0.499812 0.054533
C200  C     C_R   0.000066 0.366960 0.499998 0.053980
C201  C     C_R   0.774533 0.500069 0.000006 -0.001485
C202  C     C_R   0.415088 0.000018 0.499948 0.542120
C203  C     C_R   0.500057 0.225446 0.000393 -0.002409
C204  C     C_R   0.225467 0.499931 0.000006 -0.001485
C205  C     C_R   0.499943 0.774554 0.000393 -0.002409
C206  C     C_R   0.274554 0.999943 0.499607 -0.002409
C207  C     C_R   0.999931 0.725467 0.499993 -0.001485
C208  C     C_R   0.725446 0.000057 0.499607 -0.002409
C209  C     C_R   0.000069 0.274533 0.499993 -0.001485
C210  C     C_R   0.702972 0.532277 0.981776 -0.107373
C211  C     C_R   0.531226 0.296751 0.980975 -0.107209
C212  C     C_R   0.297028 0.467723 0.981776 -0.107373
C213  C     C_R   0.999980 0.584902 0.500001 0.541777
C214  C     C_R   0.468774 0.703249 0.980975 -0.107209
C215  C     C_R   0.703059 0.467813 0.018234 -0.107162
C216  C     C_R   0.530987 0.703081 0.019707 -0.107415
C217  C     C_R   0.296941 0.532187 0.018234 -0.107162
C218  C     C_R   0.469013 0.296919 0.019707 -0.107415
C219  C     C_R   0.203081 0.030987 0.480293 -0.107416
C220  C     C_R   0.032187 0.796941 0.481766 -0.107162
C221  C     C_R   0.796919 0.969013 0.480293 -0.107416
C222  C     C_R   0.967813 0.203059 0.481766 -0.107162
C223  C     C_R   0.203249 0.968774 0.519025 -0.107208
C224  C     C_R   0.584912 0.999981 0.499948 0.542119
C225  C     C_R   0.032277 0.202972 0.518224 -0.107373
C226  C     C_R   0.796751 0.031226 0.519025 -0.107208
C227  C     C_R   0.967723 0.797028 0.518224 -0.107373
C228  C     C_R   0.656842 0.533132 0.981844 -0.005670
C229  C     C_R   0.532119 0.342882 0.980927 -0.006023
C230  C     C_R   0.343158 0.466868 0.981844 -0.005670
C231  C     C_R   0.467880 0.657118 0.980927 -0.006023
C232  C     C_R   0.656932 0.466921 0.018155 -0.005834
C233  C     C_R   0.532052 0.656949 0.019412 -0.005511
C234  C     C_R   0.343068 0.533079 0.018155 -0.005834
C235  C     C_R   0.000020 0.415098 0.500001 0.541778
C236  C     C_R   0.467948 0.343051 0.019412 -0.005511
C237  C     C_R   0.156949 0.032052 0.480587 -0.005511
C238  C     C_R   0.033079 0.843068 0.481845 -0.005834
C239  C     C_R   0.843051 0.967948 0.480587 -0.005511
C240  C     C_R   0.966921 0.156932 0.481845 -0.005834
C241  C     C_R   0.157118 0.967880 0.519073 -0.006023
C242  C     C_R   0.033132 0.156842 0.518155 -0.005670
C243  C     C_R   0.842882 0.032120 0.519073 -0.006023
C244  C     C_R   0.966868 0.843158 0.518155 -0.005670
C245  C     C_R   0.633426 0.500018 0.999999 0.035894
C246  C     C_R   0.797614 0.498783 0.031039 -0.105855
C247  C     C_R   0.499984 0.366478 0.000074 0.034474
C248  C     C_R   0.366573 0.499982 0.999999 0.035894
C249  C     C_R   0.500016 0.633521 0.000074 0.034474
C250  C     C_R   0.133521 0.000016 0.499926 0.034474
C251  C     C_R   0.999982 0.866574 0.500001 0.035894
C252  C     C_R   0.866478 0.999984 0.499926 0.034474
C253  C     C_R   0.000018 0.133426 0.500001 0.035894
C254  C     C_R   0.726075 0.500055 0.000008 -0.003005
C255  C     C_R   0.500154 0.273832 0.000419 -0.004071
C256  C     C_R   0.273925 0.499945 0.000008 -0.003005
Cl1   Cl    Cl    0.913553 0.530172 0.678969 -0.584856
Cl2   Cl    Cl    0.030108 0.586405 0.178971 -0.584187
Cl3   Cl    Cl    0.414288 0.968110 0.179037 -0.577870
Cl4   Cl    Cl    0.969892 0.413595 0.178971 -0.584187
Cl5   Cl    Cl    0.413273 0.970775 0.821056 -0.583964
Cl6   Cl    Cl    0.030171 0.413553 0.821031 -0.584856
Cl7   Cl    Cl    0.586726 0.029225 0.821056 -0.583964
Cl8   Cl    Cl    0.969828 0.586447 0.821031 -0.584856
Cl9   Cl    Cl    0.529225 0.086726 0.678943 -0.583964
Cl10  Cl    Cl    0.086447 0.469828 0.678969 -0.584856
Cl11  Cl    Cl    0.470775 0.913273 0.678943 -0.583964
Cl12  Cl    Cl    0.913595 0.469892 0.321029 -0.584187
Cl13  Cl    Cl    0.468103 0.914290 0.320963 -0.577870
Cl14  Cl    Cl    0.086405 0.530108 0.321029 -0.584187
Cl15  Cl    Cl    0.531897 0.085710 0.320963 -0.577870
Cl16  Cl    Cl    0.585712 0.031890 0.179037 -0.577870
Cu1   Cu    Cu3+1 1.000000 0.544030 0.000000 0.937309
Cu2   Cu    Cu3+1 0.500000 0.500000 0.034230 0.882771
Cu3   Cu    Cu3+1 0.000000 1.000000 0.465770 0.882771
Cu4   Cu    Cu3+1 1.000000 0.000000 0.534230 0.882876
Cu5   Cu    Cu3+1 0.544030 0.000000 0.000000 0.936424
Cu6   Cu    Cu3+1 1.000000 0.455970 0.000000 0.937309
Cu7   Cu    Cu3+1 0.455970 0.000000 0.000000 0.936425
Cu8   Cu    Cu3+1 0.500000 0.044030 0.500000 0.936424
Cu9   Cu    Cu3+1 0.044030 0.500000 0.500000 0.937309
Cu10  Cu    Cu3+1 0.500000 0.955970 0.500000 0.936424
Cu11  Cu    Cu3+1 0.955970 0.500000 0.500000 0.937309
Cu12  Cu    Cu3+1 0.500000 0.500000 0.965770 0.882876
H1    H     H_    0.932296 0.521491 0.608513 0.169766
H2    H     H_    0.021445 0.567673 0.108514 0.169825
H3    H     H_    0.555908 0.151761 0.916572 0.162218
H4    H     H_    0.553256 0.097902 0.936459 0.179426
H5    H     H_    0.531064 0.106197 0.894061 0.162620
H6    H     H_    0.470434 0.102948 0.937346 0.166942
H7    H     H_    0.472959 0.154817 0.916270 0.147057
H8    H     H_    0.348239 0.944092 0.583428 0.162219
H9    H     H_    0.402098 0.946744 0.563540 0.179426
H10   H     H_    0.393803 0.968936 0.605939 0.162620
H11   H     H_    0.397052 0.029566 0.562653 0.166942
H12   H     H_    0.345183 0.027042 0.583730 0.147057
H13   H     H_    0.432962 0.976664 0.108498 0.173674
H14   H     H_    0.932981 0.654953 0.579643 0.159137
H15   H     H_    0.935060 0.601171 0.559561 0.180469
H16   H     H_    0.952731 0.607897 0.603391 0.164903
H17   H     H_    0.017772 0.601578 0.564642 0.161953
H18   H     H_    0.015634 0.653638 0.585430 0.148375
H19   H     H_    0.651761 0.055907 0.583428 0.162219
H20   H     H_    0.597902 0.053256 0.563540 0.179426
H21   H     H_    0.606197 0.031064 0.605939 0.162620
H22   H     H_    0.602948 0.970434 0.562653 0.166942
H23   H     H_    0.654817 0.972958 0.583730 0.147057
H24   H     H_    0.978555 0.432326 0.108514 0.169825
H25   H     H_    0.067019 0.345047 0.579643 0.159137
H26   H     H_    0.064940 0.398829 0.559560 0.180469
H27   H     H_    0.047269 0.392102 0.603391 0.164903
H28   H     H_    0.982228 0.398422 0.564642 0.161953
H29   H     H_    0.984366 0.346362 0.585430 0.148375
H30   H     H_    0.351432 0.055634 0.415364 0.155572
H31   H     H_    0.404008 0.051952 0.437074 0.184314
H32   H     H_    0.397804 0.029547 0.394589 0.155169
H33   H     H_    0.396902 0.968747 0.437326 0.166032
H34   H     H_    0.345600 0.973375 0.415622 0.152565
H35   H     H_    0.432080 0.979344 0.891480 0.171626
H36   H     H_    0.933179 0.345057 0.420300 0.159752
H37   H     H_    0.935118 0.398833 0.440395 0.180605
H38   H     H_    0.952856 0.392122 0.396575 0.164987
H39   H     H_    0.017834 0.398435 0.435369 0.161770
H40   H     H_    0.015840 0.346376 0.414579 0.148022
H41   H     H_    0.648568 0.944366 0.415364 0.155572
H42   H     H_    0.595992 0.948048 0.437074 0.184315
H43   H     H_    0.602196 0.970453 0.394589 0.155169
H44   H     H_    0.603098 0.031253 0.437326 0.166032
H45   H     H_    0.654399 0.026625 0.415622 0.152565
H46   H     H_    0.021491 0.432296 0.891487 0.169766
H47   H     H_    0.066821 0.654942 0.420300 0.159752
H48   H     H_    0.064881 0.601167 0.440395 0.180605
H49   H     H_    0.047143 0.607878 0.396575 0.164987
H50   H     H_    0.982165 0.601564 0.435369 0.161770
H51   H     H_    0.984160 0.653624 0.414579 0.148022
H52   H     H_    0.667972 0.561236 0.914622 0.147095
H53   H     H_    0.616175 0.532084 0.918526 0.176249
H54   H     H_    0.616554 0.590938 0.911834 0.141684
H55   H     H_    0.599921 0.575926 0.972378 0.157626
H56   H     H_    0.651817 0.602168 0.968948 0.132385
H57   H     H_    0.567920 0.020656 0.891480 0.171626
H58   H     H_    0.556415 0.331821 0.912794 0.147186
H59   H     H_    0.527802 0.383812 0.917793 0.176165
H60   H     H_    0.586229 0.383021 0.909140 0.142196
H61   H     H_    0.574801 0.399436 0.970229 0.158799
H62   H     H_    0.600396 0.347341 0.965707 0.133024
H63   H     H_    0.332028 0.438764 0.914622 0.147095
H64   H     H_    0.383824 0.467916 0.918526 0.176249
H65   H     H_    0.383446 0.409062 0.911834 0.141685
H66   H     H_    0.400079 0.424074 0.972378 0.157626
H67   H     H_    0.348183 0.397832 0.968948 0.132386
H68   H     H_    0.978509 0.567704 0.891487 0.169766
H69   H     H_    0.443585 0.668179 0.912794 0.147185
H70   H     H_    0.472198 0.616188 0.917793 0.176165
H71   H     H_    0.413771 0.616979 0.909140 0.142196
H72   H     H_    0.425198 0.600564 0.970229 0.158799
H73   H     H_    0.399604 0.652659 0.965707 0.133024
H74   H     H_    0.668093 0.438809 0.085379 0.147532
H75   H     H_    0.616213 0.467916 0.081454 0.175920
H76   H     H_    0.616762 0.409060 0.088137 0.142908
H77   H     H_    0.600134 0.424071 0.027584 0.157643
H78   H     H_    0.652108 0.397877 0.031039 0.133457
H79   H     H_    0.049910 0.550561 0.718483 0.145840
H80   H     H_    0.556639 0.667516 0.087545 0.146121
H81   H     H_    0.528035 0.615606 0.082395 0.176752
H82   H     H_    0.586498 0.616247 0.090899 0.141086
H83   H     H_    0.574843 0.600281 0.029785 0.158782
H84   H     H_    0.600391 0.652326 0.034445 0.131724
H85   H     H_    0.331907 0.561191 0.085379 0.147532
H86   H     H_    0.383787 0.532084 0.081454 0.175920
H87   H     H_    0.383238 0.590940 0.088137 0.142908
H88   H     H_    0.399866 0.575929 0.027584 0.157643
H89   H     H_    0.347892 0.602123 0.031039 0.133457
H90   H     H_    0.550652 0.950072 0.718490 0.146106
H91   H     H_    0.443361 0.332484 0.087545 0.146121
H92   H     H_    0.471965 0.384393 0.082395 0.176752
H93   H     H_    0.413502 0.383753 0.090899 0.141086
H94   H     H_    0.425156 0.399719 0.029785 0.158782
H95   H     H_    0.399609 0.347674 0.034445 0.131724
H96   H     H_    0.167516 0.056639 0.412455 0.146121
H97   H     H_    0.115606 0.028035 0.417605 0.176752
H98   H     H_    0.116247 0.086498 0.409101 0.141086
H99   H     H_    0.100281 0.074843 0.470215 0.158782
H100  H     H_    0.152326 0.100391 0.465555 0.131725
H101  H     H_    0.950090 0.449439 0.718483 0.145840
H102  H     H_    0.061191 0.831907 0.414621 0.147532
H103  H     H_    0.032084 0.883787 0.418546 0.175920
H104  H     H_    0.090940 0.883238 0.411863 0.142909
H105  H     H_    0.075929 0.899866 0.472416 0.157643
H106  H     H_    0.102123 0.847892 0.468960 0.133457
H107  H     H_    0.832484 0.943361 0.412455 0.146121
H108  H     H_    0.884393 0.971965 0.417605 0.176752
H109  H     H_    0.883752 0.913502 0.409101 0.141086
H110  H     H_    0.899719 0.925156 0.470215 0.158782
H111  H     H_    0.847674 0.899609 0.465554 0.131725
H112  H     H_    0.520656 0.067920 0.608519 0.171626
H113  H     H_    0.449347 0.049928 0.718490 0.146105
H114  H     H_    0.938809 0.168093 0.414621 0.147532
H115  H     H_    0.967916 0.116213 0.418546 0.175920
H116  H     H_    0.909060 0.116762 0.411863 0.142908
H117  H     H_    0.924071 0.100134 0.472416 0.157643
H118  H     H_    0.897877 0.152108 0.468960 0.133457
H119  H     H_    0.168179 0.943585 0.587205 0.147186
H120  H     H_    0.116188 0.972198 0.582206 0.176165
H121  H     H_    0.116979 0.913771 0.590860 0.142197
H122  H     H_    0.100564 0.925198 0.529771 0.158799
H123  H     H_    0.152659 0.899604 0.534293 0.133024
H124  H     H_    0.049964 0.449387 0.281517 0.145396
H125  H     H_    0.061236 0.167972 0.585378 0.147095
H126  H     H_    0.032084 0.116176 0.581473 0.176249
H127  H     H_    0.090938 0.116554 0.588166 0.141684
H128  H     H_    0.075926 0.099921 0.527621 0.157626
H129  H     H_    0.102168 0.151817 0.531052 0.132385
H130  H     H_    0.831821 0.056414 0.587205 0.147186
H131  H     H_    0.883812 0.027802 0.582206 0.176165
H132  H     H_    0.883021 0.086229 0.590860 0.142197
H133  H     H_    0.899436 0.074802 0.529771 0.158799
H134  H     H_    0.847341 0.100396 0.534293 0.133024
H135  H     H_    0.449460 0.050030 0.281532 0.142546
H136  H     H_    0.938764 0.832028 0.585378 0.147095
H137  H     H_    0.967916 0.883824 0.581473 0.176249
H138  H     H_    0.909062 0.883446 0.588166 0.141685
H139  H     H_    0.924074 0.900079 0.527621 0.157626
H140  H     H_    0.897832 0.848183 0.531051 0.132385
H141  H     H_    0.950036 0.550612 0.281517 0.145396
H142  H     H_    0.550540 0.949970 0.281532 0.142546
H143  H     H_    0.449976 0.050545 0.218468 0.142545
H144  H     H_    0.050612 0.450036 0.218483 0.145396
H145  H     H_    0.550024 0.949454 0.218468 0.142545
H146  H     H_    0.949387 0.549964 0.218483 0.145396
H147  H     H_    0.549928 0.949348 0.781510 0.146106
H148  H     H_    0.067704 0.478509 0.608513 0.169766
H149  H     H_    0.050561 0.549910 0.781517 0.145840
H150  H     H_    0.450072 0.050652 0.781510 0.146106
H151  H     H_    0.949439 0.450090 0.781517 0.145840
H152  H     H_    0.779542 0.498021 0.055018 0.114573
H153  H     H_    0.506994 0.220392 0.055119 0.115634
H154  H     H_    0.220458 0.501979 0.055018 0.114573
H155  H     H_    0.493006 0.779608 0.055119 0.115634
H156  H     H_    0.779529 0.502121 0.944994 0.114688
H157  H     H_    0.506798 0.779209 0.945646 0.115222
H158  H     H_    0.220471 0.497879 0.944994 0.114688
H159  H     H_    0.479344 0.932080 0.608519 0.171626
H160  H     H_    0.493202 0.220790 0.945646 0.115221
H161  H     H_    0.279210 0.006798 0.554354 0.115222
H162  H     H_    0.997879 0.720471 0.555006 0.114688
H163  H     H_    0.720790 0.993202 0.554354 0.115221
H164  H     H_    0.002121 0.279529 0.555006 0.114688
H165  H     H_    0.279608 0.993005 0.444881 0.115635
H166  H     H_    0.998021 0.279542 0.444982 0.114573
H167  H     H_    0.720392 0.006995 0.444881 0.115635
H168  H     H_    0.001979 0.720457 0.444982 0.114573
H169  H     H_    0.721049 0.557575 0.968079 0.115753
H170  H     H_    0.932326 0.478555 0.391486 0.169825
H171  H     H_    0.555616 0.278504 0.966399 0.117763
H172  H     H_    0.278951 0.442425 0.968079 0.115753
H173  H     H_    0.444384 0.721496 0.966399 0.117763
H174  H     H_    0.721205 0.442526 0.031932 0.116349
H175  H     H_    0.555361 0.721197 0.034359 0.116455
H176  H     H_    0.278795 0.557473 0.031932 0.116349
H177  H     H_    0.444639 0.278803 0.034359 0.116455
H178  H     H_    0.221197 0.055361 0.465641 0.116455
H179  H     H_    0.057473 0.778795 0.468068 0.116349
H180  H     H_    0.778803 0.944639 0.465641 0.116455
H181  H     H_    0.476658 0.932963 0.391502 0.173672
H182  H     H_    0.942526 0.221205 0.468068 0.116350
H183  H     H_    0.221496 0.944384 0.533601 0.117763
H184  H     H_    0.057575 0.221049 0.531921 0.115753
H185  H     H_    0.778504 0.055616 0.533601 0.117762
H186  H     H_    0.942425 0.778951 0.531921 0.115753
H187  H     H_    0.845057 0.433179 0.079700 0.159752
H188  H     H_    0.898833 0.435118 0.059604 0.180604
H189  H     H_    0.892121 0.452856 0.103425 0.164987
H190  H     H_    0.898435 0.517834 0.064631 0.161770
H191  H     H_    0.846376 0.515840 0.085421 0.148022
H192  H     H_    0.067673 0.521445 0.391486 0.169825
H193  H     H_    0.444366 0.148568 0.084636 0.155572
H194  H     H_    0.448048 0.095992 0.062926 0.184315
H195  H     H_    0.470452 0.102196 0.105411 0.155168
H196  H     H_    0.531253 0.103098 0.062674 0.166032
H197  H     H_    0.526625 0.154399 0.084378 0.152563
H198  H     H_    0.154943 0.566821 0.079700 0.159752
H199  H     H_    0.101167 0.564882 0.059604 0.180605
H200  H     H_    0.107878 0.547144 0.103425 0.164987
H201  H     H_    0.101565 0.482166 0.064631 0.161770
H202  H     H_    0.153624 0.484160 0.085421 0.148022
H203  H     H_    0.523342 0.067036 0.391502 0.173672
H204  H     H_    0.555634 0.851432 0.084636 0.155572
H205  H     H_    0.551952 0.904008 0.062926 0.184315
H206  H     H_    0.529548 0.897804 0.105411 0.155168
H207  H     H_    0.468747 0.896902 0.062674 0.166033
H208  H     H_    0.473375 0.845600 0.084378 0.152564
H209  H     H_    0.845047 0.567019 0.920357 0.159137
H210  H     H_    0.898829 0.564940 0.940439 0.180469
H211  H     H_    0.892102 0.547269 0.896609 0.164903
H212  H     H_    0.898422 0.482228 0.935358 0.161953
H213  H     H_    0.846362 0.484366 0.914569 0.148375
H214  H     H_    0.567038 0.023336 0.108498 0.173673
H215  H     H_    0.444092 0.848239 0.916572 0.162219
H216  H     H_    0.446744 0.902098 0.936459 0.179426
H217  H     H_    0.468936 0.893803 0.894061 0.162620
H218  H     H_    0.529565 0.897052 0.937346 0.166942
H219  H     H_    0.527041 0.845183 0.916270 0.147057
H220  H     H_    0.154953 0.432981 0.920357 0.159137
H221  H     H_    0.101171 0.435059 0.940439 0.180469
H222  H     H_    0.107898 0.452731 0.896609 0.164903
H223  H     H_    0.101578 0.517772 0.935358 0.161953
H224  H     H_    0.153638 0.515634 0.914569 0.148375
O1    O     O_R   0.935720 0.537180 0.999970 -0.510685
O2    O     O_R   0.037180 0.564280 0.499970 -0.510367
O3    O     O_R   0.564280 0.962820 0.499970 -0.511662
O4    O     O_R   0.962820 0.435720 0.499970 -0.510367
O5    O     O_R   0.435720 0.962820 0.500030 -0.511323
O6    O     O_R   0.037180 0.435720 0.500030 -0.510685
O7    O     O_R   0.564280 0.037180 0.500030 -0.511323
O8    O     O_R   0.962820 0.564280 0.500030 -0.510685
O9    O     O_R   0.500090 0.435730 0.971090 -0.512148
O10   O     O_R   0.435730 0.499910 0.971090 -0.511785
O11   O     O_R   0.499910 0.564270 0.971090 -0.512148
O12   O     O_R   0.537180 0.064280 0.999970 -0.511323
O13   O     O_R   0.564270 0.500090 0.971090 -0.511785
O14   O     O_R   0.500090 0.564270 0.028910 -0.511973
O15   O     O_R   0.435730 0.500090 0.028910 -0.511932
O16   O     O_R   0.499910 0.435730 0.028910 -0.511973
O17   O     O_R   0.564270 0.499910 0.028910 -0.511932
O18   O     O_R   0.000090 0.935730 0.471090 -0.511932
O19   O     O_R   0.935730 0.999910 0.471090 -0.511972
O20   O     O_R   0.999910 0.064270 0.471090 -0.511932
O21   O     O_R   0.064270 0.000090 0.471090 -0.511973
O22   O     O_R   0.000090 0.064270 0.528910 -0.511785
O23   O     O_R   0.064280 0.462820 0.999970 -0.510685
O24   O     O_R   0.935730 0.000090 0.528910 -0.512149
O25   O     O_R   0.999910 0.935730 0.528910 -0.511785
O26   O     O_R   0.064270 0.999910 0.528910 -0.512149
O27   O     O_R   0.000010 0.537180 0.950070 -0.509607
O28   O     O_R   0.537180 0.999990 0.950070 -0.510265
O29   O     O_R   0.999990 0.462820 0.950070 -0.509607
O30   O     O_R   0.462820 0.000010 0.950070 -0.510264
O31   O     O_R   0.000010 0.462820 0.049930 -0.509648
O32   O     O_R   0.537180 0.000010 0.049930 -0.510809
O33   O     O_R   0.999990 0.537180 0.049930 -0.509648
O34   O     O_R   0.462820 0.935720 0.999970 -0.511323
O35   O     O_R   0.462820 0.999990 0.049930 -0.510809
O36   O     O_R   0.500010 0.037180 0.450070 -0.510808
O37   O     O_R   0.037180 0.499990 0.450070 -0.509648
O38   O     O_R   0.499990 0.962820 0.450070 -0.510808
O39   O     O_R   0.962820 0.500010 0.450070 -0.509648
O40   O     O_R   0.500010 0.962820 0.549930 -0.510265
O41   O     O_R   0.037180 0.500010 0.549930 -0.509607
O42   O     O_R   0.499990 0.037180 0.549930 -0.510265
O43   O     O_R   0.962820 0.499990 0.549930 -0.509607
O44   O     O_R   0.935720 0.462820 0.000030 -0.510367
O45   O     O_R   0.537180 0.935720 0.000030 -0.511662
O46   O     O_R   0.064280 0.537180 0.000030 -0.510367
O47   O     O_R   0.462820 0.064280 0.000030 -0.511662
O48   O     O_R   0.435720 0.037180 0.499970 -0.511662

loop_
_geom_bond_atom_site_label_1
_geom_bond_atom_site_label_2
_ccdc_geom_bond_type
C46   C205  A    
C145  C230  S    
C126  C127  S    
C82   C94   A    
C83   C102  A    
C36   H2    S    
C23   C253  S    
C132  C188  S    
C27   C71   A    
C54   C65   A    
C143  H62   S    
C166  H114  S    
C32   H192  S    
C172  H134  S    
C89   C99   A    
C19   O14   A    
C171  H127  S    
C164  H108  S    
C46   C181  A    
C30   H170  S    
C81   C95   A    
C154  H88   S    
C175  H136  S    
Cu12  O9    S    
C138  H41   S    
C24   C205  A    
C150  C232  S    
C79   C184  A    
C55   Cl4   S    
C90   H162  S    
C140  H47   S    
C113  H164  S    
C60   Cl8   S    
C191  C196  S    
C145  H66   S    
C1    O44   A    
C127  H16   S    
C129  H21   S    
C38   C55   A    
C50   Cl14  S    
C172  C243  S    
C155  H87   S    
C162  H103  S    
C148  H73   S    
C192  C198  A    
C154  H89   S    
C83   C88   A    
C130  H29   S    
C12   C73   S    
C135  H166  S    
C216  C233  A    
C141  H56   S    
C220  C238  A    
C133  H30   S    
C235  O6    A    
C170  C242  S    
C214  C231  A    
C107  H197  S    
C190  C199  A    
C125  H10   S    
C203  C255  S    
C37   H13   S    
C149  H71   S    
C156  H94   S    
C40   C58   A    
C145  C147  S    
C80   C103  A    
C121  H7    S    
C61   C104  S    
C65   C99   S    
C139  C192  S    
C35   C201  A    
C48   C63   A    
C147  H64   S    
C94   C97   A    
C225  C242  A    
C131  H27   S    
C215  C254  A    
C151  H75   S    
Cu12  O13   S    
C224  O3    A    
Cu9   O37   S    
C119  C182  S    
C80   C92   A    
C1    C193  S    
Cu4   O24   S    
C15   O42   A    
C22   C252  S    
C34   H214  S    
C157  H168  S    
Cu5   O12   S    
C39   C56   A    
C89   H145  S    
C4    C219  A    
C154  C234  S    
C118  H217  S    
C9    O28   A    
C148  C231  S    
Cu4   O25   S    
C116  H211  S    
C68   H160  S    
C154  C155  S    
C169  H120  S    
C158  H92   S    
Cu9   O6    S    
C33   C73   A    
C139  H50   S    
C110  H199  S    
C216  H175  S    
C24   C178  A    
C186  C199  A    
Cu7   O47   S    
Cu6   O23   S    
C43   C61   A    
Cu2   O14   S    
C179  C193  A    
C47   Cl11  S    
C53   Cl2   S    
C177  C195  A    
C165  H117  S    
C171  H125  S    
C210  C228  A    
C126  C185  S    
C51   C64   A    
C163  C239  S    
C11   C74   S    
Cu3   O19   S    
C139  C140  S    
C44   Cl9   S    
C225  H184  S    
Cu12  O11   S    
Cu1   Cu6   S    
C187  C200  A    
C140  H49   S    
C219  C237  A    
C181  C196  A    
C156  C158  S    
C130  C131  S    
C161  C162  S    
C212  H172  S    
C127  H14   S    
Cu2   O16   S    
C52   Cl16  S    
C126  H17   S    
C223  C241  A    
C155  H85   S    
C57   C204  A    
C22   O24   A    
C21   O18   A    
C56   Cl5   S    
C114  H205  S    
C117  H219  S    
C91   C98   A    
C80   H90   S    
C23   O20   A    
C112  O47   A    
C108  H195  S    
C40   C77   A    
C199  C224  S    
C133  H32   S    
Cu2   O17   S    
C52   C65   A    
C29   H159  S    
C91   H146  S    
C29   C71   A    
Cu7   O35   S    
Cu8   O36   S    
C129  H20   S    
C21   O25   A    
C157  C207  A    
C123  H11   S    
C128  C129  S    
C47   C62   A    
C162  H104  S    
C167  C169  S    
C130  H28   S    
C41   H57   S    
C131  H25   S    
Cu1   O1    S    
C57   H158  S    
C221  C239  A    
C29   C47   A    
C95   H151  S    
C36   C75   A    
Cu5   O32   S    
Cu4   O26   S    
C107  H196  S    
C204  C256  S    
C174  H139  S    
C201  C254  S    
C183  C194  A    
C118  H215  S    
C210  H169  S    
C222  C240  A    
C175  H138  S    
C174  C175  S    
C142  H53   S    
C59   C67   A    
C27   C44   A    
C118  H216  S    
C107  C108  S    
C36   C53   A    
C6    C208  S    
C27   H112  S    
C152  H84   S    
C137  H44   S    
C159  H99   S    
C16   O41   A    
C163  H110  S    
C49   C64   A    
C119  H224  S    
C50   C63   A    
C63   C102  S    
C57   C182  A    
C226  H185  S    
C92   C97   A    
C46   H157  S    
C35   C179  A    
C78   C104  A    
C215  C232  A    
C3    C205  S    
C132  H34   S    
C136  H37   S    
C16   C70   S    
C26   H1    S    
C105  H190  S    
Cu5   O28   S    
C160  H98   S    
C227  C244  A    
C124  C188  A    
C142  H54   S    
C130  C187  S    
C7    C225  A    
C101  H163  S    
C178  C196  A    
C173  H130  S    
C5    C227  A    
C217  C256  A    
C144  H59   S    
C122  H3    S    
C88   H144  S    
C227  H186  S    
C18   C248  S    
C10   C75   S    
C147  H65   S    
C153  H81   S    
C197  C202  S    
C106  H187  S    
C112  C194  S    
Cu1   O27   S    
C20   C245  S    
C78   H79   S    
C120  H222  S    
C18   O10   A    
C180  O23   A    
C168  C193  A    
C114  H204  S    
C115  H212  S    
C237  C250  A    
C38   H24   S    
C12   O38   A    
C231  C249  A    
C161  H105  S    
C86   C100  A    
C162  H102  S    
C94   H150  S    
C165  C240  S    
Cu9   O41   S    
C239  C252  A    
C14   C72   S    
C28   C70   A    
C2    C203  A    
Cu11  O43   S    
C124  H165  S    
C30   C72   A    
Cu9   O2    S    
Cu3   O20   S    
Cu9   Cu11  S    
C4    C223  A    
C166  H115  S    
C148  H72   S    
C105  C168  S    
C176  C194  A    
C66   C98   S    
C113  C209  A    
C117  C118  S    
C8    C77   S    
C11   O32   A    
C136  H36   S    
Cu12  O10   S    
C138  H42   S    
C134  H39   S    
C140  H48   S    
C92   H147  S    
C16   O43   A    
C127  H15   S    
C137  C190  S    
C229  C247  A    
C152  C153  S    
C42   C77   A    
C202  O5    A    
C242  C253  A    
C150  C151  S    
C182  C195  A    
C163  H111  S    
C85   H141  S    
C85   C102  A    
C10   O31   A    
C37   C74   A    
C108  H193  S    
C244  C251  A    
C116  H210  S    
C150  H77   S    
C108  H194  S    
C109  H202  S    
C141  H55   S    
C215  H174  S    
Cu3   Cu4   S    
C214  H173  S    
C200  C235  S    
Cu6   O44   S    
C111  H208  S    
C233  C249  A    
C32   C72   A    
C149  H70   S    
Cu8   O7    S    
C173  H132  S    
C128  C186  S    
C121  H6    S    
C134  C189  S    
C51   Cl15  S    
C165  H118  S    
C123  C125  S    
C147  H63   S    
C17   C247  S    
C113  C187  A    
C234  C248  A    
C170  C171  S    
C95   C96   A    
C167  C241  S    
C20   O13   A    
C170  H128  S    
C9    C76   S    
C39   H35   S    
C169  H119  S    
C141  C228  S    
C11   O35   A    
C110  H200  S    
C58   Cl6   S    
C54   Cl3   S    
C31   C49   A    
C7    C209  S    
C40   H46   S    
Cu3   O18   S    
C17   O9    A    
C170  H129  S    
C158  H91   S    
C19   O11   A    
C164  H107  S    
C128  H22   S    
C146  C208  A    
C13   H154  S    
C172  H133  S    
C180  O46   A    
C14   O39   A    
C19   C249  S    
C152  C233  S    
C3    C216  A    
C211  H171  S    
C84   C100  A    
C123  C184  S    
C145  H67   S    
C101  C208  A    
Cu1   O33   S    
C25   C250  S    
C125  H9    S    
C159  C160  S    
C126  H18   S    
C114  H206  S    
C117  H218  S    
C143  C229  S    
C144  H58   S    
C121  C122  S    
C180  C195  S    
C34   C74   A    
C60   C69   A    
C45   Cl10  S    
C135  C209  A    
C112  O12   A    
C235  O4    A    
C106  H189  S    
C26   C70   A    
C191  O45   A    
C143  H61   S    
C133  H31   S    
C56   C67   A    
C15   O40   A    
C217  H176  S    
Cu7   O30   S    
C59   Cl7   S    
Cu1   O46   S    
C129  H19   S    
C201  C246  A    
C211  C229  A    
C115  H213  S    
C241  C250  A    
C211  C255  A    
C86   C89   A    
C246  H152  S    
C217  C234  A    
C119  C120  S    
C158  H93   S    
C58   C69   A    
C161  C238  S    
C90   C185  A    
C33   C51   A    
C15   C71   S    
C105  C106  S    
C34   C52   A    
C151  H76   S    
C13   C204  A    
Cu10  O3    S    
C143  C144  S    
C146  H167  S    
C157  C192  A    
C218  C236  A    
C109  C110  S    
C167  H122  S    
C226  C243  A    
Cu3   O21   S    
C174  H140  S    
C188  C197  A    
C82   H113  S    
C13   C177  A    
C6    C226  A    
C45   C61   A    
C41   C76   A    
C111  C114  S    
C117  C181  S    
C175  H137  S    
C169  H121  S    
C67   C97   S    
C109  C177  S    
C64   C100  S    
C184  C197  A    
C110  H198  S    
C93   H149  S    
Cu11  O39   S    
C198  C213  S    
C115  C116  S    
C2    H153  S    
C168  C246  A    
C68   C183  A    
C165  C166  S    
C119  H223  S    
C238  C251  A    
C171  H126  S    
C164  H109  S    
C81   H101  S    
C163  C164  S    
C31   H181  S    
C84   C87   A    
C69   C96   S    
C87   H143  S    
C8    O27   A    
C14   O37   A    
C85   C91   A    
C3    C214  A    
Cu11  O8    S    
C240  C253  A    
C84   H135  S    
C224  O7    A    
Cu5   O45   S    
C12   O36   A    
Cu10  O40   S    
Cu8   Cu10  S    
C83   H124  S    
Cu6   O31   S    
C213  O8    A    
Cu2   O15   S    
Cu8   O48   S    
C17   O16   A    
C31   C73   A    
C5    C220  A    
C5    C207  S    
C48   Cl12  S    
C78   C93   A    
C155  H86   S    
C232  C245  A    
C144  H60   S    
C122  H4    S    
C135  C189  A    
C2    C176  A    
C86   H142  S    
C210  C254  A    
C153  H80   S    
C25   O26   A    
C30   C48   A    
C111  C178  S    
C218  C255  A    
C136  H38   S    
C185  C198  A    
C218  H177  S    
C106  H188  S    
Cu11  O4    S    
C160  H96   S    
C202  O48   A    
C156  C236  S    
C6    C221  A    
C156  H95   S    
C128  H23   S    
C68   C203  A    
C8    O29   A    
C236  C247  A    
C122  H5    S    
C123  H12   S    
C9    O30   A    
C222  H182  S    
C87   C99   A    
C38   C75   A    
C131  H26   S    
C28   C45   A    
C151  H74   S    
C219  H178  S    
Cu2   Cu12  S    
C148  C149  S    
C41   C59   A    
C79   H161  S    
C42   C60   A    
C7    C222  A    
Cu4   O22   S    
C132  C133  S    
C134  C136  S    
C228  C245  A    
C120  H220  S    
C191  O34   A    
C44   C62   A    
C33   H203  S    
C166  H116  S    
C20   O17   A    
C107  C176  S    
C22   O19   A    
C212  C256  A    
C142  H52   S    
C212  C230  A    
C82   C103  A    
C223  H183  S    
C138  H43   S    
C134  H40   S    
C159  C237  S    
C220  H179  S    
C39   C76   A    
C53   C66   A    
C32   C50   A    
C152  H83   S    
C137  H45   S    
C159  H100  S    
C42   H68   S    
C37   C54   A    
C189  C200  A    
C26   C43   A    
C93   C96   A    
Cu5   Cu7   S    
C18   O15   A    
C23   O22   A    
C101  C186  A    
C43   Cl1   S    
C230  C248  A    
C172  C173  S    
C62   C103  S    
C25   O21   A    
C243  C252  A    
C124  C206  A    
C150  H78   S    
C221  H180  S    
C109  H201  S    
C132  H33   S    
Cu10  O38   S    
C146  C190  A    
C105  H191  S    
Cu6   O29   S    
C160  H97   S    
C21   C251  S    
Cu8   O42   S    
C4    C206  S    
C174  C244  S    
C79   C206  A    
C149  H69   S    
C137  C138  S    
C173  H131  S    
C121  C183  S    
C141  C142  S    
C24   H155  S    
C10   O33   A    
C213  O2    A    
Cu10  O5    S    
C139  H51   S    
C153  H82   S    
C161  H106  S    
C1    O1    A    
C88   C98   A    
C125  H8    S    
C90   C207  A    
Cu7   O34   S    
C167  H123  S    
C120  H221  S    
C28   H148  S    
C35   H156  S    
C116  H209  S    
C115  C179  S    
C111  H207  S    
C55   C66   A    
C81   C104  A    
C49   Cl13  S    
