data_mof_unit_16694.cif
_audit_creation_date              2012-12-10T18:13:54-0500
_audit_creation_method            fapswitch 2.2
_symmetry_space_group_name_H-M    P1
_symmetry_Int_Tables_number       1
_space_group_crystal_system       triclinic
_cell_length_a                    10.731686
_cell_length_b                    9.457723
_cell_length_c                    23.463733
_cell_angle_alpha                 90.264635
_cell_angle_beta                  88.791207
_cell_angle_gamma                 90.003579
_cell_volume                      2380.95048079

loop_
_atom_site_label
_atom_site_type_symbol
_atom_type_description
_atom_site_fract_x
_atom_site_fract_y
_atom_site_fract_z
_atom_type_partial_charge
C1    C     C_R   0.260195 0.500196 0.503522 0.772060
C2    C     C_R   0.351000 0.272885 0.970508 -0.066176
C3    C     C_R   0.348069 0.272903 0.030936 -0.080556
C4    C     C_R   0.401938 0.387053 0.061663 -0.070445
C5    C     C_R   0.455318 0.501821 0.031071 -0.011437
C6    C     C_R   0.507663 0.616490 0.060939 -0.049439
C7    C     C_R   0.558751 0.731150 0.031189 -0.079648
C8    C     C_R   0.562190 0.734155 0.971705 -0.039252
C9    C     C_R   0.409696 0.389130 0.122162 0.526550
C10   C     C_R   0.506991 0.615624 0.120544 0.556759
C11   C     C_R   0.582779 0.470480 0.234756 -0.038974
C12   C     C_R   0.498762 0.499834 0.391337 0.776349
C13   C     C_R   0.596484 0.470329 0.293997 -0.071320
C14   C     C_R   0.491587 0.499883 0.329248 -0.162002
C15   C     C_R   0.376679 0.531751 0.305182 -0.182287
C16   C     C_R   0.363381 0.533312 0.245872 0.022393
C17   C     C_R   0.467763 0.501461 0.210628 0.220715
C18   C     C_R   0.526158 0.391012 0.762155 -0.050026
C19   C     C_R   0.535418 0.388928 0.702891 -0.188049
C20   C     C_R   0.488983 0.501934 0.671419 -0.069088
C21   C     C_R   0.430431 0.615593 0.699769 -0.189930
C22   C     C_R   0.417207 0.617063 0.759406 0.010403
C23   C     C_R   0.739780 0.500040 0.502365 0.777404
C24   C     C_R   0.467902 0.504320 0.790850 0.258393
C25   C     C_3   0.068960 0.646427 0.529160 -0.156141
C26   C     C_3   0.068778 0.374244 0.542630 -0.145146
C27   C     C_3   0.925411 0.638117 0.533459 -0.352394
C28   C     C_3   0.924511 0.373727 0.540744 -0.425057
C29   C     C_3   0.076220 0.482123 0.444727 -0.390871
C30   C     C_3   0.122075 0.501160 0.506602 -0.025119
C31   C     C_3   0.877809 0.500071 0.504922 0.075058
C32   C     C_3   0.932988 0.487436 0.443671 -0.345714
C33   C     C_3   0.584381 0.083811 0.544913 -0.166692
C34   C     C_3   0.585087 0.917068 0.544612 -0.161477
C35   C     C_3   0.374578 0.083748 0.515095 -0.214058
C36   C     C_3   0.374730 0.916502 0.515415 -0.228141
C37   C     C_3   0.537573 0.083327 0.444103 -0.029927
C38   C     C_3   0.537004 0.915520 0.443990 -0.025359
C39   C     C_R   0.497879 0.500383 0.608967 0.805307
C40   C     C_R   0.529028 0.604396 0.881062 0.501771
C41   C     C_R   0.395999 0.403040 0.880183 0.568593
C42   C     C_R   0.401949 0.390358 0.940222 -0.050553
C43   C     C_R   0.457599 0.502596 0.970734 -0.010926
C44   C     C_R   0.516196 0.616052 0.940825 -0.089436
Cu1   Cu    Cu3+1 0.499860 0.642410 0.500030 0.917864
Cu2   Cu    Cu3+1 0.499860 0.357590 0.500030 0.937795
H1    H     H_    0.580653 0.300174 0.681700 0.150133
H2    H     H_    0.115252 0.566536 0.416631 0.179927
H3    H     H_    0.109273 0.379221 0.426759 0.186730
H4    H     H_    0.464722 0.115231 0.413508 0.073878
H5    H     H_    0.463316 0.883903 0.413647 0.074248
H6    H     H_    0.297440 0.555509 0.333037 0.169351
N1    N     N_R   0.463379 0.504601 0.852208 -0.472443
N2    N     N_R   0.459580 0.502884 0.149624 -0.474943
N3    N     N_3   0.500250 0.143650 0.501250 -0.156989
N4    N     N_3   0.500250 0.856350 0.501250 -0.155509
O1    O     O_R   0.317570 0.620260 0.500030 -0.609220
O2    O     O_R   0.317570 0.379740 0.500030 -0.575884
O3    O     O_R   0.499840 0.620290 0.417900 -0.598874
O4    O     O_R   0.499840 0.379710 0.417900 -0.601443
O5    O     O_R   0.682190 0.620260 0.500010 -0.572513
O6    O     O_R   0.682190 0.379740 0.500010 -0.570922
O7    O     O_R   0.499920 0.620230 0.582140 -0.603207
O8    O     O_R   0.499920 0.379770 0.582140 -0.572435
O9    O     O_2   0.608143 0.689119 0.851687 -0.544685
O10   O     O_2   0.321688 0.317675 0.849700 -0.486500
O11   O     O_2   0.370719 0.278283 0.153726 -0.527555
O12   O     O_2   0.554403 0.726271 0.149496 -0.509104
C45   C     C_2   0.303793 0.145747 0.940261 0.551573
H7    H     H_    0.212246 0.103699 0.951040 0.065439
O13   O     O_2   0.369683 0.082976 0.905453 -0.514522
H8    H     H_    0.392095 0.701309 0.675137 0.184294
C46   C     C_2   0.347893 0.733909 0.788264 0.451528
H9    H     H_    0.327265 0.729964 0.833668 0.075671
O14   O     O_2   0.312013 0.836125 0.761562 -0.494408
H10   H     H_    0.093167 0.728569 0.496847 0.167426
H11   H     H_    0.101920 0.273976 0.522216 0.182540
C47   C     C_2   0.123787 0.698837 0.584344 0.334246
H12   H     H_    0.200203 0.643507 0.603934 0.067461
O15   O     O_2   0.086289 0.808689 0.606205 -0.507858
C48   C     C_2   0.111896 0.373057 0.603535 0.343532
H13   H     H_    0.073125 0.447146 0.634553 0.092892
O16   O     O_2   0.188435 0.286574 0.618895 -0.522289
H14   H     H_    0.891819 0.640994 0.578707 0.173940
H15   H     H_    0.881264 0.378843 0.584294 0.146580
H16   H     H_    0.887048 0.733161 0.512582 0.228791
H17   H     H_    0.893753 0.272095 0.521598 0.225850
H18   H     H_    0.902949 0.579197 0.417780 0.193225
H19   H     H_    0.898354 0.389457 0.422953 0.205390
H20   H     H_    0.554046 0.120706 0.588078 0.144744
H21   H     H_    0.556390 0.879655 0.587786 0.146849
C49   C     C_2   0.286611 0.153036 0.061243 0.432993
H22   H     H_    0.211574 0.173387 0.091911 0.118625
O17   O     O_2   0.320649 0.031398 0.052666 -0.525104
H23   H     H_    0.680592 0.124266 0.539381 0.195108
H24   H     H_    0.681532 0.877864 0.538184 0.197467
H25   H     H_    0.341219 0.123757 0.557327 0.218378
H26   H     H_    0.342228 0.878104 0.557931 0.182419
C50   C     C_2   0.656189 0.147425 0.418735 0.465936
H27   H     H_    0.654175 0.192191 0.376313 0.042044
O18   O     O_2   0.755520 0.142604 0.442964 -0.545945
C51   C     C_2   0.654791 0.849971 0.417986 0.456705
H28   H     H_    0.651083 0.799881 0.376327 0.054938
O19   O     O_2   0.755289 0.858094 0.441025 -0.548908
H29   H     H_    0.305862 0.120426 0.483573 0.153339
H30   H     H_    0.305515 0.878399 0.484272 0.157659
H31   H     H_    0.594078 0.821287 0.054545 0.229208
C52   C     C_2   0.603908 0.867720 0.944023 0.507350
H32   H     H_    0.567598 0.899262 0.903285 0.149324
O20   O     O_2   0.677072 0.946816 0.967413 -0.521711
H33   H     H_    0.661857 0.447978 0.206699 0.187618
C53   C     C_2   0.720537 0.443469 0.318442 0.377877
H34   H     H_    0.732538 0.448866 0.364057 0.032791
O21   O     O_2   0.810891 0.415387 0.287962 -0.499764
C54   C     C_2   0.241612 0.569835 0.221010 0.445687
H35   H     H_    0.231876 0.576035 0.175176 0.077503
O22   O     O_2   0.150279 0.593812 0.251458 -0.514196
H36   H     H_    0.564933 0.304424 0.786070 0.165952

loop_
_geom_bond_atom_site_label_1
_geom_bond_atom_site_label_2
_ccdc_geom_bond_type
C33   N3    S    
C34   N4    S    
C46   H9    S    
C19   C20   A    
C53   O21   D    
C48   H13   S    
C7    C8    A    
C29   H3    S    
Cu1   Cu2   S    
C39   O8    A    
Cu1   O1    S    
C29   C30   S    
Cu2   O6    S    
C18   C24   A    
C27   H14   S    
C34   H24   S    
C29   C32   S    
C13   C53   S    
C5    C6    A    
C47   O15   D    
C54   H35   S    
C32   H18   S    
C8    C52   S    
C52   H32   S    
C18   C19   A    
C41   C42   A    
C45   O13   D    
C34   H21   S    
C1    C30   S    
C12   O3    A    
C23   O6    A    
Cu1   O3    S    
C32   H19   S    
Cu1   N4    S    
C16   C17   A    
C54   O22   D    
Cu2   N3    S    
C2    C45   S    
C18   H36   S    
C5    C43   A    
C36   N4    S    
C21   C22   A    
Cu2   O2    S    
C46   O14   D    
C51   H28   S    
C1    O2    A    
C33   H23   S    
C53   H34   S    
C48   O16   D    
C28   C31   S    
C26   H11   S    
C21   H8    S    
C35   N3    S    
C25   C47   S    
C20   C39   S    
C47   H12   S    
C38   H5    S    
C29   H2    S    
C24   N1    S    
C36   H30   S    
Cu1   O7    S    
Cu2   O8    S    
C3    C49   S    
C35   C36   S    
C23   C31   S    
C27   H16   S    
C43   C44   A    
C9    O11   S    
C37   C38   S    
C35   H29   S    
C1    O1    A    
C50   H27   S    
C23   O5    A    
C28   H17   S    
C49   O17   D    
C33   C34   S    
C15   H6    S    
C51   O19   D    
C41   N1    A    
C41   O10   S    
C12   O4    A    
C50   O18   D    
C12   C14   S    
C26   C30   S    
C26   C48   S    
C40   O9    S    
C27   C31   S    
C7    H31   S    
C42   C43   A    
C3    C4    A    
C16   C54   S    
C37   C50   S    
C25   C30   S    
C11   C17   A    
Cu2   O4    S    
C31   C32   S    
C8    C44   A    
C4    C5    A    
C6    C10   A    
C6    C7    A    
C10   O12   S    
C25   C27   S    
C39   O7    A    
C26   C28   S    
C25   H10   S    
C2    C3    A    
C38   C51   S    
C35   H25   S    
C33   H20   S    
C37   H4    S    
C11   C13   A    
C2    C42   A    
Cu1   O5    S    
C49   H22   S    
C52   O20   D    
C22   C24   A    
C45   H7    S    
C10   N2    A    
C37   N3    S    
C40   C44   A    
C38   N4    S    
C20   C21   A    
C40   N1    A    
C19   H1    S    
C28   H15   S    
C11   H33   S    
C14   C15   A    
C36   H26   S    
C9    N2    A    
C22   C46   S    
C4    C9    A    
C13   C14   A    
C17   N2    S    
C15   C16   A    
