data_mof_unit_34627.cif
_audit_creation_date              2012-12-10T17:28:34-0500
_audit_creation_method            fapswitch 2.2
_symmetry_space_group_name_H-M    P1
_symmetry_Int_Tables_number       1
_space_group_crystal_system       triclinic
_cell_length_a                    10.656148
_cell_length_b                    12.039917
_cell_length_c                    12.849084
_cell_angle_alpha                 93.481882
_cell_angle_beta                  90.483762
_cell_angle_gamma                 85.946124
_cell_volume                      1641.35207441

loop_
_atom_site_label
_atom_site_type_symbol
_atom_type_description
_atom_site_fract_x
_atom_site_fract_y
_atom_site_fract_z
_atom_type_partial_charge
C1    C     C_R   0.493579 0.522094 0.700035 0.884745
C2    C     C_R   0.506421 0.477906 0.299965 0.884746
C3    C     C_R   0.506937 0.463694 0.188825 -0.080366
C4    C     C_R   0.493063 0.536307 0.811174 -0.080361
C5    C     C_R   0.588360 0.619704 0.963389 -0.163655
C6    C     C_R   0.411639 0.380298 0.036610 -0.163651
C7    C     C_R   0.565452 0.617574 0.857866 -0.249884
C8    C     C_R   0.434550 0.382426 0.142133 -0.249867
C9    C     C_R   0.433432 0.461186 0.869996 0.086744
C10   C     C_R   0.566564 0.538818 0.130005 0.086735
C11   C     C_R   0.460272 0.460252 0.976465 0.112391
C12   C     C_R   0.539725 0.539751 0.023535 0.112393
C13   C     C_R   0.381764 0.956595 0.403763 -0.309552
C14   C     C_R   0.618236 0.043404 0.596237 -0.309552
C15   C     C_R   0.392550 0.840644 0.412337 0.440101
C16   C     C_R   0.607450 0.159356 0.587663 0.440100
C17   C     C_R   0.551454 0.857718 0.541445 -0.060981
C18   C     C_R   0.448546 0.142282 0.458555 -0.060980
C19   C     C_R   0.542975 0.975035 0.534875 0.038963
C20   C     C_R   0.457025 0.024965 0.465125 0.038963
C21   C     C_R   0.739101 0.499712 0.499387 0.881262
C22   C     C_R   0.260899 0.500288 0.500612 0.881267
C23   C     C_R   0.876044 0.410054 0.320740 -0.120098
C24   C     C_R   0.123954 0.589982 0.679245 -0.120133
C25   C     C_R   0.944080 0.369857 0.232541 -0.101895
C26   C     C_R   0.055915 0.630169 0.767449 -0.101888
C27   C     C_R   0.074091 0.373375 0.231766 -0.125956
C28   C     C_R   0.925904 0.626609 0.768242 -0.125952
C29   C     C_R   0.136180 0.416420 0.319457 -0.130559
C30   C     C_R   0.863817 0.583550 0.680556 -0.130538
C31   C     C_R   0.068499 0.456863 0.410216 0.082297
C32   C     C_R   0.931500 0.543127 0.589789 0.082298
C33   C     C_R   0.937661 0.454798 0.410496 0.075260
C34   C     C_R   0.062338 0.545210 0.589502 0.075265
C35   C     C_R   0.128449 0.501034 0.500051 -0.157682
C36   C     C_R   0.871551 0.498965 0.499949 -0.157687
H1    H     H_    0.872985 0.657013 0.836989 0.145832
H2    H     H_    0.127009 0.342958 0.163024 0.145832
H3    H     H_    0.314644 0.992806 0.349378 0.176551
H4    H     H_    0.685357 0.007194 0.650622 0.176552
H5    H     H_    0.775040 0.406499 0.317242 0.137694
H6    H     H_    0.224958 0.593563 0.682729 0.137718
H7    H     H_    0.895607 0.336606 0.164431 0.154418
H8    H     H_    0.104388 0.663442 0.835549 0.154417
H9    H     H_    0.237171 0.418502 0.315014 0.131306
H10   H     H_    0.762826 0.581442 0.685008 0.131302
H11   H     H_    0.390868 0.323327 0.188135 0.158218
H12   H     H_    0.609136 0.676670 0.811863 0.158223
H13   H     H_    0.645988 0.683502 0.995822 0.182839
H14   H     H_    0.354014 0.316498 0.004176 0.182837
H15   H     H_    0.382661 0.181375 0.404977 0.138419
H16   H     H_    0.617339 0.818625 0.595023 0.138423
N1    N     N_R   0.523130 0.207800 0.519340 -0.124455
N2    N     N_R   0.476870 0.792200 0.480660 -0.124456
O1    O     O_R   0.506170 0.421700 0.658830 -0.550861
O2    O     O_R   0.493830 0.578300 0.341170 -0.550858
O3    O     O_R   0.491330 0.609310 0.646410 -0.650011
O4    O     O_R   0.508670 0.390690 0.353590 -0.650008
O5    O     O_R   0.690650 0.406190 0.506220 -0.585547
O6    O     O_R   0.309350 0.593810 0.493780 -0.585555
O7    O     O_R   0.675800 0.593810 0.493800 -0.614237
O8    O     O_R   0.324200 0.406190 0.506200 -0.614239
Zn1   Zn    Zn3+2 0.509910 0.374730 0.508290 1.000080
Zn2   Zn    Zn3+2 0.490090 0.625270 0.491710 1.000077
I1    I     I_    0.701733 0.645305 0.201821 -0.345396
I2    I     I_    0.298251 0.354711 0.798180 -0.345387
Br1   Br    Br    0.715760 0.244925 0.675076 -0.456014
Br2   Br    Br    0.284240 0.755075 0.324924 -0.456005

loop_
_geom_bond_atom_site_label_1
_geom_bond_atom_site_label_2
_ccdc_geom_bond_type
O7    Zn2   S    
C11   C12   A    
C31   C33   A    
O8    Zn1   S    
C14   C16   A    
C1    O3    A    
C22   O8    A    
N1    Zn1   S    
O5    Zn1   S    
C19   C20   A    
C23   H5    S    
C13   C15   A    
C30   H10   S    
O6    Zn2   S    
C1    C4    S    
C7    H12   S    
C25   H7    S    
C28   C30   A    
C2    C3    S    
C1    O1    A    
C8    H11   S    
C26   H8    S    
C29   C31   A    
C3    C10   A    
C2    O2    A    
C6    H14   S    
C30   C32   A    
C22   C35   S    
C9    C11   A    
C5    H13   S    
O2    Zn2   S    
C10   C12   A    
C28   H1    S    
C5    C12   A    
C4    C7    A    
C15   Br2   S    
C32   C36   A    
C17   H16   S    
O1    Zn1   S    
C17   C19   A    
C24   C26   A    
C18   H15   S    
C21   O5    A    
C18   C20   A    
C23   C25   A    
C3    C8    A    
C22   O6    A    
C2    O4    A    
C31   C35   A    
C13   H3    S    
C25   C27   A    
C27   H2    S    
C14   H4    S    
C15   N2    A    
C6    C11   A    
C33   C36   A    
C24   H6    S    
C27   C29   A    
N2    Zn2   S    
O3    Zn2   S    
C5    C7    A    
C34   C35   A    
C10   I1    S    
O4    Zn1   S    
C21   C36   S    
C16   N1    A    
C14   C19   A    
C6    C8    A    
C18   N1    A    
C4    C9    A    
C9    I2    S    
C16   Br1   S    
C26   C28   A    
C17   N2    A    
C13   C20   A    
C21   O7    A    
C24   C34   A    
C29   H9    S    
C23   C33   A    
C32   C34   A    
