data_mof_unit_8329.cif
_audit_creation_date              2013-03-05T15:58:55-0500
_audit_creation_method            fapswitch 2.2
_symmetry_space_group_name_H-M    P1
_symmetry_Int_Tables_number       1
_space_group_crystal_system       triclinic
_cell_length_a                    10.641993
_cell_length_b                    12.589552
_cell_length_c                    13.135037
_cell_angle_alpha                 82.504324
_cell_angle_beta                  90.057204
_cell_angle_gamma                 102.257198
_cell_volume                      1704.34662125

loop_
_atom_site_label
_atom_site_type_symbol
_atom_site_description
_atom_site_fract_x
_atom_site_fract_y
_atom_site_fract_z
_atom_type_partial_charge
O1    O     O_R   0.468120 0.366740 0.627160 -0.618133
O2    O     O_R   0.510770 0.544830 0.662520 -0.611806
C1    C     C_R   0.481947 0.438775 0.691253 0.831651
O3    O     O_R   0.663880 0.410950 0.482330 -0.610328
O4    O     O_R   0.706530 0.589040 0.517700 -0.629092
C2    C     C_R   0.741353 0.499118 0.502803 0.897123
Zn1   Zn    Zn3+2 0.471520 0.381090 0.476390 0.956077
Zn2   Zn    Zn3+2 0.528480 0.618910 0.523610 0.972215
O5    O     O_R   0.489230 0.455170 0.337480 -0.615971
O6    O     O_R   0.531880 0.633260 0.372840 -0.634603
O7    O     O_R   0.293470 0.410960 0.482300 -0.625087
O8    O     O_R   0.336120 0.589050 0.517670 -0.604095
C3    C     C_R   0.513152 0.561026 0.308896 0.943698
C4    C     C_R   0.257879 0.498887 0.503023 0.820630
C5    C     C_3   0.898415 0.378586 0.514642 -0.376706
H1    H     H_    0.855600 0.335201 0.450342 0.242059
H2    H     H_    0.850079 0.330459 0.586465 0.163821
C6    C     C_3   0.041687 0.379272 0.517683 -0.442022
H3    H     H_    0.063691 0.334145 0.591941 0.180101
H4    H     H_    0.065864 0.334575 0.455096 0.220199
H5    H     H_    0.104420 0.510358 0.337907 0.202522
C7    C     C_3   0.945791 0.568327 0.404493 0.187928
C8    C     C_3   0.937427 0.548678 0.599475 -0.519682
C9    C     C_3   0.877631 0.498330 0.504158 -0.008317
H6    H     H_    0.915931 0.631027 0.602228 0.225170
H7    H     H_    0.893913 0.496655 0.671151 0.161269
C10   C     C_3   0.121111 0.499430 0.504661 -0.001875
C11   C     C_3   0.087312 0.558020 0.400285 -0.425691
C12   C     C_3   0.083822 0.556300 0.596923 0.197480
H8    H     H_    0.108729 0.509658 0.669501 0.079731
H9    H     H_    0.944938 0.655837 0.409652 0.157989
H10   H     H_    0.151137 0.640470 0.380940 0.186930
C13   C     C_R   0.412386 0.704214 0.064737 0.331750
H11   H     H_    0.439029 0.744636 0.218675 0.176099
H12   H     H_    0.310168 0.689747 0.875962 0.229061
C14   C     C_R   0.503401 0.597041 0.200514 -0.082454
C15   C     C_R   0.511597 0.302624 0.837024 -0.180056
C16   C     C_R   0.528275 0.275939 0.941299 -0.106621
C17   C     C_R   0.513938 0.349138 0.009022 -0.175638
C18   C     C_R   0.476290 0.448928 0.973404 0.111513
C19   C     C_R   0.440393 0.466531 0.870622 0.071458
C20   C     C_R   0.472655 0.531689 0.036058 0.026544
C21   C     C_R   0.417162 0.622920 0.000289 0.011180
C22   C     C_R   0.362659 0.627462 0.903361 -0.132438
C23   C     C_R   0.374622 0.550702 0.839481 -0.193230
C24   C     C_R   0.523695 0.525994 0.133475 -0.189322
C25   C     C_R   0.451789 0.688023 0.166173 -0.279024
C26   C     C_R   0.471653 0.399590 0.800939 -0.115217
H13   H     H_    0.574758 0.463187 0.161643 0.182733
H14   H     H_    0.533973 0.249360 0.784360 0.159841
H15   H     H_    0.529930 0.324050 0.088771 0.144118
H16   H     H_    0.557778 0.200445 0.969282 0.171740
H17   H     H_    0.330279 0.556568 0.765555 0.194594
C27   C     C_R   0.323742 0.088277 0.346062 -0.262962
H18   H     H_    0.302223 0.255120 0.329880 0.138936
H19   H     H_    0.294819 0.881334 0.315127 0.187508
H20   H     H_    0.256589 0.066385 0.286287 0.168881
N1    N     N_R   0.433240 0.222190 0.444680 -0.104506
C28   C     C_R   0.650819 0.799358 0.630387 0.049973
C29   C     C_R   0.681277 0.903869 0.659119 -0.199869
C30   C     C_R   0.624173 0.985530 0.609786 -0.169396
C31   C     C_R   0.535962 0.962676 0.530833 0.019775
C32   C     C_R   0.508485 0.854770 0.504362 0.255292
C33   C     C_R   0.473927 0.041924 0.477475 -0.008472
C34   C     C_R   0.386129 0.011659 0.399255 0.175094
C35   C     C_R   0.361516 0.905329 0.374656 -0.197521
C36   C     C_R   0.421969 0.828273 0.426503 -0.140711
C37   C     C_R   0.495260 0.150769 0.498100 -0.025127
C38   C     C_R   0.348995 0.194359 0.370353 0.010729
N2    N     N_R   0.566070 0.776970 0.554790 -0.130248
H21   H     H_    0.560464 0.181721 0.555310 0.117309
H22   H     H_    0.694512 0.735371 0.668601 0.140984
H23   H     H_    0.650851 0.065090 0.635130 0.132877
H24   H     H_    0.748713 0.921524 0.719563 0.166059
H25   H     H_    0.398615 0.748240 0.404110 0.195129
N3    N     N_R   0.151979 0.671646 0.593382 0.232353
O9    O     O_R   0.128770 0.747089 0.522739 -0.421031
O10   O     O_R   0.225018 0.701539 0.668507 -0.404576
N4    N     N_R   0.365811 0.801503 0.029681 0.202871
O11   O     O_R   0.408300 0.859940 0.942619 -0.385876
O12   O     O_R   0.299939 0.842338 0.092197 -0.399614
N5    N     N_R   0.879971 0.539356 0.310318 0.201333
O13   O     O_R   0.874993 0.444118 0.280226 -0.408870
O14   O     O_R   0.830367 0.611626 0.253309 -0.396144

loop_
_geom_bond_atom_site_label_1
_geom_bond_atom_site_label_2
_geom_bond_distance
_ccdc_geom_bond_type
C5    C6    1.523407 S    
C17   H15   1.078027 S    
C8    C12   1.540543 S    
C10   C12   1.576927 S    
C12   N3    1.473846 S    
Zn1   O7    2.012011 S    
C24   H13   1.078483 S    
C31   C32   1.416430 A    
C7    N5    1.470151 S    
C15   C16   1.387481 A    
N3    O10   1.300263 A    
O4    C2    1.301268 A    
O7    C4    1.303752 A    
C16   H16   1.082738 S    
C5    H1    1.110485 S    
C1    C26   1.457058 S    
C14   C25   1.396055 A    
C5    H2    1.114092 S    
C6    H3    1.113749 S    
C20   C24   1.388775 A    
C8    H7    1.113989 S    
O5    C3    1.306672 A    
C31   C33   1.420828 A    
C8    C9    1.551904 S    
C14   C24   1.382014 A    
C4    C10   1.457138 S    
Zn1   N1    2.052409 S    
C28   H22   1.081735 S    
C18   C20   1.416072 A    
C35   C36   1.382216 A    
C23   H17   1.079909 S    
C28   C29   1.388137 A    
C7    C11   1.540504 S    
O3    Zn1   2.004640 S    
C27   C34   1.398048 A    
C32   C36   1.400558 A    
C7    H9    1.114517 S    
C13   C21   1.419451 A    
C11   H10   1.111557 S    
N3    O9    1.301277 A    
C3    C14   1.447165 S    
O3    C2    1.293447 A    
C17   C18   1.420467 A    
N4    O12   1.301654 A    
C13   N4    1.438079 S    
C30   H23   1.077374 S    
C29   C30   1.391683 A    
O1    C1    1.301963 A    
C21   C22   1.397941 A    
C12   H8    1.115077 S    
C32   N2    1.363238 A    
Zn2   O8    2.004640 S    
C2    C9    1.452484 S    
C15   C26   1.401634 A    
H12   C22   1.080930 S    
H18   C38   1.081926 S    
N1    C37   1.350152 A    
C18   C19   1.405184 A    
H5    C11   1.113309 S    
O8    C4    1.293878 A    
C34   C35   1.388802 A    
N5    O14   1.300996 A    
C13   C25   1.398896 A    
C7    C9    1.563964 S    
C36   H25   1.065056 S    
C20   C21   1.426656 A    
C33   C37   1.402607 A    
C22   C23   1.384951 A    
Zn1   O5    1.927831 S    
C5    C9    1.558161 S    
O1    Zn1   1.964647 S    
O2    Zn2   1.927831 S    
C6    C10   1.556241 S    
O6    C3    1.301596 A    
O4    Zn2   2.012012 S    
N1    C38   1.354180 A    
Zn2   N2    2.040046 S    
C33   C34   1.422270 A    
O2    C1    1.309238 A    
C15   H14   1.083526 S    
C16   C17   1.391992 A    
C27   C38   1.384285 A    
C37   H21   1.076373 S    
H19   C35   1.084406 S    
C29   H24   1.082558 S    
C19   C26   1.406964 A    
C6    H4    1.114123 S    
C8    H6    1.113077 S    
C30   C31   1.414463 A    
C28   N2    1.357266 A    
N4    O11   1.301441 A    
Zn2   O6    1.964645 S    
N5    O13   1.301254 A    
C10   C11   1.549474 S    
C19   C23   1.407627 A    
H11   C25   1.082364 S    
C27   H20   1.083902 S    
