data_mof_unit_24290.cif
_audit_creation_date              2012-12-10T17:28:39-0500
_audit_creation_method            fapswitch 2.2
_symmetry_space_group_name_H-M    P1
_symmetry_Int_Tables_number       1
_space_group_crystal_system       triclinic
_cell_length_a                    10.663071
_cell_length_b                    12.012718
_cell_length_c                    12.836368
_cell_angle_alpha                 93.962046
_cell_angle_beta                  90.491098
_cell_angle_gamma                 86.516266
_cell_volume                      1637.26540915

loop_
_atom_site_label
_atom_site_type_symbol
_atom_type_description
_atom_site_fract_x
_atom_site_fract_y
_atom_site_fract_z
_atom_type_partial_charge
Br1   Br    Br    0.233984 0.010024 0.328470 -0.471156
Br2   Br    Br    0.766016 0.989976 0.671530 -0.471156
C1    C     C_R   0.503269 0.522710 0.700318 0.891640
C2    C     C_R   0.546114 0.542085 0.133435 -0.270467
C3    C     C_R   0.466186 0.458357 0.973215 0.166618
C4    C     C_R   0.533814 0.541643 0.026785 0.166618
C5    C     C_R   0.369055 0.953889 0.413766 0.200761
C6    C     C_R   0.630945 0.046111 0.586234 0.200761
C7    C     C_R   0.384026 0.837859 0.420932 -0.008861
C8    C     C_R   0.615973 0.162141 0.579068 -0.008861
C9    C     C_R   0.558226 0.858027 0.534895 0.006329
C10   C     C_R   0.441774 0.141973 0.465104 0.006329
C11   C     C_R   0.548207 0.975665 0.530805 -0.035423
C12   C     C_R   0.496731 0.477289 0.299682 0.891641
C13   C     C_R   0.451792 0.024335 0.469195 -0.035424
C14   C     C_R   0.739129 0.500315 0.500686 0.902932
C15   C     C_R   0.260871 0.499685 0.499314 0.902932
C16   C     C_R   0.876408 0.444981 0.683318 -0.094284
C17   C     C_R   0.123592 0.555019 0.316682 -0.094285
C18   C     C_R   0.944551 0.421346 0.773028 -0.112208
C19   C     C_R   0.055449 0.578654 0.226972 -0.112208
C20   C     C_R   0.074507 0.424441 0.773505 -0.123514
C21   C     C_R   0.925493 0.575558 0.226495 -0.123514
C22   C     C_R   0.136414 0.450376 0.684007 -0.139754
C23   C     C_R   0.488320 0.462984 0.187981 -0.129822
C24   C     C_R   0.863585 0.549624 0.315993 -0.139754
C25   C     C_R   0.068655 0.473388 0.591453 0.065778
C26   C     C_R   0.931345 0.526612 0.408546 0.065778
C27   C     C_R   0.937804 0.472209 0.591497 0.079489
C28   C     C_R   0.062196 0.527791 0.408503 0.079489
C29   C     C_R   0.128487 0.499902 0.499633 -0.175326
C30   C     C_R   0.871513 0.500097 0.500367 -0.175326
C31   C     C_2   0.347291 0.298534 0.189351 0.934678
C32   C     C_2   0.652708 0.701466 0.810649 0.934679
C33   C     C_R   0.511679 0.537015 0.812019 -0.129822
C34   C     C_R   0.588679 0.623368 0.973260 -0.244788
C35   C     C_R   0.411321 0.376632 0.026739 -0.244788
C36   C     C_R   0.580506 0.621101 0.864812 -0.053178
C37   C     C_R   0.419493 0.378899 0.135188 -0.053179
C38   C     C_R   0.453885 0.457914 0.866565 -0.270467
H1    H     H_    0.872429 0.592890 0.156545 0.139740
H2    H     H_    0.400642 0.394198 0.825373 0.159023
H3    H     H_    0.641972 0.686124 0.015692 0.172686
H4    H     H_    0.358027 0.313876 0.984308 0.172687
H5    H     H_    0.369897 0.182003 0.418610 0.186342
H6    H     H_    0.630103 0.817997 0.581390 0.186342
H7    H     H_    0.679422 0.216419 0.620958 0.163342
H8    H     H_    0.320578 0.783581 0.379042 0.163342
H9    H     H_    0.225937 0.273857 0.304096 0.363537
H10   H     H_    0.774063 0.726144 0.695904 0.363537
H11   H     H_    0.127571 0.407110 0.843455 0.139740
H12   H     H_    0.775448 0.442783 0.687549 0.154218
H13   H     H_    0.224551 0.557217 0.312451 0.154218
H14   H     H_    0.896183 0.401456 0.842565 0.148532
H15   H     H_    0.103816 0.598544 0.157435 0.148533
H16   H     H_    0.237373 0.453215 0.688739 0.131736
H17   H     H_    0.762627 0.546785 0.311261 0.131736
H18   H     H_    0.599358 0.605802 0.174627 0.159023
N1    N     N_R   0.523130 0.207800 0.519340 -0.135046
N2    N     N_R   0.476870 0.792200 0.480660 -0.135046
O1    O     O_R   0.506170 0.421700 0.658830 -0.636786
O2    O     O_R   0.278421 0.334084 0.278829 -0.827828
O3    O     O_2   0.656925 0.797856 0.847415 -0.566876
O4    O     O_R   0.721579 0.665916 0.721172 -0.827828
O5    O     O_R   0.493830 0.578300 0.341170 -0.636786
O6    O     O_R   0.491330 0.609310 0.646410 -0.588368
O7    O     O_R   0.508670 0.390690 0.353590 -0.588368
O8    O     O_R   0.690650 0.406190 0.506220 -0.630035
O9    O     O_R   0.309350 0.593810 0.493780 -0.630035
O10   O     O_R   0.675800 0.593810 0.493800 -0.599111
O11   O     O_R   0.324200 0.406190 0.506200 -0.599110
O12   O     O_2   0.343072 0.202145 0.152584 -0.566876
Zn1   Zn    Zn3+2 0.509910 0.374730 0.508290 0.975448
Zn2   Zn    Zn3+2 0.490090 0.625270 0.491710 0.975448

loop_
_geom_bond_atom_site_label_1
_geom_bond_atom_site_label_2
_ccdc_geom_bond_type
C15   O9    A    
C6    C11   A    
C3    C35   A    
C25   C27   A    
H10   O4    S    
C22   C25   A    
C2    C23   A    
C16   H12   S    
C31   C37   S    
C17   C19   A    
C27   C30   A    
C3    C4    A    
O6    Zn2   S    
C21   C24   A    
N2    Zn2   S    
C31   O12   D    
C10   N1    A    
C31   O2    S    
O10   Zn2   S    
C12   O7    A    
O7    Zn1   S    
N1    Zn1   S    
C17   H13   S    
C38   H2    S    
C32   C36   S    
C1    O1    A    
C19   C21   A    
C25   C29   A    
C26   C30   A    
C33   C36   A    
C14   O10   A    
C2    C4    A    
O11   Zn1   S    
C5    C13   A    
O1    Zn1   S    
O8    Zn1   S    
O5    Zn2   S    
C10   C13   A    
C1    C33   S    
C32   O4    S    
O9    Zn2   S    
C16   C27   A    
C14   O8    A    
C18   H14   S    
C18   C20   A    
C15   O11   A    
C11   C13   A    
C15   C29   S    
C20   C22   A    
C1    O6    A    
C14   C30   S    
C9    N2    A    
C19   H15   S    
C5    C7    A    
H9    O2    S    
Br1   C5    S    
Br2   C6    S    
C10   H5    S    
C34   H3    S    
C22   H16   S    
C24   C26   A    
C21   H1    S    
C7    N2    A    
C35   H4    S    
C26   C28   A    
C33   C38   A    
C35   C37   A    
C23   C37   A    
C9    C11   A    
C28   C29   A    
C34   C36   A    
C32   O3    D    
C12   O5    A    
C4    C34   A    
C8    N1    A    
C16   C18   A    
C12   C23   S    
C24   H17   S    
C7    H8    S    
C6    C8    A    
C3    C38   A    
C2    H18   S    
C8    H7    S    
C9    H6    S    
C17   C28   A    
C20   H11   S    
