data_mof_unit_41721.cif
_audit_creation_date              2013-03-05T16:11:55-0500
_audit_creation_method            fapswitch 2.2
_symmetry_space_group_name_H-M    P1
_symmetry_Int_Tables_number       1
_space_group_crystal_system       triclinic
_cell_length_a                    15.717237
_cell_length_b                    10.623825
_cell_length_c                    9.920816
_cell_angle_alpha                 90.367419
_cell_angle_beta                  90.181413
_cell_angle_gamma                 91.164404
_cell_volume                      1656.16470113

loop_
_atom_site_label
_atom_site_type_symbol
_atom_site_description
_atom_site_fract_x
_atom_site_fract_y
_atom_site_fract_z
_atom_type_partial_charge
O1    O     O_R   0.499990 0.316750 0.614620 -0.564202
O2    O     O_R   0.500010 0.683250 0.385380 -0.563547
O3    O     O_R   0.500000 0.316780 0.385290 -0.600266
O4    O     O_R   0.500000 0.683220 0.614710 -0.600408
C1    C     C_R   0.501415 0.260487 0.499699 0.920118
C2    C     C_R   0.498580 0.739513 0.500303 0.920281
O5    O     O_R   0.376780 0.499970 0.614640 -0.586425
O6    O     O_R   0.623220 0.500030 0.385360 -0.586970
O7    O     O_R   0.376780 0.500000 0.385310 -0.577751
O8    O     O_R   0.623220 0.500000 0.614690 -0.577617
C3    C     C_R   0.338084 0.499808 0.499806 0.904588
C4    C     C_R   0.661916 0.500199 0.500193 0.904426
Zn1   Zn    Zn3+2 0.500000 0.499980 0.653120 1.084165
Zn2   Zn    Zn3+2 0.500000 0.500020 0.346880 1.084205
C5    C     C_3   0.970585 0.384266 0.527907 0.275156
C6    C     C_3   0.029415 0.615767 0.472081 0.275050
C7    C     C_3   0.026606 0.419167 0.406258 0.268942
C8    C     C_3   0.973393 0.580865 0.593730 0.268932
H1    H     H_    0.947127 0.563846 0.277205 0.233980
H2    H     H_    0.052871 0.436186 0.722782 0.233835
C9    C     C_1   0.249225 0.499885 0.499538 -0.038443
C10   C     C_1   0.750775 0.500134 0.500458 -0.038519
C11   C     C_3   0.028253 0.464816 0.622787 -0.284806
C12   C     C_3   0.971746 0.535216 0.377200 -0.284695
C13   C     C_3   0.083103 0.500057 0.499932 -0.095657
C14   C     C_3   0.916897 0.499976 0.500055 -0.095672
C15   C     C_1   0.173949 0.499977 0.499693 0.136902
C16   C     C_1   0.826051 0.500050 0.500298 0.137100
C17   C     C_R   0.439010 0.064236 0.425836 -0.178473
C18   C     C_R   0.560980 0.935766 0.574171 -0.178381
H3    H     H_    0.390968 0.114932 0.371094 0.215186
H4    H     H_    0.609024 0.885073 0.628905 0.215116
C19   C     C_R   0.436219 0.934925 0.426032 0.296685
C20   C     C_R   0.563767 0.065076 0.573981 0.296955
C21   C     C_R   0.497758 0.871904 0.500630 -0.140286
C22   C     C_R   0.502232 0.128097 0.499377 -0.140518
C23   C     C_R   0.554474 0.577481 0.073155 0.263715
C24   C     C_R   0.445828 0.422029 0.926842 0.263613
C25   C     C_R   0.554480 0.577559 0.929696 0.221663
C26   C     C_R   0.445601 0.422299 0.070306 0.221513
N1    N     N_R   0.499980 0.499970 0.857200 -0.198641
N2    N     N_R   0.500020 0.500030 0.142800 -0.198593
Br1   Br    Br    0.067503 0.303148 0.270778 -0.269263
Br2   Br    Br    0.932495 0.696882 0.729211 -0.269032
Br3   Br    Br    0.925847 0.217571 0.568755 -0.258532
Br4   Br    Br    0.074153 0.782462 0.431233 -0.258586
Br5   Br    Br    0.345492 0.849687 0.329444 -0.342914
Br6   Br    Br    0.654487 0.150313 0.670593 -0.342632
N3    N     N_R   0.611987 0.659177 0.145255 0.256710
O9    O     O_R   0.690955 0.627187 0.159125 -0.326024
O10   O     O_R   0.591751 0.775905 0.165291 -0.313599
N4    N     N_R   0.389174 0.338990 0.854751 0.256821
O11   O     O_R   0.409647 0.221941 0.837922 -0.313102
O12   O     O_R   0.310364 0.370637 0.837747 -0.326469
Br7   Br    Br    0.632896 0.688739 0.839583 -0.302735
Br8   Br    Br    0.367040 0.311350 0.160419 -0.302898

loop_
_geom_bond_atom_site_label_1
_geom_bond_atom_site_label_2
_geom_bond_distance
_ccdc_geom_bond_type
C18   H4    1.082952 S    
O7    Zn2   1.975030 S    
C7    Br1   1.937869 S    
C5    C7    1.538986 S    
C8    Br2   1.937871 S    
C13   C15   1.427874 S    
C23   N3    1.427625 S    
C6    C12   1.546807 S    
C14   C16   1.427869 S    
C8    C14   1.531063 S    
H2    C11   1.110223 S    
O6    C4    1.289697 A    
Zn2   N2    2.024642 S    
C7    C13   1.531064 S    
O3    C1    1.286670 A    
C23   N2    1.367243 A    
Zn1   N1    2.024642 S    
H1    C12   1.110224 S    
C9    C15   1.183155 T    
C23   C25   1.423236 A    
C6    C8    1.538987 S    
C10   C16   1.183154 T    
N4    O11   1.300636 A    
C24   C26   1.423282 A    
O7    C3    1.290161 A    
C17   C22   1.393427 A    
O2    C2    1.284383 A    
O3    Zn2   1.986052 S    
O8    C4    1.290169 A    
C18   C21   1.393432 A    
O2    Zn2   1.981312 S    
C24   N4    1.427793 S    
C5    C11   1.546804 S    
C19   C21   1.399874 A    
C12   C14   1.538922 S    
O5    C3    1.289706 A    
C20   C22   1.399862 A    
C11   C13   1.538923 S    
C19   Br5   1.923373 S    
O1    C1    1.284368 A    
C7    C12   1.546856 S    
C20   Br6   1.923404 S    
C18   C20   1.373588 A    
C8    C11   1.546854 S    
C1    C22   1.406797 S    
C4    C10   1.396620 S    
O5    Zn1   1.972758 S    
O1    Zn1   1.981313 S    
C2    C21   1.406811 S    
C25   N1    1.374877 A    
C24   N1    1.367415 A    
C17   H3    1.082984 S    
O4    C2    1.286662 A    
C6    Br4   1.937854 S    
C6    C13   1.531199 S    
N3    O9    1.300606 A    
C5    Br3   1.937854 S    
C5    C14   1.531197 S    
O6    Zn2   1.972754 S    
C26   Br8   1.916904 S    
C3    C9    1.396627 S    
C25   Br7   1.916958 S    
O4    Zn1   1.986051 S    
C17   C19   1.373597 A    
N4    O12   1.300826 A    
C26   N2    1.374969 A    
N3    O10   1.300685 A    
O8    Zn1   1.975029 S    
