data_mof_unit_42595.cif
_audit_creation_date              2012-10-26T20:17:36-0400
_audit_creation_method            fapswitch 2.2
_symmetry_space_group_name_H-M    P1
_symmetry_Int_Tables_number       1
_space_group_crystal_system       triclinic
_cell_length_a                    27.777585
_cell_length_b                    8.669409
_cell_length_c                    7.457154
_cell_angle_alpha                 103.170146
_cell_angle_beta                  94.360567
_cell_angle_gamma                 92.793339
_cell_volume                      1739.46112454

loop_
_atom_site_label
_atom_site_type_symbol
_atom_type_description
_atom_site_fract_x
_atom_site_fract_y
_atom_site_fract_z
_atom_type_partial_charge
C1    C     C_R   0.498519 0.199622 0.453032 0.531737
C2    C     C_R   0.868836 0.357638 0.445250 0.024899
C3    C     C_R   0.354633 0.498604 0.507124 0.009876
C4    C     C_R   0.645367 0.501376 0.492873 0.009876
C5    C     C_R   0.971102 0.353410 0.456285 0.018554
C6    C     C_R   0.028900 0.646509 0.543742 0.018556
C7    C     C_R   0.977603 0.647276 0.536751 0.019199
C8    C     C_R   0.022399 0.352644 0.463298 0.019199
C9    C     C_R   0.949054 0.500719 0.493469 0.034919
C10   C     C_R   0.050948 0.499200 0.506569 0.034920
C11   C     C_R   0.940737 0.211354 0.412769 -0.146578
C12   C     C_R   0.501481 0.800378 0.546968 0.531741
C13   C     C_R   0.059263 0.788565 0.587220 -0.146569
C14   C     C_R   0.890757 0.213843 0.407695 -0.111510
C15   C     C_R   0.109243 0.786079 0.592279 -0.111508
C16   C     C_R   0.407511 0.499516 0.502159 0.534344
C17   C     C_R   0.592489 0.500481 0.497841 0.534335
C18   C     C_R   0.046458 0.209775 0.428646 -0.146005
C19   C     C_R   0.953546 0.790147 0.571435 -0.146010
C20   C     C_2   0.497832 0.031484 0.426776 -0.131050
C21   C     C_2   0.502168 0.968516 0.573224 -0.131050
C22   C     C_R   0.175410 0.355834 0.479357 0.400464
C23   C     C_R   0.102245 0.498446 0.512435 -0.026655
C24   C     C_R   0.824593 0.644092 0.520700 0.400438
C25   C     C_R   0.181662 0.638910 0.557444 0.402235
C26   C     C_R   0.818339 0.361017 0.442539 0.402230
C27   C     C_R   0.274357 0.476938 0.346617 -0.052424
C28   C     C_R   0.725650 0.523655 0.653452 -0.052451
C29   C     C_R   0.324410 0.478150 0.342220 -0.131770
C30   C     C_R   0.675598 0.522457 0.657845 -0.131844
C31   C     C_R   0.333823 0.517754 0.676341 -0.123340
C32   C     C_R   0.666167 0.481574 0.323585 -0.123324
C33   C     C_R   0.283703 0.516963 0.680284 -0.051668
C34   C     C_R   0.897757 0.501476 0.487598 -0.026654
C35   C     C_R   0.716287 0.482328 0.319644 -0.051676
C36   C     C_R   0.253955 0.496506 0.515455 0.246221
C37   C     C_R   0.746044 0.503427 0.484546 0.246138
C38   C     C_R   0.124790 0.353864 0.475444 0.023675
C39   C     C_R   0.875212 0.646059 0.524617 0.023679
C40   C     C_R   0.096519 0.210790 0.434513 -0.116832
C41   C     C_R   0.903484 0.789133 0.565573 -0.116837
C42   C     C_R   0.131165 0.642285 0.554747 0.024889
Cu1   Cu    Cu3+1 0.505380 0.517380 0.684380 1.165309
Cu2   Cu    Cu3+1 0.494620 0.482620 0.315620 1.165319
F1    F     F_    0.453273 0.356755 0.925374 -0.550966
F2    F     F_    0.546727 0.643244 0.074625 -0.550919
H1    H     H_    0.660657 0.538075 0.790300 0.148381
H2    H     H_    0.732039 0.466620 0.188753 0.125716
H3    H     H_    0.112997 0.098020 0.406028 0.164313
H4    H     H_    0.887006 0.901906 0.594079 0.164326
H5    H     H_    0.748655 0.539654 0.781143 0.128627
H6    H     H_    0.251360 0.461434 0.218980 0.128490
H7    H     H_    0.869292 0.101629 0.374124 0.174646
H8    H     H_    0.130709 0.898293 0.625820 0.174641
H9    H     H_    0.027909 0.093722 0.395991 0.104151
H10   H     H_    0.972094 0.906201 0.604119 0.104160
H11   H     H_    0.339356 0.463052 0.209817 0.148223
H12   H     H_    0.954117 0.094836 0.381185 0.106694
H13   H     H_    0.045882 0.905083 0.618774 0.106681
H14   H     H_    0.493767 0.959260 0.285945 0.164866
H15   H     H_    0.506233 0.040739 0.714055 0.164863
H16   H     H_    0.356187 0.533594 0.805513 0.157575
H17   H     H_    0.643796 0.465227 0.194362 0.157430
H18   H     H_    0.267944 0.532156 0.811125 0.125577
N1    N     N_R   0.202565 0.497050 0.519077 -0.402994
N2    N     N_R   0.797436 0.502878 0.480937 -0.402981
N3    N     N_2   0.486510 0.456430 0.038510 0.180365
N4    N     N_2   0.513490 0.543570 0.961490 0.180376
O1    O     O_R   0.503500 0.286120 0.619780 -0.473753
O2    O     O_2   0.802637 0.781949 0.556606 -0.468095
O3    O     O_2   0.790326 0.223838 0.403435 -0.464985
O4    O     O_2   0.209674 0.776089 0.596519 -0.464932
O5    O     O_R   0.496500 0.713880 0.380220 -0.473754
O6    O     O_R   0.494410 0.256780 0.308360 -0.492509
O7    O     O_R   0.505590 0.743220 0.691640 -0.492507
O8    O     O_R   0.434810 0.514700 0.655690 -0.473074
O9    O     O_R   0.565190 0.485300 0.344310 -0.473051
O10   O     O_R   0.425720 0.485350 0.344280 -0.502259
O11   O     O_R   0.574280 0.514650 0.655720 -0.502277
O12   O     O_2   0.197367 0.217981 0.443469 -0.468045

loop_
_geom_bond_atom_site_label_1
_geom_bond_atom_site_label_2
_ccdc_geom_bond_type
C19   H10   S    
C27   C29   A    
C24   C39   A    
C24   O2    S    
C39   C41   A    
F2    N4    S    
C23   C42   A    
C1    O6    A    
Cu2   O9    S    
C35   C37   A    
C5    C11   A    
C11   C14   A    
Cu1   O11   S    
C40   H3    S    
C22   C38   A    
C17   O11   A    
C33   C36   A    
C3    C29   A    
C18   C40   A    
Cu1   N4    S    
F1    N3    S    
C31   C33   A    
C20   H14   S    
C11   H12   S    
C21   H15   S    
C24   N2    A    
C2    C34   A    
Cu1   O1    S    
C12   O5    A    
C26   O3    S    
C31   H16   S    
C35   H2    S    
Cu1   O7    S    
C34   C39   A    
C26   N2    A    
C32   C35   A    
C30   H1    S    
C25   N1    A    
C15   C42   A    
C36   N1    S    
C12   C21   S    
C1    O1    A    
N3    N4    D    
C3    C31   A    
Cu1   Cu2   S    
C15   H8    S    
C22   N1    A    
C5    C9    A    
C37   N2    S    
C17   O9    A    
C2    C26   A    
C25   O4    S    
Cu2   O6    S    
C4    C32   A    
C18   H9    S    
C4    C17   S    
C29   H11   S    
C7    C19   A    
C13   C15   A    
C9    C34   A    
C10   C23   A    
C41   H4    S    
C27   H6    S    
Cu1   O8    S    
C7    C9    A    
C1    C20   S    
C16   O8    A    
C32   H17   S    
C25   C42   A    
C6    C10   A    
C5    C8    A    
C6    C7    A    
C13   H13   S    
C27   C36   A    
C23   C38   A    
C28   C30   A    
C22   O12   S    
C6    C13   A    
C38   C40   A    
C28   C37   A    
C33   H18   S    
Cu2   O10   S    
C28   H5    S    
C16   O10   A    
Cu2   O5    S    
C2    C14   A    
C8    C18   A    
C14   H7    S    
C20   C21   D    
C8    C10   A    
C12   O7    A    
Cu2   N3    S    
C4    C30   A    
C3    C16   S    
C19   C41   A    
