data_mof_unit_52724.cif
_audit_creation_date              2012-12-10T16:53:14-0500
_audit_creation_method            fapswitch 2.2
_symmetry_space_group_name_H-M    P1
_symmetry_Int_Tables_number       1
_space_group_crystal_system       triclinic
_cell_length_a                    18.74711
_cell_length_b                    19.026965
_cell_length_c                    18.682317
_cell_angle_alpha                 109.72755
_cell_angle_beta                  108.999027
_cell_angle_gamma                 109.531583
_cell_volume                      5139.5993394

loop_
_atom_site_label
_atom_site_type_symbol
_atom_type_description
_atom_site_fract_x
_atom_site_fract_y
_atom_site_fract_z
_atom_type_partial_charge
C1    C     C_R   0.997854 0.116547 0.618961 0.766839
C2    C     C_R   0.275003 0.262685 0.663168 -0.191120
C3    C     C_R   0.833071 0.098099 0.610848 -0.237446
C4    C     C_R   0.119051 0.118829 0.499569 0.874871
C5    C     C_R   0.754651 0.094773 0.600139 -0.160344
C6    C     C_R   0.754692 0.165745 0.655227 0.477773
C7    C     C_R   0.833689 0.238984 0.723296 -0.183379
C8    C     C_R   0.914027 0.242651 0.737202 0.048387
C9    C     C_R   0.913748 0.173148 0.677053 0.094133
C10   C     C_R   0.994227 0.180389 0.685602 -0.060793
C11   C     C_R   0.072899 0.253056 0.755343 -0.175406
C12   C     C_R   0.172952 0.191621 0.421863 -0.060061
C13   C     C_R   0.073154 0.319416 0.816478 -0.179963
C14   C     C_R   0.994747 0.314545 0.808666 -0.031726
C15   C     C_R   0.887370 0.722542 0.479766 -0.230221
C16   C     C_R   0.002458 0.883046 0.381225 0.865956
C17   C     C_R   0.894423 0.651842 0.479005 -0.192777
C18   C     C_R   0.837761 0.594913 0.491996 0.455883
C19   C     C_R   0.772378 0.607901 0.503778 -0.227693
C20   C     C_R   0.759850 0.675867 0.498476 -0.003168
C21   C     C_R   0.821646 0.736778 0.491532 0.103187
C22   C     C_R   0.814774 0.809153 0.494229 -0.132431
C23   C     C_R   0.315675 0.318738 0.503617 -0.098895
C24   C     C_R   0.744149 0.817087 0.495890 -0.246455
C25   C     C_R   0.679273 0.755023 0.496255 0.359199
C26   C     C_R   0.687315 0.684379 0.499220 -0.155803
C27   C     C_R   0.166206 0.874186 0.410279 -0.118540
C28   C     C_R   0.881370 0.879065 0.497558 0.782226
C29   C     C_R   0.238572 0.863116 0.426335 -0.139722
C30   C     C_R   0.232378 0.791136 0.366085 -0.087456
C31   C     C_R   0.154537 0.731279 0.288143 -0.169959
C32   C     C_R   0.080660 0.742031 0.269585 0.077375
C33   C     C_R   0.084611 0.812291 0.333038 0.127713
C34   C     C_R   0.331894 0.313978 0.580470 0.039114
C35   C     C_R   0.007369 0.818566 0.315605 -0.048487
C36   C     C_R   0.930882 0.758272 0.235389 -0.156880
C37   C     C_R   0.928708 0.691692 0.172679 -0.172343
C38   C     C_R   0.002806 0.683796 0.189004 -0.081433
C39   C     C_R   0.621571 0.503246 0.619700 0.749497
C40   C     C_R   0.102043 0.126919 0.336249 0.401221
C41   C     C_R   0.383204 0.382534 0.502305 0.731647
C42   C     C_R   0.378486 0.496665 0.380333 0.838651
C43   C     C_R   0.618933 0.618495 0.499494 0.862305
C44   C     C_R   0.881494 0.493597 0.874483 0.818055
C45   C     C_R   0.263826 0.253431 0.580999 0.070459
C46   C     C_R   0.998628 0.381587 0.879495 0.813279
C47   C     C_R   0.119143 0.502930 0.121256 0.785818
C48   C     C_R   0.999550 0.617985 0.118598 0.769161
C49   C     C_R   0.812791 0.640981 0.724937 0.352024
C50   C     C_R   0.893016 0.673505 0.727750 -0.237833
C51   C     C_R   0.941676 0.632616 0.736996 -0.184434
C52   C     C_R   0.075172 0.149731 0.272562 -0.136295
C53   C     C_R   0.916126 0.564724 0.753961 0.472083
C54   C     C_R   0.838294 0.536629 0.759302 -0.044109
C55   C     C_R   0.778944 0.562009 0.724411 -0.060284
C56   C     C_R   0.186586 0.187170 0.500030 -0.175497
C57   C     C_R   0.689255 0.505523 0.688978 -0.006354
C58   C     C_R   0.664098 0.440468 0.709716 -0.151045
C59   C     C_R   0.726870 0.434715 0.768723 -0.118361
C60   C     C_R   0.815317 0.485057 0.797110 -0.063335
C61   C     C_R   0.224576 0.488499 0.391206 -0.222115
C62   C     C_R   0.155427 0.492884 0.401519 0.483817
C63   C     C_R   0.099976 0.507751 0.345741 -0.187709
C64   C     C_R   0.128040 0.229188 0.285540 -0.167382
C65   C     C_R   0.111019 0.514216 0.277581 -0.220905
C66   C     C_R   0.177551 0.504650 0.262813 0.066802
C67   C     C_R   0.413532 0.371244 0.658140 -0.148975
C68   C     C_R   0.237883 0.496051 0.323076 -0.024494
C69   C     C_R   0.306737 0.489814 0.310726 -0.214459
C70   C     C_R   0.309516 0.482864 0.233643 0.401835
C71   C     C_R   0.260058 0.507224 0.184057 0.033346
C72   C     C_R   0.187500 0.507369 0.191699 -0.147956
C73   C     C_R   0.209242 0.283946 0.360237 -0.095847
C74   C     C_R   0.233017 0.265396 0.428823 0.051653
C75   C     C_3   0.288259 0.538284 0.127837 -0.653434
C76   C     C_3   0.512235 0.436648 0.818668 -0.831749
C77   C     C_R   0.425273 0.374460 0.737171 0.221136
C78   C     C_R   0.354771 0.321632 0.739686 -0.118449
Cu1   Cu    Cu3+1 0.061810 0.999990 0.561790 0.981167
Cu2   Cu    Cu3+1 0.938190 0.000010 0.438210 1.056245
Cu3   Cu    Cu3+1 0.499980 0.561850 0.561820 1.147448
Cu4   Cu    Cu3+1 0.500030 0.438250 0.438240 1.119662
Cu5   Cu    Cu3+1 0.061790 0.561800 0.999990 1.059148
Cu6   Cu    Cu3+1 0.938200 0.438200 0.000000 1.017303
H1    H     H_    0.361260 0.325878 0.800994 0.144682
H2    H     H_    0.871844 0.761956 0.221412 0.170744
H3    H     H_    0.177415 0.933328 0.458615 0.190513
H4    H     H_    0.299932 0.910911 0.485892 0.160715
H5    H     H_    0.288435 0.782250 0.379168 0.173021
H6    H     H_    0.152848 0.676435 0.242940 0.130089
H7    H     H_    0.869142 0.646623 0.110458 0.156771
H8    H     H_    0.595880 0.396362 0.682893 0.135748
H9    H     H_    0.919412 0.732533 0.725893 0.206343
H10   H     H_    0.018926 0.102042 0.208463 0.185611
H11   H     H_    0.000882 0.655508 0.733316 0.210181
H12   H     H_    0.829451 0.040939 0.567245 0.170228
H13   H     H_    0.706098 0.390706 0.791771 0.189657
H14   H     H_    0.265570 0.476116 0.435182 0.182999
H15   H     H_    0.047501 0.513597 0.354532 0.186055
H16   H     H_    0.067457 0.527889 0.237645 0.163692
H17   H     H_    0.109692 0.244945 0.234318 0.172832
H18   H     H_    0.252371 0.341321 0.364306 0.116148
H19   H     H_    0.468415 0.415242 0.658748 0.133752
H20   H     H_    0.222331 0.227040 0.670733 0.156788
H21   H     H_    0.134529 0.258972 0.761826 0.148847
H22   H     H_    0.519327 0.068427 0.563995 0.378482
H23   H     H_    0.693950 0.036929 0.548069 0.221428
H24   H     H_    0.945613 0.469638 0.500254 0.426969
H25   H     H_    0.197445 0.034839 0.380758 0.351675
H26   H     H_    0.496936 0.662144 0.356163 0.347560
H27   H     H_    0.853814 0.851034 0.868705 0.389587
H28   H     H_    0.103443 0.535022 0.816748 0.371192
H29   H     H_    0.368827 0.384013 0.071155 0.381840
H30   H     H_    0.184518 0.434027 0.571297 0.384462
H31   H     H_    0.293936 0.602347 0.144277 0.223375
H32   H     H_    0.354780 0.550775 0.141878 0.259541
H33   H     H_    0.241366 0.491243 0.057305 0.237869
H34   H     H_    0.831185 0.293283 0.763678 0.186590
H35   H     H_    0.510908 0.433288 0.876470 0.236316
H36   H     H_    0.562115 0.421395 0.810086 0.231650
H37   H     H_    0.531081 0.503390 0.831601 0.250607
H38   H     H_    0.134932 0.374278 0.871067 0.153388
H39   H     H_    0.739862 0.872761 0.496848 0.186531
H40   H     H_    0.932256 0.764062 0.468193 0.165378
H41   H     H_    0.944154 0.641436 0.467932 0.192071
H42   H     H_    0.731983 0.563949 0.516706 0.176463
O1    O     O_R   0.052180 0.090150 0.642360 -0.587624
O2    O     O_R   0.857610 0.447810 0.909840 -0.593984
O3    O     O_R   0.052190 0.462030 0.909810 -0.543959
O4    O     O_R   0.947790 0.090180 0.538000 -0.577751
O5    O     O_R   0.947820 0.357640 0.909820 -0.591727
O6    O     O_R   0.142370 0.552190 0.090140 -0.598268
O7    O     O_R   0.038000 0.447800 0.090150 -0.577897
O8    O     O_R   0.052170 0.642360 0.090160 -0.561930
O9    O     O_R   0.947800 0.537970 0.090170 -0.591704
O10   O     O_R   0.142370 0.090170 0.552180 -0.595251
O11   O     O_R   0.037980 0.090190 0.447820 -0.552653
O12   O     O_R   0.590200 0.447870 0.538030 -0.570880
O13   O     O_R   0.052210 0.909820 0.462000 -0.626684
O14   O     O_R   0.947820 0.909850 0.357640 -0.527492
O15   O     O_R   0.962020 0.909810 0.552180 -0.578491
O16   O     O_R   0.857630 0.909830 0.447820 -0.592802
O17   O     O_R   0.590160 0.552240 0.642380 -0.536815
O18   O     O_2   0.658377 0.197782 0.725774 -0.298171
O19   O     O_2   0.646187 0.221241 0.602236 -0.265310
O20   O     O_3   0.571481 0.063175 0.569798 -0.504381
O21   O     O_2   0.811892 0.475607 0.541265 -0.263138
O22   O     O_2   0.789630 0.431905 0.392993 -0.256159
O23   O     O_R   0.409810 0.462060 0.552200 -0.584793
O24   O     O_3   0.948754 0.526380 0.522200 -0.480626
O25   O     O_2   0.981958 0.961727 0.254745 -0.252849
O26   O     O_2   0.098594 0.996362 0.219750 -0.255584
O27   O     O_3   0.137019 0.003984 0.368907 -0.592734
O28   O     O_2   0.589765 0.792466 0.575119 -0.189182
O29   O     O_2   0.587982 0.835860 0.465919 -0.288504
O30   O     O_3   0.495252 0.673838 0.411257 -0.531398
O31   O     O_2   0.745882 0.739410 0.695682 -0.295100
O32   O     O_2   0.718907 0.688437 0.794228 -0.260299
O33   O     O_3   0.873262 0.808905 0.850785 -0.498805
O34   O     O_R   0.409850 0.357690 0.447850 -0.575525
O35   O     O_2   0.920876 0.419431 0.735133 -0.330014
O36   O     O_2   0.980943 0.490448 0.664996 -0.217507
O37   O     O_3   0.070767 0.563045 0.832964 -0.516370
O38   O     O_2   0.460138 0.492558 0.245311 -0.298706
O39   O     O_2   0.341167 0.350082 0.193356 -0.247216
O40   O     O_3   0.331690 0.406242 0.085808 -0.550701
O41   O     O_2   0.149859 0.560644 0.548412 -0.239522
O42   O     O_2   0.045076 0.407884 0.441982 -0.281988
O43   O     O_3   0.206407 0.451654 0.535043 -0.543327
O44   O     O_R   0.409800 0.552230 0.462030 -0.549651
O45   O     O_R   0.409840 0.447860 0.357670 -0.512787
O46   O     O_R   0.590160 0.642410 0.552210 -0.475991
O47   O     O_R   0.590200 0.538040 0.447850 -0.583923
O48   O     O_R   0.961980 0.552200 0.909830 -0.529708
S1    S     S_3+6 0.656153 0.164083 0.639344 0.019035
S2    S     S_3+6 0.844741 0.503541 0.486669 0.037569
S3    S     S_3+6 0.077588 0.018988 0.292636 0.010268
S4    S     S_3+6 0.587535 0.767142 0.488704 0.046070
S5    S     S_3+6 0.782826 0.718481 0.764576 0.021641
S6    S     S_3+6 0.970935 0.505208 0.744518 0.049694
S7    S     S_3+6 0.363336 0.432515 0.190842 0.011053
S8    S     S_3+6 0.137148 0.478410 0.483479 0.019277

loop_
_geom_bond_atom_site_label_1
_geom_bond_atom_site_label_2
_ccdc_geom_bond_type
Cu6   O2    S    
H30   O43   S    
Cu1   O13   S    
C42   O45   A    
C63   C65   A    
Cu6   O9    S    
C40   C52   A    
C12   C74   A    
C27   C29   A    
C43   O47   A    
C73   C74   A    
C48   O9    A    
O24   S2    S    
C35   C36   A    
C67   C77   A    
C46   O3    A    
C61   C68   A    
Cu3   Cu4   S    
Cu1   O15   S    
C67   H19   S    
C7    C8    A    
C14   C46   S    
C54   C60   A    
C77   C78   A    
C27   C33   A    
Cu5   O6    S    
Cu1   O10   S    
C37   C38   A    
C3    C9    A    
C76   H37   S    
C48   O8    A    
C36   C37   A    
C44   O48   A    
Cu5   O3    S    
C69   C70   A    
C16   C35   S    
C30   C31   A    
O25   S3    D    
O41   S8    D    
C41   O23   A    
C66   C68   A    
Cu2   O11   S    
C39   C57   S    
C18   C19   A    
O31   S5    D    
Cu3   O46   S    
O26   S3    D    
H27   O33   S    
Cu5   O8    S    
C63   H15   S    
O38   S7    D    
C42   O44   A    
C4    O11   A    
Cu4   O45   S    
O30   S4    S    
C66   C72   A    
O19   S1    D    
C45   C56   A    
C8    C9    A    
C29   H4    S    
C75   H33   S    
C11   H21   S    
C64   C73   A    
C52   H10   S    
C3    H12   S    
C32   C38   A    
C29   C30   A    
H25   O27   S    
C9    C10   A    
O36   S6    D    
O29   S4    D    
C4    O10   A    
C23   C34   A    
C39   O12   A    
C59   C60   A    
C22   C28   S    
C13   C14   A    
C47   O7    A    
C7    H34   S    
C16   O14   A    
O40   S7    S    
C30   H5    S    
C26   C43   S    
C50   C51   A    
C2    C45   A    
C64   H17   S    
O43   S8    S    
O27   S3    S    
Cu6   O7    S    
C76   H35   S    
Cu2   O4    S    
C15   H40   S    
C37   H7    S    
C24   C25   A    
C1    O4    A    
C52   C64   A    
H29   O40   S    
O21   S2    D    
C68   C69   A    
C36   H2    S    
C25   C26   A    
Cu2   O14   S    
C42   C69   S    
C40   S3    S    
C51   C53   A    
C12   C40   A    
O32   S5    D    
C62   C63   A    
C2    C78   A    
C62   S8    S    
C41   O34   A    
Cu4   O34   S    
C70   S7    S    
Cu5   Cu6   S    
Cu4   O47   S    
C2    H20   S    
C31   H6    S    
O20   S1    S    
C17   C18   A    
C34   C45   A    
C76   H36   S    
Cu3   O44   S    
C76   C77   S    
O35   S6    D    
C27   H3    S    
C12   C56   A    
H24   O24   S    
C78   H1    S    
C73   H18   S    
C39   O17   A    
C65   C66   A    
Cu2   O16   S    
O28   S4    D    
C59   H13   S    
C22   C24   A    
C16   O13   A    
C75   H31   S    
C23   C74   A    
O22   S2    D    
C53   S6    S    
C46   O5    A    
C70   C71   A    
C5    H23   S    
C15   C17   A    
H28   O37   S    
Cu1   O1    S    
C54   C55   A    
C44   O2    A    
C8    C14   A    
Cu6   O5    S    
C25   S4    S    
C38   C48   S    
C31   C32   A    
C1    C10   S    
C1    O1    A    
C65   H16   S    
O33   S5    S    
C3    C5    A    
C23   C41   S    
C34   C67   A    
C43   O46   A    
C50   H9    S    
C53   C54   A    
C6    C7    A    
C28   O15   A    
C19   H42   S    
O42   S8    D    
H22   O20   S    
C47   O6    A    
O39   S7    D    
C32   C33   A    
C19   C20   A    
C55   C57   A    
C58   C59   A    
C71   C72   A    
Cu4   O12   S    
C49   C55   A    
C71   C75   S    
C13   H38   S    
C11   C13   A    
C61   H14   S    
C17   H41   S    
C57   C58   A    
C5    C6    A    
C15   C21   A    
C20   C26   A    
C44   C60   S    
Cu3   O23   S    
O18   S1    D    
C33   C35   A    
C24   H39   S    
C61   C62   A    
C47   C72   S    
H26   O30   S    
C10   C11   A    
Cu1   Cu2   S    
Cu3   O17   S    
C28   O16   A    
C20   C21   A    
C49   C50   A    
C6    S1    S    
Cu5   O48   S    
O37   S6    S    
C75   H32   S    
C21   C22   A    
C58   H8    S    
C4    C56   S    
C51   H11   S    
C49   S5    S    
C18   S2    S    
