data_mof_unit_12969.cif
_audit_creation_date              2013-03-05T15:47:11-0500
_audit_creation_method            fapswitch 2.2
_symmetry_space_group_name_H-M    P1
_symmetry_Int_Tables_number       1
_space_group_crystal_system       triclinic
_cell_length_a                    18.700372
_cell_length_b                    19.100886
_cell_length_c                    19.238571
_cell_angle_alpha                 110.662385
_cell_angle_beta                  109.565886
_cell_angle_gamma                 109.365832
_cell_volume                      5210.91926073

loop_
_atom_site_label
_atom_site_type_symbol
_atom_site_description
_atom_site_fract_x
_atom_site_fract_y
_atom_site_fract_z
_atom_type_partial_charge
O1    O     O_R   0.410140 0.357660 0.448100 -0.568455
O2    O     O_R   0.409530 0.462000 0.551910 -0.600589
C1    C     C_R   0.379222 0.381444 0.498707 0.761671
O3    O     O_R   0.590960 0.447830 0.538760 -0.597606
O4    O     O_R   0.590350 0.552170 0.642570 -0.588760
C2    C     C_R   0.616951 0.497296 0.619325 0.808942
Cu1   Cu    Cu3+1 0.500360 0.438220 0.438540 1.008328
Cu2   Cu    Cu3+1 0.499640 0.561780 0.561460 0.972587
O5    O     O_R   0.590470 0.538000 0.448090 -0.564771
O6    O     O_R   0.589860 0.642340 0.551900 -0.592232
O7    O     O_R   0.409650 0.447830 0.357430 -0.548874
O8    O     O_R   0.409040 0.552170 0.461240 -0.598153
C3    C     C_R   0.619778 0.620497 0.501718 0.773848
C4    C     C_R   0.384800 0.503592 0.380770 0.787576
C5    C     C_3   0.719532 0.434057 0.653950 0.017664
H1    H     H_    0.666678 0.365380 0.616625 0.214271
C6    C     C_3   0.796155 0.446775 0.730379 -0.440049
H2    H     H_    0.789109 0.383286 0.719378 0.200222
H3    H     H_    0.859577 0.476723 0.733084 0.229441
H4    H     H_    0.787966 0.614958 0.723106 0.211249
C7    C     C_3   0.760276 0.589613 0.756625 -0.448347
C8    C     C_3   0.637268 0.458830 0.737477 0.088529
C9    C     C_3   0.681846 0.494000 0.689295 -0.003819
C10   C     C_3   0.804747 0.501926 0.817193 -0.188974
C11   C     C_3   0.833951 0.598201 0.833333 0.392280
C12   C     C_3   0.709154 0.453317 0.808794 0.536979
H5    H     H_    0.736559 0.633900 0.780241 0.186449
C13   C     C_R   0.364839 0.394562 0.653957 -0.283642
C14   C     C_R   0.380883 0.391656 0.729321 0.320121
C15   C     C_R   0.358795 0.311454 0.723236 -0.208530
C16   C     C_R   0.309415 0.234730 0.642188 0.131363
C17   C     C_R   0.272148 0.237942 0.566418 0.063212
C18   C     C_R   0.315383 0.317020 0.571859 -0.017116
C19   C     C_R   0.192272 0.168679 0.488019 -0.173967
C20   C     C_R   0.176358 0.168428 0.409331 0.087289
C21   C     C_R   0.233865 0.243467 0.414511 -0.013698
C22   C     C_R   0.306766 0.315182 0.495326 -0.113988
C23   C     C_R   0.108904 0.095199 0.324653 0.139447
C24   C     C_R   0.090073 0.103395 0.251995 -0.187683
C25   C     C_R   0.142336 0.179595 0.258534 0.334511
C26   C     C_R   0.215247 0.247895 0.339084 -0.258963
H6    H     H_    0.387557 0.457350 0.660383 0.219644
H7    H     H_    0.382655 0.308652 0.781290 0.208503
H8    H     H_    0.036654 0.047785 0.188826 0.194620
H9    H     H_    0.256226 0.305619 0.342437 0.177404
C27   C     C_R   0.213374 0.449711 0.357916 -0.178972
C28   C     C_R   0.135402 0.434409 0.358088 0.021161
C29   C     C_R   0.084827 0.464066 0.318689 0.409216
C30   C     C_R   0.109082 0.500334 0.271864 0.055067
C31   C     C_R   0.176107 0.495306 0.254095 0.031528
C32   C     C_R   0.236115 0.482621 0.308479 0.031412
C33   C     C_R   0.185222 0.500140 0.184320 -0.111158
C34   C     C_R   0.258127 0.498551 0.176875 0.012329
C35   C     C_R   0.332076 0.521119 0.250916 -0.009949
C36   C     C_R   0.318203 0.504395 0.313453 -0.083703
C37   C     C_R   0.260952 0.474582 0.099068 0.139636
C38   C     C_R   0.343112 0.502609 0.103036 0.032799
C39   C     C_R   0.420765 0.550290 0.183922 0.359108
C40   C     C_R   0.415444 0.558978 0.257706 0.022230
H10   H     H_    0.254644 0.432959 0.395148 0.149642
C41   C     C_R   0.627083 0.791553 0.539388 -0.162970
C42   C     C_R   0.633052 0.871951 0.559788 0.215212
C43   C     C_R   0.700512 0.935009 0.563058 -0.096812
C44   C     C_R   0.759413 0.916908 0.543014 -0.190676
C45   C     C_R   0.752969 0.834955 0.519654 0.104141
C46   C     C_R   0.688278 0.771843 0.521454 0.068110
C47   C     C_R   0.809721 0.814866 0.494262 -0.075220
C48   C     C_R   0.805538 0.734798 0.474736 -0.073884
C49   C     C_R   0.758726 0.684413 0.498777 0.025722
C50   C     C_R   0.689231 0.693152 0.507386 -0.131633
C51   C     C_R   0.852743 0.707156 0.438437 0.305609
C52   C     C_R   0.881087 0.652797 0.458053 0.065622
C53   C     C_R   0.846090 0.612990 0.497365 0.153356
C54   C     C_R   0.789624 0.633909 0.522673 0.155380
H11   H     H_    0.572792 0.746522 0.537622 0.176189
H12   H     H_    0.707141 0.998194 0.580126 0.147343
H13   H     H_    0.809951 0.968441 0.546287 0.139948
O9    O     O_R   0.945600 0.357690 0.907660 -0.580274
O10   O     O_R   0.049980 0.462000 0.907580 -0.583831
C55   C     C_R   0.997146 0.380348 0.879286 0.749319
O11   O     O_R   0.854480 0.447890 0.906670 -0.507897
O12   O     O_R   0.958860 0.552200 0.906600 -0.544045
C56   C     C_R   0.877073 0.503268 0.882984 0.838695
Cu3   Cu    Cu3+1 0.935530 0.438290 0.997340 1.079255
Cu4   Cu    Cu3+1 0.059130 0.561800 0.997250 1.039305
O13   O     O_R   0.944670 0.538090 0.087010 -0.581961
O14   O     O_R   0.049050 0.642400 0.086940 -0.579492
O15   O     O_R   0.035800 0.447890 0.088000 -0.570461
O16   O     O_R   0.140170 0.552200 0.087920 -0.589321
C57   C     C_R   0.000070 0.618691 0.118962 0.797287
C58   C     C_R   0.117521 0.501436 0.117677 0.771875
O17   O     O_R   0.948030 0.909890 0.357850 -0.598616
O18   O     O_R   0.052970 0.909860 0.462770 -0.585673
C59   C     C_R   0.003493 0.884726 0.381301 0.846804
O19   O     O_R   0.037700 0.090200 0.447550 -0.567539
O20   O     O_R   0.142640 0.090170 0.552470 -0.593378
C60   C     C_R   0.120148 0.111559 0.494392 0.768250
Cu5   Cu    Cu3+1 0.937870 0.000030 0.437890 1.011587
Cu6   Cu    Cu3+1 0.062130 0.000000 0.562130 0.983783
O21   O     O_R   0.947030 0.090160 0.537260 -0.573182
O22   O     O_R   0.051970 0.090130 0.642170 -0.581685
O23   O     O_R   0.857360 0.909860 0.447560 -0.553870
O24   O     O_R   0.962300 0.909830 0.552480 -0.577696
C61   C     C_R   0.000906 0.119858 0.617995 0.778387
C62   C     C_R   0.880426 0.881425 0.498319 0.828058
C63   C     C_R   0.977514 0.379377 0.724416 -0.207340
C64   C     C_R   0.985782 0.391703 0.660078 -0.228847
C65   C     C_R   0.018923 0.349828 0.616059 0.400919
C66   C     C_R   0.039991 0.291582 0.634918 0.071275
C67   C     C_R   0.012961 0.264999 0.686903 0.016023
C68   C     C_R   0.994776 0.318738 0.741361 0.042327
C69   C     C_R   0.001358 0.186840 0.685486 -0.114244
C70   C     C_R   0.982608 0.169122 0.745080 0.011630
C71   C     C_R   0.985393 0.233838 0.812267 0.027155
C72   C     C_R   0.992930 0.310124 0.810695 -0.117719
C73   C     C_R   0.961556 0.087909 0.739221 -0.289447
C74   C     C_R   0.951272 0.072829 0.802201 0.293475
C75   C     C_R   0.959387 0.139095 0.872195 0.278042
C76   C     C_R   0.977716 0.218534 0.877199 -0.286713
H14   H     H_    0.954009 0.415354 0.758327 0.162889
H15   H     H_    0.968904 0.436321 0.646558 0.194617
H16   H     H_    0.953487 0.034747 0.686031 0.190057
H17   H     H_    0.983670 0.266330 0.932574 0.212462
C77   C     C_R   0.169457 0.767078 0.273185 -0.153466
C78   C     C_R   0.249428 0.838964 0.344575 -0.119030
C79   C     C_R   0.250489 0.905537 0.406202 -0.116971
C80   C     C_R   0.171595 0.900796 0.396723 -0.163469
C81   C     C_R   0.089278 0.828377 0.325057 0.069355
C82   C     C_R   0.088057 0.760061 0.262061 0.082902
C83   C     C_R   0.008486 0.825040 0.311304 -0.137239
C84   C     C_R   0.929605 0.756894 0.231931 0.060758
C85   C     C_R   0.926544 0.679146 0.188734 0.021932
C86   C     C_R   0.005536 0.684722 0.192780 -0.186682
C87   C     C_R   0.851400 0.759083 0.197283 -0.141154
C88   C     C_R   0.770027 0.681929 0.136250 0.052426
C89   C     C_R   0.765254 0.601943 0.119931 0.449626
C90   C     C_R   0.845148 0.600668 0.148235 0.116419
H18   H     H_    0.173026 0.716778 0.228566 0.146159
H19   H     H_    0.310931 0.842868 0.352215 0.143328
H20   H     H_    0.312811 0.961671 0.461205 0.144340
H21   H     H_    0.176645 0.956067 0.444679 0.134831
H22   H     H_    0.852535 0.819715 0.213551 0.180125
C91   C     C_3   0.750103 0.439799 0.590146 -0.866978
H23   H     H_    0.806557 0.504559 0.619859 0.280728
H24   H     H_    0.773892 0.393456 0.574015 0.239099
H25   H     H_    0.697284 0.419990 0.527079 0.260969
N1    N     N_R   0.713857 0.493862 0.893236 0.100253
O25   O     O_R   0.643620 0.459639 0.897285 -0.287857
O26   O     O_R   0.788695 0.541335 0.965804 -0.428144
C92   C     C_3   0.846879 0.662580 0.919783 -0.745881
H26   H     H_    0.870087 0.728342 0.928443 0.246958
H27   H     H_    0.786955 0.645959 0.923705 0.223770
H28   H     H_    0.897948 0.668848 0.975885 0.255076
N2    N     N_R   0.123851 0.186097 0.182821 0.153894
O27   O     O_R   0.063282 0.118322 0.106216 -0.260788
O28   O     O_R   0.167962 0.259482 0.189581 -0.333509
N3    N     N_R   0.424511 0.470047 0.811926 0.122085
O29   O     O_R   0.444524 0.467502 0.882295 -0.332571
O30   O     O_R   0.442764 0.544398 0.817366 -0.359506
C93   C     C_3   0.317237 0.157677 0.638875 -0.743951
H29   H     H_    0.286700 0.104512 0.571371 0.218035
H30   H     H_    0.388099 0.177812 0.672341 0.233963
H31   H     H_    0.286953 0.133434 0.672414 0.245823
C94   C     C_3   0.064887 0.003995 0.304772 -0.808653
H32   H     H_    0.100607 0.999237 0.359675 0.189876
H33   H     H_    0.994893 0.981444 0.285665 0.254507
H34   H     H_    0.066866 0.960177 0.250016 0.229480
N4    N     N_R   0.505361 0.590159 0.191718 0.132649
O31   O     O_R   0.564306 0.571165 0.223605 -0.286994
O32   O     O_R   0.525775 0.650292 0.172854 -0.345380
C95   C     C_3   0.110382 0.389239 0.403468 -0.597449
H35   H     H_    0.041713 0.368776 0.388637 0.301697
H36   H     H_    0.114528 0.329342 0.381608 0.210136
H37   H     H_    0.156327 0.432997 0.474406 0.250276
N5    N     N_R   0.012371 0.462497 0.330297 0.106642
O33   O     O_R   0.024366 0.498864 0.407699 -0.353111
O34   O     O_R   0.935286 0.428285 0.263771 -0.358554
C96   C     C_3   0.074904 0.557563 0.257521 -0.774353
H38   H     H_    0.006391 0.515264 0.203116 0.276367
H39   H     H_    0.076554 0.599477 0.316078 0.238037
H40   H     H_    0.116073 0.602247 0.245015 0.181586
C97   C     C_3   0.179202 0.406631 0.012123 -0.767488
H41   H     H_    0.120534 0.379787 0.017066 0.213774
H42   H     H_    0.169727 0.434402 0.970502 0.239763
H43   H     H_    0.186105 0.350047 0.980941 0.234934
C98   C     C_3   0.347162 0.481380 0.021046 -0.650553
H44   H     H_    0.415133 0.505936 0.032670 0.295856
H45   H     H_    0.311420 0.409934 0.976452 0.221980
H46   H     H_    0.316797 0.510168 0.988350 0.233678
C99   C     C_3   0.498377 0.622208 0.343265 -0.768676
H47   H     H_    0.540620 0.593389 0.349892 0.264229
H48   H     H_    0.533403 0.683979 0.346446 0.250051
H49   H     H_    0.485409 0.639968 0.396817 0.190060
C100  C     C_3   0.864645 0.545293 0.509070 -0.764692
H50   H     H_    0.887564 0.516661 0.466475 0.273893
H51   H     H_    0.914711 0.573708 0.577302 0.252276
H52   H     H_    0.802547 0.489779 0.489642 0.233404
C101  C     C_3   0.567023 0.889664 0.578447 -0.835160
H53   H     H_    0.580173 0.955969 0.593614 0.240813
H54   H     H_    0.499633 0.841591 0.521207 0.227133
H55   H     H_    0.569854 0.883911 0.634640 0.252728
N6    N     N_R   0.854824 0.719323 0.369162 0.109825
O35   O     O_R   0.797478 0.734909 0.327068 -0.332045
O36   O     O_R   0.893682 0.690374 0.332099 -0.430589
C102  C     C_3   0.956059 0.646453 0.447848 -0.652192
H56   H     H_    0.997887 0.640685 0.499704 0.240546
H57   H     H_    0.929559 0.589642 0.383769 0.275108
H58   H     H_    0.002210 0.707137 0.455904 0.242375
C103  C     C_3   0.785985 0.627298 0.596521 -0.833321
H59   H     H_    0.730612 0.563282 0.570592 0.242436
H60   H     H_    0.849716 0.638793 0.641848 0.273144
H61   H     H_    0.776921 0.678521 0.635978 0.240949
N7    N     N_R   0.943834 0.125368 0.935932 0.174750
O37   O     O_R   0.880885 0.051069 0.912820 -0.269601
O38   O     O_R   0.982365 0.190780 0.014145 -0.282285
N8    N     N_R   0.031533 0.367230 0.552932 0.116267
O39   O     O_R   0.048245 0.442096 0.560269 -0.337052
O40   O     O_R   0.012738 0.304247 0.481416 -0.379943
C104  C     C_3   0.107111 0.276038 0.616090 -0.749897
H62   H     H_    0.076642 0.233388 0.546020 0.275338
H63   H     H_    0.163131 0.338822 0.637490 0.234919
H64   H     H_    0.136406 0.248729 0.651529 0.209009
N9    N     N_R   0.937707 0.991888 0.796531 0.156745
O41   O     O_R   0.980836 0.991391 0.865138 -0.250120
O42   O     O_R   0.892778 0.920367 0.721395 -0.364154
N10   N     N_R   0.681781 0.525293 0.082671 0.144780
O43   O     O_R   0.667622 0.447836 0.037522 -0.272118
O44   O     O_R   0.623038 0.532149 0.101828 -0.262834
C105  C     C_3   0.689915 0.687946 0.095316 -0.631249
H65   H     H_    0.634240 0.624867 0.036573 0.283780
H66   H     H_    0.669323 0.709825 0.142859 0.284401
H67   H     H_    0.705727 0.735626 0.074543 0.198212
C106  C     C_3   0.845902 0.529384 0.165248 -0.567604
H68   H     H_    0.912052 0.552485 0.216943 0.213378
H69   H     H_    0.801807 0.512296 0.190796 0.245950
H70   H     H_    0.823515 0.469816 0.105506 0.266365
N11   N     N_R   0.919670 0.639477 0.836855 0.172381
O45   O     O_R   0.924508 0.619359 0.767227 -0.406429
O46   O     O_R   0.991450 0.703161 0.909789 -0.303565
C107  C     C_3   0.603876 0.518189 0.779418 -0.685385
H71   H     H_    0.655173 0.585732 0.829974 0.212680
H72   H     H_    0.552729 0.520036 0.731827 0.242757
H73   H     H_    0.567473 0.491260 0.806896 0.281798
C108  C     C_3   0.549077 0.369263 0.670429 -0.730692
H74   H     H_    0.522618 0.341517 0.704279 0.265004
H75   H     H_    0.498142 0.377181 0.629649 0.199750
H76   H     H_    0.552501 0.319235 0.623199 0.240937
N12   N     N_R   0.681780 0.360530 0.783052 0.128138
O47   O     O_R   0.678276 0.335175 0.837080 -0.245051
O48   O     O_R   0.660306 0.301816 0.707539 -0.429986

loop_
_geom_bond_atom_site_label_1
_geom_bond_atom_site_label_2
_geom_bond_distance
_ccdc_geom_bond_type
C51   N6    1.441898 S    
C100  H51   1.109651 S    
C95   H35   1.107352 S    
C99   H47   1.101722 S    
C91   H25   1.102903 S    
C74   C75   1.404033 A    
C44   H13   1.079579 S    
C35   C36   1.429051 A    
Cu6   O24   1.973787 S    
N1    O25   1.301396 A    
O10   Cu4   1.975945 S    
C84   C87   1.411445 A    
C81   C82   1.420472 A    
C103  H61   1.110965 S    
C8    C108  1.567541 S    
C96   H38   1.099249 S    
O19   Cu5   1.973688 S    
O17   Cu5   1.978268 S    
C88   C89   1.411748 A    
N5    O34   1.300919 A    
C46   C50   1.437593 A    
N7    O37   1.301399 A    
C78   H19   1.082639 S    
Cu1   O7    1.995463 S    
C95   H36   1.110367 S    
C79   H20   1.082677 S    
C59   C83   1.480970 S    
C73   H16   1.078279 S    
N9    O42   1.301319 A    
C77   H18   1.078537 S    
C13   C14   1.404187 A    
N1    O26   1.298558 A    
C10   C56   1.496502 S    
C10   C12   1.638193 S    
C70   C71   1.409298 A    
C105  H67   1.110860 S    
O2    C1    1.287670 A    
C48   C51   1.416855 A    
C15   C16   1.398993 A    
O7    C4    1.297128 A    
O9    C55   1.287220 A    
C34   C37   1.427740 A    
C100  H52   1.107057 S    
C87   H22   1.078468 S    
C43   H12   1.083321 S    
C91   H23   1.096410 S    
Cu5   Cu6   2.719277 S    
O20   Cu6   1.990288 S    
C91   H24   1.112445 S    
O21   C61   1.304004 A    
C19   C60   1.501254 S    
C108  H74   1.111425 S    
O23   C62   1.297001 A    
Cu1   O5    1.980224 S    
C19   C20   1.439611 A    
C80   H21   1.078342 S    
C13   H6    1.075354 S    
O5    C3    1.322523 A    
C67   C68   1.406440 A    
C89   N10   1.445072 S    
C99   H49   1.100255 S    
C103  H60   1.106477 S    
C75   C76   1.399657 A    
C41   C46   1.424379 A    
N3    O29   1.301670 A    
C28   C29   1.402878 A    
C34   C35   1.406835 A    
N12   O48   1.300108 A    
C48   C49   1.390342 A    
C45   C47   1.413227 A    
C92   H28   1.110805 S    
C31   C33   1.438686 A    
C64   C65   1.394014 A    
O15   C58   1.293985 A    
C10   C11   1.610522 S    
C101  H53   1.110934 S    
C102  H56   1.109643 S    
C65   C66   1.415788 A    
O16   C58   1.314958 A    
C39   N4    1.437567 S    
C106  H68   1.103779 S    
O18   Cu6   1.977420 S    
N2    O28   1.301853 A    
C71   C76   1.420056 A    
O14   C57   1.312738 A    
C63   C68   1.412813 A    
C29   N5    1.437749 S    
C63   H14   1.080296 S    
C41   C42   1.398725 A    
C5    C9    1.605210 S    
C4    C36   1.474737 S    
C7    H5    1.109632 S    
N3    O30   1.301564 A    
N11   O45   1.300456 A    
C52   C53   1.409176 A    
C25   N2    1.440667 S    
C21   C26   1.414878 A    
C49   C50   1.418711 A    
C101  H55   1.110387 S    
O3    Cu1   1.994429 S    
N12   O47   1.303500 A    
C94   H34   1.111759 S    
O17   C59   1.296357 A    
C69   C70   1.419974 A    
O11   C56   1.295275 A    
C105  H65   1.109913 S    
C12   N12   1.502493 S    
C103  H59   1.095488 S    
C8    C107  1.577309 S    
C35   C40   1.421182 A    
C102  H57   1.110388 S    
C53   C54   1.413719 A    
C23   C24   1.401356 A    
C7    C9    1.563958 S    
C95   H37   1.110261 S    
C6    C10   1.546405 S    
N6    O35   1.301801 A    
C5    C91   1.539163 S    
C54   C103  1.491547 S    
C47   C48   1.407730 A    
C93   H31   1.110491 S    
N4    O31   1.300922 A    
Cu1   Cu2   2.695591 S    
C20   C23   1.430708 A    
Cu3   Cu4   2.701342 S    
C42   C101  1.502071 S    
N9    O41   1.301387 A    
O3    C2    1.299489 A    
O13   C57   1.291971 A    
C104  H62   1.099198 S    
C61   C69   1.461511 S    
C57   C86   1.473509 S    
Cu4   O16   2.003128 S    
C85   C86   1.418559 A    
C14   N3    1.440595 S    
C31   C32   1.409080 A    
C85   C90   1.428004 A    
Cu5   O23   1.990415 S    
C27   C32   1.412832 A    
O12   C56   1.306167 A    
C107  H73   1.099170 S    
C41   H11   1.071858 S    
O10   C55   1.312869 A    
C11   C92   1.557856 S    
O1    C1    1.314404 A    
C97   H43   1.109739 S    
C93   H30   1.110975 S    
C16   C93   1.508110 S    
C14   C15   1.397335 A    
C66   C104  1.506850 S    
C104  H63   1.111144 S    
C68   C72   1.410503 A    
C96   H39   1.111232 S    
N5    O33   1.301237 A    
C55   C72   1.468932 S    
C11   N11   1.499038 S    
Cu2   O8    1.994427 S    
O20   C60   1.309056 A    
H4    C7    1.093640 S    
C42   C43   1.389904 A    
C107  H72   1.101361 S    
C6    H2    1.107713 S    
N2    O27   1.301488 A    
C49   C54   1.407313 A    
O24   C62   1.306086 A    
O18   C59   1.321441 A    
N8    O39   1.301579 A    
C97   H41   1.098544 S    
C106  H69   1.110971 S    
C38   C98   1.518969 S    
C65   N8    1.437281 S    
N6    O36   1.295174 A    
C82   C86   1.422938 A    
Cu2   O6    1.983411 S    
C25   C26   1.393147 A    
Cu6   O22   1.978150 S    
O8    C4    1.303993 A    
C13   C18   1.416324 A    
N10   O43   1.301046 A    
O22   C61   1.303491 A    
N10   O44   1.300853 A    
N11   O46   1.304371 A    
C88   C105  1.505193 S    
C78   C79   1.388017 A    
C92   H27   1.095372 S    
C15   H7    1.083320 S    
C74   N9    1.438342 S    
C37   C38   1.414253 A    
C64   H15   1.083252 S    
C98   H45   1.109001 S    
C80   C81   1.415741 A    
C24   C25   1.390863 A    
O11   Cu3   2.003226 S    
C33   C34   1.426651 A    
C18   C22   1.412789 A    
C30   C96   1.495878 S    
C102  H58   1.110230 S    
C5    C6    1.542758 S    
C7    C11   1.555782 S    
C27   C28   1.390256 A    
C94   H32   1.097978 S    
C99   H48   1.111107 S    
C97   H42   1.104997 S    
C27   H10   1.079982 S    
C73   C74   1.397744 A    
O1    Cu1   1.983411 S    
C16   C17   1.423159 A    
O2    Cu2   1.980223 S    
C8    C9    1.609677 S    
Cu3   O15   1.986820 S    
N8    O40   1.300527 A    
C89   C90   1.420520 A    
C33   C58   1.484340 S    
O6    C3    1.285082 A    
C81   C83   1.418872 A    
O4    Cu2   1.995464 S    
C28   C95   1.504333 S    
O19   C60   1.322300 A    
C71   C72   1.428885 A    
C24   H8    1.084090 S    
C76   H17   1.071254 S    
O12   Cu4   1.986723 S    
C87   C88   1.400332 A    
Cu5   O21   1.977446 S    
C108  H76   1.099856 S    
C17   C18   1.402851 A    
C70   C73   1.419831 A    
C98   H46   1.110149 S    
C94   H33   1.107262 S    
C83   C84   1.420291 A    
C39   C40   1.411276 A    
N7    O38   1.301680 A    
C51   C52   1.417406 A    
C105  H66   1.110136 S    
C84   C85   1.392869 A    
C93   H29   1.109904 S    
C104  H64   1.107872 S    
C3    C50   1.492537 S    
C38   C39   1.403175 A    
O4    C2    1.307687 A    
C37   C97   1.502940 S    
C79   C80   1.391999 A    
C29   C30   1.415229 A    
C2    C9    1.518246 S    
C44   C45   1.417421 A    
N4    O32   1.301108 A    
C107  H71   1.095172 S    
C6    H3    1.106479 S    
C108  H75   1.106533 S    
C77   C82   1.416745 A    
C100  H50   1.108474 S    
C75   N7    1.439480 S    
C32   C36   1.410225 A    
C45   C46   1.417125 A    
C12   N1    1.489255 S    
C106  H70   1.108959 S    
C67   C69   1.424475 A    
C96   H40   1.101029 S    
C8    C12   1.631309 S    
C43   C44   1.387233 A    
O9    Cu3   1.979316 S    
Cu4   O14   1.979557 S    
C47   C62   1.454883 S    
C23   C94   1.492171 S    
C1    C22   1.479039 S    
C21   C22   1.411060 A    
C30   C31   1.428534 A    
C63   C64   1.386043 A    
C52   C102  1.516274 S    
C66   C67   1.428378 A    
C26   H9    1.078617 S    
C92   H26   1.111872 S    
Cu3   O13   1.976044 S    
C40   C99   1.489404 S    
C101  H54   1.110599 S    
C20   C21   1.423365 A    
C98   H44   1.107177 S    
C53   C100  1.514543 S    
C90   C106  1.511746 S    
C5    H1    1.101513 S    
C17   C19   1.424294 A    
C77   C78   1.392752 A    
