data_mof_unit_35692.cif
_audit_creation_date              2012-12-10T16:51:00-0500
_audit_creation_method            fapswitch 2.2
_symmetry_space_group_name_H-M    P1
_symmetry_Int_Tables_number       1
_space_group_crystal_system       triclinic
_cell_length_a                    7.900275
_cell_length_b                    8.658087
_cell_length_c                    10.787555
_cell_angle_alpha                 91.133077
_cell_angle_beta                  87.442318
_cell_angle_gamma                 92.173004
_cell_volume                      736.496424924

loop_
_atom_site_label
_atom_site_type_symbol
_atom_type_description
_atom_site_fract_x
_atom_site_fract_y
_atom_site_fract_z
_atom_type_partial_charge
C1    C     C_R   0.542987 0.793239 0.497127 0.945312
C2    C     C_R   0.911620 0.287173 0.044230 -0.166056
C3    C     C_R   0.011748 0.423565 0.019986 -0.160586
C4    C     C_R   0.911381 0.256655 0.915878 -0.140821
C5    C     C_R   0.152043 0.450519 0.093717 -0.127354
C6    C     C_R   0.757054 0.274635 0.859227 -0.119670
C7    C     C_R   0.321219 0.427895 0.050103 -0.000248
C8    C     C_R   0.628582 0.360620 0.921985 -0.020340
C9    C     C_R   0.334931 0.391876 0.922276 0.102322
C10   C     C_R   0.622787 0.373488 0.053488 0.101162
C11   C     C_R   0.476034 0.432527 0.120384 -0.210144
C12   C     C_R   0.455175 0.206447 0.501882 0.847179
C13   C     C_R   0.490575 0.407375 0.860649 -0.224071
C14   C     C_2   0.098421 0.451053 0.219647 0.976583
C15   C     C_2   0.718353 0.168192 0.755074 0.913101
C16   C     C_2   0.684101 0.998215 0.375911 0.942144
C17   C     C_2   0.280274 0.995029 0.600431 0.971485
C18   C     C_2   0.557394 0.953133 0.475703 -0.200298
C19   C     C_2   0.431942 0.045123 0.519222 -0.243122
C20   C     C_R   0.499100 0.470721 0.735261 0.894389
C21   C     C_R   0.492099 0.482358 0.257511 0.838938
C22   C     C_R   0.193348 0.340904 0.855673 -0.177363
C23   C     C_R   0.758485 0.310193 0.111432 -0.115959
C24   C     C_R   0.031796 0.378197 0.897156 -0.110504
H1    H     H_    0.208530 0.286430 0.764597 0.183286
H2    H     H_    0.509168 0.076651 0.844645 0.322580
H3    H     H_    0.930222 0.030084 0.322151 0.344737
H4    H     H_    0.186412 0.877218 0.749579 0.329128
H5    H     H_    0.750631 0.277247 0.207237 0.210564
H6    H     H_    0.992517 0.463796 0.832318 0.179156
H7    H     H_    0.977688 0.199155 0.092011 0.160462
H8    H     H_    0.980823 0.343939 0.468881 0.283014
H9    H     H_    0.999651 0.645986 0.561161 0.214052
H10   H     H_    0.962028 0.144044 0.890546 0.164905
H11   H     H_    0.939018 0.528713 0.029426 0.185479
H12   H     H_    0.181090 0.233137 0.240963 0.297515
N1    N     N_2   0.950330 0.457950 0.466250 -0.096458
N2    N     N_2   0.049670 0.542050 0.533750 -0.161036
O1    O     O_R   0.389250 0.738570 0.508280 -0.600053
O2    O     O_R   0.116742 0.316956 0.287578 -0.818407
O3    O     O_2   0.818913 0.158038 0.666432 -0.525011
O4    O     O_R   0.576573 0.067928 0.762768 -0.788586
O5    O     O_2   0.635932 0.025250 0.272786 -0.689306
O6    O     O_R   0.856967 0.000878 0.398250 -0.691377
O7    O     O_2   0.139264 0.035619 0.575949 -0.553375
O8    O     O_R   0.298436 0.902289 0.703471 -0.758077
O9    O     O_R   0.610750 0.261430 0.491720 -0.602528
O10   O     O_R   0.678390 0.711630 0.486650 -0.589612
O11   O     O_R   0.321610 0.288370 0.513350 -0.598614
O12   O     O_R   0.355430 0.513480 0.694040 -0.611433
O13   O     O_R   0.644570 0.486520 0.305960 -0.599440
O14   O     O_R   0.644570 0.486540 0.672410 -0.632406
O15   O     O_R   0.355430 0.513460 0.327590 -0.578779
O16   O     O_2   0.031227 0.566047 0.262850 -0.572441
Zn1   Zn    Zn3+2 0.306940 0.517990 0.514440 1.036174
Zn2   Zn    Zn3+2 0.693060 0.482010 0.485560 1.039808

loop_
_geom_bond_atom_site_label_1
_geom_bond_atom_site_label_2
_ccdc_geom_bond_type
C2    C4    A    
C5    C7    A    
C1    O10   A    
C12   O11   A    
C8    C13   A    
C10   C23   A    
C5    C14   S    
C16   O6    S    
H9    N2    S    
C3    H11   S    
C2    C3    A    
C1    C18   S    
C20   O14   A    
H8    N1    S    
C21   O15   A    
O9    Zn2   S    
C16   O5    D    
H4    O8    S    
C3    C24   A    
N1    N2    D    
O14   Zn2   S    
C12   O9    A    
C6    C8    A    
C23   H5    S    
C12   C19   S    
C8    C10   A    
C17   C19   S    
C17   O7    D    
C7    C11   A    
C4    H10   S    
O15   Zn1   S    
H2    O4    S    
C4    C24   A    
C22   C24   A    
C9    C22   A    
C24   H6    S    
C10   C11   A    
C1    O1    A    
C14   O2    S    
C7    C9    A    
C21   O13   A    
C17   O8    S    
C15   O3    D    
C16   C18   S    
C4    C6    A    
C2    C23   A    
O10   Zn2   S    
C9    C13   A    
C18   C19   D    
H12   O2    S    
C20   O12   A    
C13   C20   S    
C14   O16   D    
C6    C15   S    
O11   Zn1   S    
N1    Zn2   S    
H3    O6    S    
C11   C21   S    
O1    Zn1   S    
N2    Zn1   S    
O12   Zn1   S    
C15   O4    S    
C2    H7    S    
C3    C5    A    
C22   H1    S    
O13   Zn2   S    
