data_mof_unit_50726.cif
_audit_creation_date              2012-12-10T17:03:01-0500
_audit_creation_method            fapswitch 2.2
_symmetry_space_group_name_H-M    P1
_symmetry_Int_Tables_number       1
_space_group_crystal_system       triclinic
_cell_length_a                    9.905845
_cell_length_b                    11.108607
_cell_length_c                    13.358232
_cell_angle_alpha                 96.661255
_cell_angle_beta                  80.480377
_cell_angle_gamma                 110.927225
_cell_volume                      1351.4815065

loop_
_atom_site_label
_atom_site_type_symbol
_atom_type_description
_atom_site_fract_x
_atom_site_fract_y
_atom_site_fract_z
_atom_type_partial_charge
C1    C     C_R   0.557469 0.744215 0.503113 0.905909
C2    C     C_R   0.437546 0.427316 0.961843 0.027588
C3    C     C_R   0.479894 0.421722 0.855000 -0.040642
C4    C     C_R   0.546907 0.461919 0.027823 0.084704
C5    C     C_R   0.692255 0.475385 0.986507 0.011405
C6    C     C_R   0.726620 0.449216 0.883386 -0.282370
C7    C     C_R   0.620548 0.415355 0.818226 0.465839
C8    C     C_R   0.516328 0.481436 0.133677 -0.231600
C9    C     C_R   0.766978 0.514322 0.154534 0.399519
C10   C     C_R   0.374705 0.409749 0.789227 -0.124433
C11   C     C_2   0.585487 0.881726 0.508514 -0.390951
C12   C     C_R   0.420063 0.462972 0.685929 0.861810
C13   C     C_2   0.514624 0.935707 0.459461 0.407064
C14   C     C_2   0.420727 0.116087 0.479041 -0.314446
C15   C     C_2   0.525455 0.069502 0.491665 0.323887
C16   C     C_2   0.912653 0.474614 0.498921 0.562551
C17   C     C_2   0.063774 0.494015 0.520431 0.427760
C18   C     C_R   0.444469 0.254733 0.492317 0.829062
C19   C     C_R   0.577737 0.508806 0.308966 0.828843
C20   C     C_R   0.800855 0.504739 0.049458 -0.166271
C21   C     C_R   0.622990 0.503306 0.197965 -0.132342
C22   C     C_R   0.227958 0.343999 0.824726 0.461296
C23   C     C_R   0.183882 0.338428 0.929996 -0.239370
C24   C     C_R   0.286502 0.387958 0.997825 -0.186463
Cu1   Cu    Cu3+1 0.362000 0.479240 0.482530 1.098264
Cu2   Cu    Cu3+1 0.638000 0.520760 0.517470 1.090287
H1    H     H_    0.320763 0.052897 0.451059 0.191955
H2    H     H_    0.656423 0.938308 0.563682 0.167601
H3    H     H_    0.125060 0.412373 0.385391 0.166721
H4    H     H_    0.834873 0.447707 0.854251 0.183681
H5    H     H_    0.911595 0.513183 0.017212 0.166952
H6    H     H_    0.409216 0.479604 0.167635 0.184478
H7    H     H_    0.244457 0.381325 0.077522 0.158534
H8    H     H_    0.070026 0.293765 0.959661 0.146753
N1    N     N_2   0.845330 0.551960 0.543750 0.008639
N2    N     N_2   0.154690 0.448120 0.456210 -0.342069
O1    O     O_R   0.426290 0.668220 0.490680 -0.475932
O2    O     O_R   0.659360 0.703290 0.520190 -0.603316
O3    O     O_R   0.326580 0.473880 0.629020 -0.470001
O4    O     O_R   0.559660 0.508940 0.658530 -0.560725
O5    O     O_R   0.340640 0.296710 0.479810 -0.585824
O6    O     O_R   0.573710 0.331780 0.509320 -0.487132
O7    O     O_R   0.440340 0.491060 0.341470 -0.573701
O8    O     O_R   0.673420 0.526120 0.370980 -0.541146
O9    O     O_3   0.876452 0.532360 0.211933 -0.687438
H9    H     H_    0.843447 0.457003 0.254331 0.350936
S1    S     S_3+6 0.421375 0.855906 0.353814 0.016478
O10   O     O_2   0.494064 0.766798 0.294868 -0.300342
O11   O     O_2   0.265868 0.779513 0.392000 -0.251104
O12   O     O_3   0.423741 0.965438 0.275879 -0.549720
H10   H     H_    0.363437 0.914618 0.222973 0.384587
S2    S     S_3+6 0.096057 0.567193 0.647486 0.046557
O13   O     O_2   0.078166 0.462291 0.714074 -0.314427
O14   O     O_2   0.244144 0.669008 0.648407 -0.266791
O15   O     O_3   0.975997 0.635980 0.707525 -0.540053
H11   H     H_    0.008362 0.669098 0.774869 0.367770
O16   O     O_3   0.838888 0.369156 0.439554 -0.714647
H12   H     H_    0.891617 0.307052 0.428917 0.307770
O17   O     O_3   0.931382 0.676824 0.539625 -0.569800
H13   H     H_    0.873789 0.726221 0.580392 0.383497
O18   O     O_3   0.134582 0.273867 0.756080 -0.681649
H14   H     H_    0.037461 0.228842 0.793825 0.329719
O19   O     O_3   0.646133 0.358233 0.723095 -0.725579
H15   H     H_    0.748490 0.360379 0.709666 0.344571
O20   O     O_3   0.643658 0.143554 0.539822 -0.702425
H16   H     H_    0.602162 0.168301 0.608258 0.359722

loop_
_geom_bond_atom_site_label_1
_geom_bond_atom_site_label_2
_ccdc_geom_bond_type
C12   O4    A    
C2    C4    A    
C23   C24   A    
C9    O9    S    
C6    C7    A    
C17   N2    D    
C14   H1    S    
C19   O7    A    
C14   C18   S    
C9    C20   A    
S1    O10   D    
C1    C11   S    
S2    O15   S    
C1    O1    A    
C4    C8    A    
C23   H8    S    
Cu2   O4    S    
Cu1   O7    S    
C12   O3    A    
C13   C15   S    
C8    C21   A    
Cu2   O8    S    
O17   H13   S    
S1    O11   D    
C3    C10   A    
O9    H9    S    
Cu1   O3    S    
C22   O18   S    
C11   C13   D    
H3    N2    S    
C9    C21   A    
O16   H12   S    
O18   H14   S    
C10   C12   S    
C1    O2    A    
C11   H2    S    
C17   S2    S    
C19   C21   S    
S2    O14   D    
C2    C3    A    
S1    O12   S    
C3    C7    A    
C16   O16   S    
C18   O6    A    
C16   N1    D    
C2    C24   A    
C5    C6    A    
C15   O20   S    
O15   H11   S    
C16   C17   S    
Cu1   N2    S    
O19   H15   S    
C8    H6    S    
Cu2   N1    S    
C19   O8    A    
Cu2   O6    S    
N1    O17   S    
O20   H16   S    
C7    O19   S    
C18   O5    A    
Cu1   O5    S    
C5    C20   A    
C14   C15   D    
Cu2   O2    S    
O12   H10   S    
Cu1   Cu2   S    
C22   C23   A    
C13   S1    S    
C6    H4    S    
C10   C22   A    
C24   H7    S    
S2    O13   D    
C4    C5    A    
C20   H5    S    
Cu1   O1    S    
