data_mof_unit_20257.cif
_audit_creation_date              2012-10-26T20:34:02-0400
_audit_creation_method            fapswitch 2.2
_symmetry_space_group_name_H-M    P1
_symmetry_Int_Tables_number       1
_space_group_crystal_system       triclinic
_cell_length_a                    15.974572
_cell_length_b                    9.107623
_cell_length_c                    8.114677
_cell_angle_alpha                 90.080991
_cell_angle_beta                  90.089087
_cell_angle_gamma                 91.338652
_cell_volume                      1180.28255206

loop_
_atom_site_label
_atom_site_type_symbol
_atom_type_description
_atom_site_fract_x
_atom_site_fract_y
_atom_site_fract_z
_atom_type_partial_charge
C1    C     C_R   0.500864 0.221219 0.499856 0.546145
C2    C     C_3   0.048816 0.415042 0.330143 -0.114940
C3    C     C_3   0.945396 0.394417 0.663520 -0.174990
C4    C     C_3   0.946306 0.408918 0.332133 -0.091107
C5    C     C_1   0.748663 0.495749 0.499940 0.089614
C6    C     C_1   0.251240 0.502192 0.499676 0.049769
C7    C     C_3   0.083373 0.492140 0.498466 -0.124721
C8    C     C_3   0.916458 0.493889 0.497351 -0.080742
C9    C     C_3   0.957854 0.660474 0.502354 0.790955
C10   C     C_3   0.055414 0.658376 0.500547 0.781245
C11   C     C_2   0.918703 0.217172 0.697449 0.317282
C12   C     C_1   0.823839 0.497237 0.498777 0.082492
C13   C     C_2   0.912401 0.246475 0.319970 0.227529
C14   C     C_2   0.086265 0.254522 0.676606 0.197455
C15   C     C_2   0.089938 0.265474 0.302715 0.138540
C16   C     C_2   0.082138 0.497846 0.181387 0.329542
C17   C     C_2   0.081435 0.495143 0.812291 0.336953
C18   C     C_2   0.900926 0.475232 0.183111 0.338282
C19   C     C_2   0.899420 0.460992 0.813668 0.303046
C20   C     C_1   0.175998 0.496417 0.499436 0.005305
C21   C     C_R   0.340635 0.507673 0.499889 0.539801
C22   C     C_R   0.659355 0.493252 0.500092 0.548030
C23   C     C_1   0.499630 0.934370 0.500151 0.007492
C24   C     C_1   0.500344 0.065644 0.499851 0.005802
C25   C     C_R   0.499109 0.778793 0.500146 0.551284
C26   C     C_3   0.048281 0.409147 0.663871 -0.110935
Cu1   Cu    Cu3+1 0.500000 0.500010 0.669080 1.105638
Cu2   Cu    Cu3+1 0.500000 0.500010 0.330920 1.103630
F1    F     F_    0.089681 0.741293 0.627811 -0.486243
F2    F     F_    0.088823 0.740867 0.372740 -0.486445
F3    F     F_    0.933352 0.743475 0.634726 -0.454063
F4    F     F_    0.932602 0.748370 0.374897 -0.465673
H1    H     H_    0.911494 0.272002 0.595759 0.102821
H2    H     H_    0.950808 0.153716 0.355475 0.210301
H3    H     H_    0.066135 0.169160 0.590399 0.151989
H4    H     H_    0.141604 0.229751 0.380261 0.143566
H5    H     H_    0.132619 0.454317 0.104056 0.104929
H6    H     H_    0.139130 0.465893 0.878647 0.130908
H7    H     H_    0.859103 0.406010 0.111078 0.129887
H8    H     H_    0.859081 0.392610 0.890108 0.128086
N1    N     N_1   0.500000 0.499970 0.076820 -0.065564
N2    N     N_1   0.500000 0.499970 0.923180 -0.065388
O1    O     O_R   0.500000 0.288400 0.642760 -0.492265
O2    O     O_2   0.837294 0.218003 0.299130 -0.464986
O3    O     O_2   0.132427 0.216406 0.791013 -0.424085
O4    O     O_2   0.071940 0.188991 0.182537 -0.403095
O5    O     O_2   0.052935 0.614812 0.141543 -0.277913
O6    O     O_2   0.049298 0.610393 0.852693 -0.279839
O7    O     O_2   0.896327 0.606526 0.152629 -0.286329
O8    O     O_2   0.895794 0.591670 0.845625 -0.293956
O9    O     O_R   0.500000 0.288400 0.357240 -0.492964
O10   O     O_R   0.379440 0.500020 0.642850 -0.492733
O11   O     O_R   0.379440 0.500020 0.357150 -0.499635
O12   O     O_R   0.620560 0.500020 0.642850 -0.489880
O13   O     O_R   0.620560 0.500020 0.357150 -0.485089
O14   O     O_R   0.500000 0.711620 0.642810 -0.489400
O15   O     O_R   0.500000 0.711620 0.357190 -0.489522
O16   O     O_2   0.853518 0.168722 0.764979 -0.415813

loop_
_geom_bond_atom_site_label_1
_geom_bond_atom_site_label_2
_ccdc_geom_bond_type
C7    C10   S    
C2    C4    S    
Cu2   O11   S    
C25   O14   A    
C3    C19   S    
C22   O13   A    
Cu1   O1    S    
C11   O16   D    
C2    C16   S    
C9    C10   S    
C10   F2    S    
C2    C7    S    
C19   O8    D    
C17   O6    D    
C8    C12   S    
C16   H5    S    
C4    C8    S    
C4    C18   S    
C21   O10   A    
Cu1   O12   S    
C13   H2    S    
C22   O12   A    
Cu2   O15   S    
C14   C26   S    
C21   O11   A    
C2    C15   S    
C1    O9    A    
Cu1   N2    S    
C7    C26   S    
C25   O15   A    
C1    C24   S    
C17   C26   S    
C16   O5    D    
Cu2   O13   S    
C1    O1    A    
C7    C20   S    
C14   O3    D    
C17   H6    S    
C23   C25   S    
C13   O2    D    
Cu2   O9    S    
C9    F4    S    
C3    C11   S    
C19   H8    S    
C9    F3    S    
C23   C24   T    
C10   F1    S    
Cu2   N1    S    
C11   H1    S    
C6    C20   T    
Cu1   O10   S    
C5    C12   T    
C3    C8    S    
N1    N2    T    
C4    C13   S    
C18   H7    S    
Cu1   O14   S    
C15   O4    D    
C15   H4    S    
C6    C21   S    
C14   H3    S    
C3    C26   S    
C5    C22   S    
C18   O7    D    
C8    C9    S    
Cu1   Cu2   S    
