data_mof_unit_41281.cif
_audit_creation_date              2012-12-10T17:51:23-0500
_audit_creation_method            fapswitch 2.2
_symmetry_space_group_name_H-M    P1
_symmetry_Int_Tables_number       1
_space_group_crystal_system       triclinic
_cell_length_a                    14.675711
_cell_length_b                    14.836504
_cell_length_c                    17.352784
_cell_angle_alpha                 105.91701
_cell_angle_beta                  72.93324
_cell_angle_gamma                 115.038847
_cell_volume                      3223.02723198

loop_
_atom_site_label
_atom_site_type_symbol
_atom_type_description
_atom_site_fract_x
_atom_site_fract_y
_atom_site_fract_z
_atom_type_partial_charge
C1    C     C_R   0.119393 0.687844 0.513548 0.800440
C2    C     C_R   0.880831 0.312165 0.486295 0.828690
C3    C     C_R   0.187278 0.794888 0.528776 -0.094986
C4    C     C_R   0.812488 0.205590 0.486710 -0.048731
C5    C     C_R   0.208139 0.967730 0.593248 -0.203187
C6    C     C_R   0.786232 0.035517 0.494561 -0.198678
C7    C     C_R   0.144812 0.867412 0.573042 -0.226928
C8    C     C_R   0.851651 0.134719 0.487875 -0.250113
C9    C     C_R   0.295471 0.824615 0.504433 0.078277
C10   C     C_R   0.706231 0.176318 0.492538 0.101534
C11   C     C_R   0.359020 0.922129 0.536075 0.087644
C12   C     C_R   0.638274 0.080477 0.512689 0.045170
C13   C     C_R   0.314904 0.995762 0.574879 0.120276
C14   C     C_R   0.679970 0.007617 0.506447 0.134788
C15   C     C_R   0.466118 0.949810 0.527768 0.089260
C16   C     C_R   0.530178 0.053187 0.535788 0.044843
C17   C     C_R   0.484443 0.125198 0.574191 -0.230397
C18   C     C_R   0.509701 0.878382 0.519862 -0.174098
C19   C     C_R   0.378201 0.096422 0.595223 -0.215081
C20   C     C_R   0.614879 0.907639 0.512000 -0.229335
C21   C     C_R   0.297544 0.332586 0.360797 -0.318292
C22   C     C_R   0.703149 0.668386 0.638531 -0.323805
C23   C     C_R   0.990376 0.504698 0.652675 0.791566
C24   C     C_R   0.009641 0.495329 0.347327 0.795144
C25   C     C_R   0.213031 0.360907 0.383114 0.074580
C26   C     C_R   0.786793 0.638829 0.617123 0.073365
C27   C     C_R   0.285541 0.490078 0.488313 -0.008624
C28   C     C_R   0.715580 0.511581 0.510478 -0.008802
C29   C     C_R   0.374382 0.465528 0.468324 -0.019672
C30   C     C_R   0.627300 0.536923 0.529879 -0.023048
C31   C     C_R   0.378191 0.384235 0.403261 0.167137
C32   C     C_R   0.623360 0.618001 0.595111 0.168004
C33   C     C_R   0.458313 0.517476 0.510474 0.081050
C34   C     C_R   0.543882 0.485687 0.487169 0.076105
C35   C     C_R   0.542832 0.403509 0.422328 -0.243089
C36   C     C_R   0.459701 0.600092 0.574954 -0.246323
C37   C     C_R   0.461921 0.354437 0.381224 -0.195738
C38   C     C_R   0.540353 0.648790 0.616367 -0.208090
C39   C     C_R   0.988543 0.511755 0.738666 -0.028381
C40   C     C_R   0.011512 0.488317 0.261337 -0.029780
C41   C     C_R   0.069757 0.504389 0.760188 -0.206256
C42   C     C_R   0.930218 0.495502 0.239786 -0.200072
C43   C     C_R   0.068842 0.511192 0.841677 -0.148603
C44   C     C_R   0.931173 0.488731 0.158292 -0.147624
C45   C     C_R   0.985937 0.524184 0.902727 0.191971
C46   C     C_R   0.014184 0.475934 0.097273 0.191193
C47   C     C_R   0.906389 0.534729 0.881671 -0.170161
C48   C     C_R   0.093822 0.465583 0.118357 -0.169465
C49   C     C_R   0.907345 0.528155 0.799952 -0.196501
C50   C     C_R   0.092838 0.472146 0.200078 -0.197460
C51   C     C_2   0.980491 0.526794 0.988825 -0.229657
C52   C     C_2   0.019637 0.473316 0.011176 -0.229941
Cu1   Cu    Cu3+1 0.916740 0.524770 0.521640 0.941915
Cu2   Cu    Cu3+1 0.083260 0.475230 0.478360 0.931196
H1    H     H_    0.134435 0.493968 0.714199 0.152381
H2    H     H_    0.865448 0.505747 0.285755 0.153259
H3    H     H_    0.529667 0.202894 0.594430 0.152506
H4    H     H_    0.462616 0.800794 0.525931 0.154299
H5    H     H_    0.464752 0.291873 0.331718 0.141814
H6    H     H_    0.537704 0.711577 0.665690 0.142281
H7    H     H_    0.726750 0.453239 0.460413 0.136137
H8    H     H_    0.274991 0.549322 0.537747 0.120168
H9    H     H_    0.848704 0.677967 0.650261 0.121703
H10   H     H_    0.150526 0.320897 0.350649 0.126343
H11   H     H_    0.299662 0.270365 0.310822 0.137409
H12   H     H_    0.700989 0.730498 0.688603 0.136402
H13   H     H_    0.603624 0.374676 0.401639 0.141000
H14   H     H_    0.399313 0.629463 0.595157 0.127776
H15   H     H_    0.155912 0.465324 0.215237 0.152994
H16   H     H_    0.844346 0.535144 0.784820 0.152439
H17   H     H_    0.059379 0.428493 0.965477 0.145428
H18   H     H_    0.940750 0.571612 0.034536 0.146331
H19   H     H_    0.842567 0.545991 0.928345 0.124737
H20   H     H_    0.157731 0.454483 0.071703 0.124288
H21   H     H_    0.866480 0.492614 0.143345 0.125659
H22   H     H_    0.133488 0.507175 0.856588 0.124649
H23   H     H_    0.345589 0.153355 0.626428 0.145493
H24   H     H_    0.645486 0.851388 0.508521 0.151783
H25   H     H_    0.933141 0.155723 0.482842 0.168135
H26   H     H_    0.062371 0.846795 0.591632 0.161242
H27   H     H_    0.173543 0.023029 0.624957 0.140232
H28   H     H_    0.818569 0.981031 0.492137 0.143022
N1    N     N_R   0.208390 0.438070 0.445820 -0.177824
N2    N     N_R   0.791610 0.561930 0.554180 -0.177904
O1    O     O_R   0.020090 0.662480 0.528530 -0.585155
O2    O     O_R   0.979910 0.337520 0.471470 -0.595959
O3    O     O_R   0.160710 0.620650 0.491980 -0.595771
O4    O     O_R   0.839290 0.379350 0.508020 -0.568685
O5    O     O_R   0.921540 0.523360 0.633990 -0.592159
O6    O     O_R   0.078460 0.476640 0.366010 -0.591585
O7    O     O_R   0.062170 0.481520 0.597440 -0.588812
O8    O     O_R   0.937830 0.518480 0.402560 -0.586940
N3    N     N_3   0.672484 0.235512 0.461927 -0.605112
H29   H     H_    0.611541 0.189114 0.432281 0.227459
H30   H     H_    0.650678 0.287583 0.509616 0.223314
N4    N     N_3   0.341322 0.764099 0.438097 -0.594957
H31   H     H_    0.303008 0.740191 0.389655 0.231685
H32   H     H_    0.337203 0.701458 0.457280 0.235263

loop_
_geom_bond_atom_site_label_1
_geom_bond_atom_site_label_2
_ccdc_geom_bond_type
C1    O3    A    
C15   C18   A    
N3    H29   S    
C6    H28   S    
C46   C52   S    
C28   N2    A    
C4    C8    A    
C39   C41   A    
Cu1   Cu2   S    
C21   C31   A    
C22   C32   A    
Cu1   N2    S    
C35   C37   A    
C50   H15   S    
Cu2   O6    S    
C3    C7    A    
Cu2   O3    S    
C23   C39   S    
C27   C29   A    
C45   C51   S    
C15   C16   A    
C29   C33   A    
C33   C36   A    
C34   C35   A    
C19   H23   S    
C22   H12   S    
C42   H2    S    
C11   C15   A    
C18   H4    S    
C41   H1    S    
C12   C16   A    
C16   C17   A    
N4    H32   S    
C8    H25   S    
C23   O5    A    
C2    O4    A    
C32   C38   A    
C5    C13   A    
C28   H7    S    
C40   C42   A    
N3    H30   S    
C41   C43   A    
C42   C44   A    
C24   O8    A    
Cu2   N1    S    
C44   C46   A    
C45   C47   A    
C1    O1    A    
C46   C48   A    
C30   C34   A    
C51   C52   D    
C48   H20   S    
C47   H19   S    
C47   C49   A    
Cu2   O2    S    
C13   C19   A    
C17   C19   A    
C6    C8    A    
C10   N3    S    
C31   C37   A    
C1    C3    S    
C25   H10   S    
C44   H21   S    
C2    C4    S    
C26   H9    S    
C3    C9    A    
C27   H8    S    
C14   C20   A    
C6    C14   A    
C5    H27   S    
C35   H13   S    
N4    H31   S    
Cu1   O8    S    
C33   C34   A    
C9    C11   A    
C9    N4    S    
C37   H5    S    
C10   C12   A    
C38   H6    S    
C39   C49   A    
C12   C14   A    
C49   H16   S    
Cu1   O5    S    
C23   O7    A    
C51   H18   S    
C4    C10   A    
C5    C7    A    
C43   H22   S    
C21   C25   A    
C26   N2    A    
C21   H11   S    
C24   O6    A    
C36   H14   S    
C20   H24   S    
C36   C38   A    
Cu2   O7    S    
C43   C45   A    
C52   H17   S    
C30   C32   A    
C11   C13   A    
C40   C50   A    
C48   C50   A    
C24   C40   S    
C28   C30   A    
C2    O2    A    
Cu1   O4    S    
C18   C20   A    
C27   N1    A    
C29   C31   A    
C22   C26   A    
C25   N1    A    
Cu1   O1    S    
C17   H3    S    
C7    H26   S    
