data_mof_unit_31714.cif
_audit_creation_date              2012-10-26T19:42:41-0400
_audit_creation_method            fapswitch 2.2
_symmetry_space_group_name_H-M    P1
_symmetry_Int_Tables_number       1
_space_group_crystal_system       triclinic
_cell_length_a                    19.354542
_cell_length_b                    10.800839
_cell_length_c                    9.634218
_cell_angle_alpha                 89.950864
_cell_angle_beta                  89.804018
_cell_angle_gamma                 93.379483
_cell_volume                      2010.47269927

loop_
_atom_site_label
_atom_site_type_symbol
_atom_type_description
_atom_site_fract_x
_atom_site_fract_y
_atom_site_fract_z
_atom_type_partial_charge
C1    C     C_R   0.498796 0.262833 0.499976 0.572720
C2    C     C_R   0.853851 0.503586 0.499842 0.034942
C3    C     C_R   0.382056 0.122378 0.623225 -0.151802
C4    C     C_R   0.367555 0.497877 0.500163 0.574704
C5    C     C_R   0.326901 0.055440 0.685976 -0.113710
C6    C     C_R   0.325410 0.926865 0.689307 0.441353
C7    C     C_R   0.378967 0.864019 0.629364 0.419152
C8    C     C_R   0.436505 0.929970 0.566165 -0.046754
C9    C     C_R   0.437855 0.061407 0.564378 -0.099487
C10   C     C_R   0.493973 0.128745 0.499764 0.033764
C11   C     C_R   0.546219 0.067897 0.432711 0.356304
C12   C     C_R   0.291519 0.497341 0.500441 0.037611
C13   C     C_R   0.544945 0.940056 0.433302 -0.111890
C14   C     C_R   0.491733 0.870550 0.500718 -0.046409
C15   C     C_R   0.596097 0.670266 0.135840 0.401232
C16   C     C_R   0.496575 0.736897 0.500199 0.621677
C17   C     C_R   0.640393 0.748530 0.057583 -0.092238
C18   C     C_R   0.638476 0.745704 0.915940 -0.226032
C19   C     C_R   0.592093 0.664209 0.850199 -0.103975
C20   C     C_R   0.545667 0.581268 0.923367 0.058201
C21   C     C_R   0.546441 0.582370 0.073141 0.131631
C22   C     C_R   0.456458 0.423141 0.074325 0.034209
C23   C     C_R   0.930006 0.503106 0.500045 0.349997
C24   C     C_R   0.456409 0.423112 0.926863 0.492343
C25   C     C_R   0.632399 0.500415 0.499829 0.580500
C26   C     C_R   0.254707 0.497398 0.626255 -0.062919
C27   C     C_R   0.182740 0.498401 0.626328 -0.092604
C28   C     C_R   0.146223 0.499165 0.500573 0.032851
C29   C     C_R   0.183121 0.498572 0.374801 -0.106909
C30   C     C_R   0.255058 0.497668 0.374743 -0.124769
C31   C     C_R   0.070106 0.500652 0.500451 0.353467
C32   C     C_R   0.816921 0.505126 0.625536 -0.110767
C33   C     C_R   0.744924 0.504324 0.625452 -0.132833
C34   C     C_R   0.708441 0.501869 0.499670 0.034651
C35   C     C_R   0.745285 0.501041 0.373937 -0.090783
C36   C     C_R   0.817310 0.501865 0.374022 -0.111562
Cu1   Cu    Cu3+1 0.500000 0.499990 0.640660 1.071840
Cu2   Cu    Cu3+1 0.500000 0.500010 0.359340 1.055607
F1    F     F_    0.270862 0.862166 0.748865 -0.582921
F2    F     F_    0.372254 0.739045 0.631302 -0.605219
F3    F     F_    0.606452 0.689015 0.271034 -0.647929
F4    F     F_    0.411284 0.343907 0.859358 -0.642913
F5    F     F_    0.599780 0.132895 0.369602 -0.617205
H1    H     H_    0.281434 0.497072 0.724827 0.184053
H2    H     H_    0.156540 0.499036 0.276110 0.151853
H3    H     H_    0.282028 0.497520 0.276064 0.143554
H4    H     H_    0.843524 0.506713 0.724259 0.145687
H5    H     H_    0.717938 0.505491 0.724077 0.136154
H6    H     H_    0.718557 0.499510 0.275307 0.155574
H7    H     H_    0.844240 0.500830 0.275374 0.144041
H8    H     H_    0.379694 0.222049 0.619336 0.180831
H9    H     H_    0.284701 0.103652 0.730729 0.164025
H10   H     H_    0.586949 0.895064 0.383478 0.198369
H11   H     H_    0.420669 0.359985 0.129659 0.136802
H12   H     H_    0.677007 0.813200 0.108456 0.166993
H13   H     H_    0.673235 0.807486 0.856110 0.143114
H14   H     H_    0.595481 0.671381 0.741092 0.193904
H15   H     H_    0.155833 0.498718 0.725033 0.153182
N1    N     N_R   0.034642 0.500583 0.379156 -0.216949
N2    N     N_R   0.965975 0.501753 0.378951 -0.218031
N3    N     N_R   0.965471 0.503287 0.621350 -0.218114
N4    N     N_R   0.034143 0.502101 0.621555 -0.213155
N5    N     N_R   0.500660 0.501210 0.147910 -0.279075
N6    N     N_R   0.500680 0.501290 0.852040 -0.227000
O1    O     O_R   0.499990 0.319640 0.618810 -0.470925
O2    O     O_R   0.500000 0.319660 0.381240 -0.482554
O3    O     O_R   0.400140 0.499970 0.618820 -0.417950
O4    O     O_R   0.400150 0.500000 0.381250 -0.534806
O5    O     O_R   0.500000 0.680340 0.618760 -0.487134
O6    O     O_R   0.500010 0.680360 0.381190 -0.427266
O7    O     O_R   0.599850 0.500000 0.618750 -0.553324
O8    O     O_R   0.599860 0.500030 0.381180 -0.418977

loop_
_geom_bond_atom_site_label_1
_geom_bond_atom_site_label_2
_ccdc_geom_bond_type
C20   N6    A    
C4    O3    A    
C1    O1    A    
C7    F2    S    
Cu2   O6    S    
C5    H9    S    
C11   F5    S    
C6    C7    A    
C3    C9    A    
Cu1   O5    S    
C4    C12   S    
C24   F4    S    
C9    C10   A    
C17   H12   S    
C35   C36   A    
C18   H13   S    
C25   C34   S    
C32   C33   A    
N3    N4    A    
C19   C20   A    
C17   C18   A    
Cu2   O8    S    
C26   H1    S    
N1    N2    A    
C24   N6    A    
C25   O8    A    
C13   C14   A    
C19   H14   S    
C23   N2    A    
C11   C13   A    
C31   N4    A    
C26   C27   A    
C29   C30   A    
C15   C21   A    
C25   O7    A    
C35   H6    S    
Cu1   O3    S    
C22   C24   A    
C28   C29   A    
C33   C34   A    
Cu1   Cu2   S    
Cu2   O4    S    
C1    O2    A    
C13   H10   S    
C22   H11   S    
Cu1   O7    S    
C5    C6    A    
C34   C35   A    
C32   H4    S    
C14   C16   S    
C21   N5    A    
C7    C8    A    
C10   C11   A    
C1    C10   S    
C2    C36   A    
C23   N3    A    
Cu1   N6    S    
C36   H7    S    
C20   C21   A    
C15   F3    S    
C2    C23   S    
C2    C32   A    
Cu2   N5    S    
C31   N1    A    
C27   C28   A    
C15   C17   A    
C33   H5    S    
C3    H8    S    
C6    F1    S    
C18   C19   A    
C8    C14   A    
C16   O6    A    
C12   C30   A    
C22   N5    A    
C4    O4    A    
C30   H3    S    
C28   C31   S    
C29   H2    S    
C16   O5    A    
Cu2   O2    S    
C12   C26   A    
C8    C9    A    
C3    C5    A    
C27   H15   S    
Cu1   O1    S    
