data_mof_unit_26517.cif
_audit_creation_date              2012-12-10T17:50:12-0500
_audit_creation_method            fapswitch 2.2
_symmetry_space_group_name_H-M    P1
_symmetry_Int_Tables_number       1
_space_group_crystal_system       triclinic
_cell_length_a                    10.659784
_cell_length_b                    14.73255
_cell_length_c                    14.798618
_cell_angle_alpha                 64.793015
_cell_angle_beta                  105.176735
_cell_angle_gamma                 104.012324
_cell_volume                      2006.57658808

loop_
_atom_site_label
_atom_site_type_symbol
_atom_type_description
_atom_site_fract_x
_atom_site_fract_y
_atom_site_fract_z
_atom_type_partial_charge
C1    C     C_R   0.477573 0.119627 0.312134 0.792814
C2    C     C_R   0.522428 0.880373 0.687866 0.792815
C3    C     C_R   0.497540 0.291042 0.177787 -0.234536
C4    C     C_R   0.502461 0.708958 0.822213 -0.234536
C5    C     C_R   0.479237 0.360033 0.076147 0.073663
C6    C     C_R   0.520764 0.639967 0.923853 0.073661
C7    C     C_R   0.412345 0.321674 0.999854 0.104217
C8    C     C_R   0.587655 0.678326 0.000146 0.104215
C9    C     C_R   0.520120 0.466141 0.050024 0.004616
C10   C     C_R   0.479881 0.533859 0.949976 0.004618
C11   C     C_R   0.399994 0.493957 0.878446 -0.207065
C12   C     C_R   0.600007 0.506043 0.121553 -0.207065
C13   C     C_R   0.373050 0.389660 0.899380 0.106414
C14   C     C_R   0.626951 0.610340 0.100620 0.106425
C15   C     C_R   0.749158 0.302569 0.640363 -0.246968
C16   C     C_R   0.250840 0.697430 0.359639 -0.246972
C17   C     C_R   0.703302 0.214524 0.621430 0.170542
C18   C     C_R   0.296696 0.785474 0.378572 0.170543
C19   C     C_R   0.508510 0.279457 0.518651 -0.014167
C20   C     C_R   0.491492 0.720544 0.481346 -0.014183
C21   C     C_R   0.553107 0.374365 0.529328 -0.027927
C22   C     C_R   0.446895 0.625636 0.470670 -0.027942
C23   C     C_R   0.259047 0.998999 0.499901 0.839637
C24   C     C_R   0.740953 0.001001 0.500099 0.839636
C25   C     C_R   0.673348 0.381657 0.596231 0.080852
C26   C     C_R   0.326652 0.618342 0.403769 0.080856
C27   C     C_R   0.481355 0.459671 0.481088 -0.016612
C28   C     C_R   0.518647 0.540331 0.518909 -0.016626
C29   C     C_R   0.626344 0.531828 0.602493 0.166132
C30   C     C_R   0.373657 0.468174 0.397505 0.166133
C31   C     C_R   0.711834 0.462846 0.626820 -0.120466
C32   C     C_R   0.288167 0.537154 0.373180 -0.120456
C33   C     C_3   0.002721 0.917820 0.485449 0.512828
C34   C     C_3   0.997279 0.082179 0.514552 0.512749
C35   C     C_3   0.924257 0.003772 0.410270 -0.290593
C36   C     C_3   0.075743 0.996227 0.589730 -0.290640
C37   C     C_3   0.878380 0.003371 0.500575 -0.144041
C38   C     C_3   0.121620 0.996629 0.499426 -0.144069
C39   C     C_3   0.955050 0.916469 0.575547 -0.278735
C40   C     C_3   0.044950 0.083531 0.424454 -0.278794
C41   C     C_R   0.461459 0.186826 0.204235 -0.048161
C42   C     C_R   0.538542 0.813174 0.795765 -0.048161
C43   C     C_R   0.381095 0.215464 0.027395 -0.206507
C44   C     C_R   0.618905 0.784536 0.972605 -0.206507
C45   C     C_R   0.406629 0.148971 0.128332 -0.182762
C46   C     C_R   0.593371 0.851029 0.871668 -0.182761
Cu1   Cu    Cu3+1 0.465750 0.918270 0.475680 0.965477
Cu2   Cu    Cu3+1 0.534250 0.081730 0.524320 0.965469
H1    H     H_    0.860524 0.006336 0.336914 0.171757
H2    H     H_    0.139475 0.993663 0.663087 0.171764
H3    H     H_    0.588516 0.737474 0.520554 0.140356
H4    H     H_    0.411489 0.262529 0.479440 0.140317
H5    H     H_    0.239551 0.847041 0.343675 0.167670
H6    H     H_    0.760445 0.152956 0.656329 0.167666
H7    H     H_    0.841728 0.307552 0.691632 0.154230
H8    H     H_    0.158269 0.692445 0.308372 0.154230
H9    H     H_    0.916372 0.847767 0.637083 0.170273
H10   H     H_    0.083628 0.152233 0.362918 0.170272
H11   H     H_    0.465985 0.683094 0.761029 0.155858
H12   H     H_    0.534016 0.316906 0.238971 0.155857
H13   H     H_    0.621403 0.931853 0.852805 0.153922
H14   H     H_    0.378597 0.068147 0.147195 0.153923
H15   H     H_    0.333377 0.182233 0.972208 0.136590
H16   H     H_    0.666623 0.817767 0.027792 0.136588
H17   H     H_    0.355651 0.543487 0.805682 0.170157
H18   H     H_    0.644350 0.456513 0.194318 0.170157
H19   H     H_    0.802367 0.464635 0.680859 0.156655
H20   H     H_    0.197632 0.535364 0.319141 0.156651
N1    N     N_R   0.585750 0.204560 0.560800 -0.195138
N2    N     N_R   0.414250 0.795440 0.439200 -0.195138
O1    O     O_R   0.454850 0.022100 0.338110 -0.598383
O2    O     O_R   0.545150 0.977900 0.661890 -0.598383
O3    O     O_R   0.512700 0.160150 0.379180 -0.580550
O4    O     O_R   0.487300 0.839850 0.620820 -0.580550
O5    O     O_R   0.287930 0.931000 0.479440 -0.540181
O6    O     O_R   0.712070 0.069000 0.520560 -0.540183
O7    O     O_R   0.345780 0.069050 0.520520 -0.601315
O8    O     O_R   0.654220 0.930950 0.479480 -0.601292
C47   C     C_3   0.645554 0.584419 0.675614 -0.425000
C48   C     C_3   0.674544 0.513858 0.787842 -0.829560
H21   H     H_    0.602190 0.443143 0.803879 0.265725
H22   H     H_    0.775437 0.494553 0.809795 0.246650
H23   H     H_    0.668688 0.553015 0.835803 0.254779
H24   H     H_    0.727946 0.648465 0.660020 0.236250
H25   H     H_    0.554518 0.612911 0.667592 0.200490
C49   C     C_3   0.354447 0.415583 0.324383 -0.425015
C50   C     C_3   0.325456 0.486146 0.212155 -0.829553
H26   H     H_    0.224563 0.505450 0.190203 0.246649
H27   H     H_    0.397810 0.556860 0.196119 0.265723
H28   H     H_    0.331312 0.446989 0.164194 0.254779
H29   H     H_    0.445484 0.387092 0.332404 0.200492
H30   H     H_    0.272056 0.351537 0.339977 0.236232
S1    S     S_3+6 0.994180 0.805089 0.465597 -0.014625
O9    O     O_2   0.004955 0.832160 0.357647 -0.349730
O10   O     O_2   0.103570 0.747738 0.536596 -0.261590
O11   O     O_3   0.849443 0.731216 0.488216 -0.548655
H31   H     H_    0.782549 0.770110 0.434573 0.336953
S2    S     S_3+6 0.005818 0.194909 0.534407 -0.014604
O12   O     O_2   0.896430 0.252261 0.463407 -0.261592
O13   O     O_2   0.995040 0.167835 0.642356 -0.349679
O14   O     O_3   0.150556 0.268782 0.511792 -0.548612
H32   H     H_    0.217458 0.229834 0.565364 0.336914
C51   C     C_3   0.299432 0.349516 0.816794 -0.421396
C52   C     C_3   0.265579 0.428565 0.709141 -0.761511
H33   H     H_    0.194078 0.473946 0.706129 0.258500
H34   H     H_    0.355748 0.479064 0.682942 0.248485
H35   H     H_    0.219601 0.389345 0.656244 0.282201
H36   H     H_    0.361062 0.301203 0.812078 0.205179
H37   H     H_    0.206006 0.301483 0.839332 0.216444
C53   C     C_3   0.700569 0.650484 0.183205 -0.421403
C54   C     C_3   0.734424 0.571435 0.290858 -0.761541
H38   H     H_    0.644255 0.520937 0.317058 0.248489
H39   H     H_    0.805924 0.526055 0.293870 0.258508
H40   H     H_    0.780403 0.610655 0.343755 0.282174
H41   H     H_    0.793995 0.698517 0.160668 0.216443
H42   H     H_    0.638939 0.698797 0.187922 0.205171

loop_
_geom_bond_atom_site_label_1
_geom_bond_atom_site_label_2
_ccdc_geom_bond_type
C18   N2    A    
C38   C40   S    
C50   H26   S    
C17   N1    A    
O14   H32   S    
C34   C37   S    
Cu2   O6    S    
C54   H38   S    
Cu2   N1    S    
C52   H34   S    
C43   H15   S    
C44   H16   S    
C31   H19   S    
S1    O9    D    
C34   C40   S    
C28   C29   A    
C35   C37   S    
C20   H3    S    
C49   H29   S    
C47   H24   S    
C15   C25   A    
C39   H9    S    
C45   H14   S    
C15   C17   A    
C42   C46   A    
C53   C54   S    
C18   H5    S    
C33   C35   S    
C19   H4    S    
C33   C39   S    
C35   H1    S    
C51   H36   S    
C7    C43   A    
C30   C49   S    
C9    C10   A    
C2    O4    A    
C32   H20   S    
C3    H12   S    
C21   C27   A    
S1    O10   D    
C22   C28   A    
C27   C30   A    
C20   N2    A    
Cu2   O2    S    
C48   H23   S    
C2    O2    A    
Cu2   O3    S    
C52   H33   S    
C44   C46   A    
C16   C26   A    
C40   H10   S    
C46   H13   S    
C4    C6    A    
C23   O5    A    
C5    C7    A    
C26   C32   A    
C24   O6    A    
C6    C8    A    
C12   H18   S    
C15   H7    S    
Cu2   O7    S    
C16   H8    S    
Cu1   N2    S    
C5    C9    A    
Cu1   Cu2   S    
C29   C47   S    
C29   C31   A    
O11   H31   S    
C24   C37   S    
C54   H39   S    
C1    O1    A    
C23   O7    A    
C43   C45   A    
Cu1   O1    S    
C48   H22   S    
C20   C22   A    
S1    O11   S    
S2    O13   D    
C50   H27   S    
C19   N1    A    
C13   C51   S    
S2    O14   S    
C53   H42   S    
C47   H25   S    
C36   H2    S    
C24   O8    A    
C14   C53   S    
C21   C25   A    
C3    C41   A    
C8    C14   A    
C19   C21   A    
C49   C50   S    
C25   C31   A    
C36   C39   S    
C8    C44   A    
Cu1   O4    S    
C12   C14   A    
C48   H21   S    
C3    C5    A    
C33   S1    S    
C6    C10   A    
C1    C41   S    
C23   C38   S    
C33   C38   S    
C51   H37   S    
C1    O3    A    
C36   C38   S    
C35   C40   S    
Cu1   O5    S    
C37   C39   S    
C49   H30   S    
C30   C32   A    
C11   C13   A    
C4    C42   A    
C2    C42   S    
C53   H41   S    
C4    H11   S    
C34   S2    S    
C54   H40   S    
C34   C36   S    
C9    C12   A    
C10   C11   A    
C47   C48   S    
C7    C13   A    
C16   C18   A    
S2    O12   D    
C22   C26   A    
C50   H28   S    
C51   C52   S    
C41   C45   A    
Cu1   O8    S    
C17   H6    S    
C52   H35   S    
C11   H17   S    
C27   C28   A    
