data_mof_unit_21665.cif
_audit_creation_date              2012-12-10T19:18:38-0500
_audit_creation_method            fapswitch 2.2
_symmetry_space_group_name_H-M    P1
_symmetry_Int_Tables_number       1
_space_group_crystal_system       triclinic
_cell_length_a                    15.747655
_cell_length_b                    14.972316
_cell_length_c                    10.495213
_cell_angle_alpha                 90.329214
_cell_angle_beta                  90.11937
_cell_angle_gamma                 89.963148
_cell_volume                      2474.50271735

loop_
_atom_site_label
_atom_site_type_symbol
_atom_type_description
_atom_site_fract_x
_atom_site_fract_y
_atom_site_fract_z
_atom_type_partial_charge
C1    C     C_R   0.337990 0.500027 0.500135 0.896272
C2    C     C_3   0.497976 0.498951 0.122376 -0.051649
C3    C     C_3   0.048431 0.594921 0.558033 0.284093
C4    C     C_3   0.051195 0.420600 0.601172 0.273292
C5    C     C_3   0.951114 0.415580 0.607486 0.835987
C6    C     C_3   0.949331 0.590849 0.576890 0.868121
C7    C     C_1   0.750800 0.499632 0.506501 -0.218867
C8    C     C_3   0.083161 0.500845 0.517624 -0.039609
C9    C     C_3   0.917431 0.496863 0.523676 -0.041652
C10   C     C_3   0.950535 0.484835 0.384415 -0.521053
C11   C     C_3   0.048263 0.483950 0.381166 -0.639373
C12   C     C_1   0.825893 0.498150 0.514757 0.047289
C13   C     C_1   0.174360 0.500621 0.510885 0.055680
C14   C     C_R   0.498872 0.499681 0.256944 0.920877
C15   C     C_1   0.249420 0.500154 0.505135 -0.212991
C16   C     C_3   0.403750 0.052426 0.472445 0.346724
C17   C     C_3   0.405363 0.947056 0.464082 0.389406
C18   C     C_3   0.524974 0.054337 0.632500 0.218154
C19   C     C_3   0.530007 0.949477 0.628521 0.231544
C20   C     C_3   0.495023 0.089995 0.499889 0.011498
C21   C     C_3   0.495894 0.909973 0.498180 -0.047397
C22   C     C_3   0.556764 0.947616 0.394418 -0.443082
C23   C     C_3   0.556098 0.051933 0.395982 -0.482169
C24   C     C_1   0.497747 0.809268 0.497231 0.105892
C25   C     C_1   0.497163 0.190735 0.498376 0.064702
C26   C     C_R   0.662205 0.499962 0.499850 0.922453
C27   C     C_R   0.500505 0.500308 0.743342 0.886726
C28   C     C_3   0.432877 0.549227 0.041659 -0.246466
C29   C     C_3   0.490921 0.414826 0.039328 -0.199021
C30   C     C_3   0.425886 0.465200 0.955811 -0.148069
C31   C     C_3   0.500264 0.500955 0.877861 -0.042740
C32   C     C_3   0.506999 0.585599 0.960737 -0.220611
C33   C     C_3   0.565510 0.450062 0.958403 -0.277278
C34   C     C_3   0.570781 0.533975 0.042604 0.592141
H1    H     H_    0.366605 0.437107 0.914503 0.141019
H2    H     H_    0.926979 0.540041 0.323051 0.242202
H3    H     H_    0.926088 0.421607 0.341809 0.237611
H4    H     H_    0.359395 0.920603 0.534234 -0.067712
H5    H     H_    0.362044 0.069542 0.555027 0.046041
H6    H     H_    0.591229 0.079273 0.647938 0.050043
H7    H     H_    0.599459 0.935305 0.625540 0.105510
H8    H     H_    0.536644 0.076603 0.300469 0.244880
H9    H     H_    0.538611 0.922866 0.298019 0.247491
H10   H     H_    0.621694 0.076767 0.413555 0.164892
H11   H     H_    0.622685 0.923305 0.410668 0.165046
H12   H     H_    0.379018 0.588669 0.080616 0.155097
H13   H     H_    0.483223 0.345999 0.076084 0.159373
H14   H     H_    0.514586 0.654620 0.924469 0.152451
H15   H     H_    0.619087 0.410223 0.919429 0.134260
H16   H     H_    0.069179 0.361791 0.541542 0.153798
H17   H     H_    0.060617 0.639802 0.475133 0.098483
H18   H     H_    0.071315 0.535825 0.313879 0.218485
H19   H     H_    0.070935 0.418746 0.342476 0.222181
N1    N     N_1   0.498630 0.731150 0.497460 -0.101051
N2    N     N_1   0.498630 0.268850 0.497460 -0.109815
O1    O     O_R   0.377210 0.574260 0.500130 -0.626690
O2    O     O_R   0.377210 0.425740 0.500130 -0.612376
O3    O     O_R   0.500050 0.574220 0.314080 -0.599225
O4    O     O_R   0.500050 0.425780 0.314080 -0.628948
O5    O     O_R   0.622930 0.574200 0.500140 -0.594215
O6    O     O_R   0.622930 0.425800 0.500140 -0.626080
O7    O     O_R   0.500090 0.574240 0.686180 -0.626042
O8    O     O_R   0.500090 0.425760 0.686180 -0.621789
Zn1   Zn    Zn3+2 0.500090 0.599130 0.500180 0.973705
Zn2   Zn    Zn3+2 0.500090 0.400870 0.500180 0.949582
O9    O     O_3   0.468374 0.083384 0.729871 -0.653431
C35   C     C_3   0.506454 0.145297 0.814965 0.110580
H20   H     H_    0.454473 0.183317 0.861873 0.167248
H21   H     H_    0.546292 0.195556 0.764912 0.122411
C36   C     C_3   0.557720 0.096777 0.917969 -0.317125
H22   H     H_    0.517004 0.045969 0.964341 0.243957
H23   H     H_    0.612786 0.062014 0.874035 0.214475
C37   C     C_3   0.590136 0.161711 0.019512 -0.990548
H24   H     H_    0.629039 0.215075 0.975372 0.263383
H25   H     H_    0.630034 0.125178 0.089325 0.266395
H26   H     H_    0.535915 0.192364 0.071186 0.267507
O10   O     O_3   0.506500 0.906957 0.744617 -0.629674
C38   C     C_3   0.418856 0.891072 0.760189 0.135080
H27   H     H_    0.398818 0.834184 0.698902 0.124262
H28   H     H_    0.380139 0.951252 0.739658 0.166592
C39   C     C_3   0.403002 0.864624 0.898679 -0.298937
H29   H     H_    0.446072 0.808811 0.924958 0.225970
H30   H     H_    0.416970 0.922282 0.962407 0.229838
C40   C     C_3   0.311405 0.835035 0.919321 -1.000174
H31   H     H_    0.266784 0.889701 0.894212 0.264390
H32   H     H_    0.302096 0.817388 0.020928 0.272727
H33   H     H_    0.297235 0.775214 0.860023 0.259288
O11   O     O_3   0.371655 0.088244 0.356384 -0.609606
C41   C     C_3   0.313374 0.159048 0.377254 0.093797
H34   H     H_    0.317011 0.204303 0.293930 0.166783
H35   H     H_    0.329141 0.200525 0.462514 0.138716
C42   C     C_3   0.222572 0.123331 0.387316 -0.388777
H36   H     H_    0.206300 0.085528 0.299147 0.227266
H37   H     H_    0.217722 0.077376 0.469693 0.201822
C43   C     C_3   0.159049 0.199406 0.405484 -0.929313
H38   H     H_    0.173531 0.236993 0.494469 0.274529
H39   H     H_    0.093832 0.171763 0.412603 0.271256
H40   H     H_    0.161407 0.245809 0.323351 0.255391
O12   O     O_3   0.384182 0.918328 0.338197 -0.599550
C44   C     C_3   0.299177 0.888531 0.327215 0.127810
H41   H     H_    0.277583 0.903535 0.228830 0.170770
H42   H     H_    0.254748 0.924359 0.392304 0.104953
C45   C     C_3   0.294626 0.787432 0.347980 -0.360644
H43   H     H_    0.343018 0.753575 0.287648 0.242057
H44   H     H_    0.308695 0.772229 0.449352 0.209085
C46   C     C_3   0.207082 0.750651 0.313780 -1.004478
H45   H     H_    0.157378 0.783644 0.372392 0.256211
H46   H     H_    0.205435 0.677679 0.331988 0.267822
H47   H     H_    0.193169 0.761959 0.211337 0.270507
O13   O     O_3   0.644157 0.569899 0.100607 -0.602839
C47   C     C_3   0.704581 0.588840 0.005964 -0.342000
H48   H     H_    0.678787 0.635030 0.932701 0.153351
H49   H     H_    0.728211 0.526329 0.960681 0.159226
H50   H     H_    0.759703 0.622326 0.051594 0.205423
O14   O     O_3   0.931778 0.600659 0.710318 -0.591454
C48   C     C_3   0.845471 0.616366 0.741243 -0.262750
H51   H     H_    0.813060 0.552313 0.761355 0.181939
H52   H     H_    0.809004 0.653771 0.668419 0.190728
H53   H     H_    0.843422 0.656739 0.830065 0.162526
O15   O     O_3   0.921363 0.424473 0.735595 -0.637032
C49   C     C_3   0.934120 0.347347 0.811442 -0.218439
H54   H     H_    0.962868 0.367999 0.903538 0.169307
H55   H     H_    0.975820 0.295555 0.767906 0.208682
H56   H     H_    0.871808 0.316651 0.833484 0.141030
O16   O     O_3   0.088591 0.628586 0.669955 -0.601106
C50   C     C_3   0.145929 0.698485 0.643441 -0.366864
H57   H     H_    0.176661 0.719397 0.733838 0.196472
H58   H     H_    0.112408 0.757565 0.604425 0.157036
H59   H     H_    0.196804 0.676378 0.577453 0.187636
O17   O     O_3   0.096360 0.399321 0.715071 -0.641362
C51   C     C_3   0.104629 0.469484 0.803678 -0.160995
H60   H     H_    0.046187 0.509779 0.813906 0.255214
H61   H     H_    0.161215 0.510362 0.780913 0.202688
H62   H     H_    0.117061 0.439853 0.898505 0.135229
O18   O     O_3   0.927295 0.331325 0.551141 -0.666450
C52   C     C_3   0.840716 0.307223 0.563078 -0.314783
H63   H     H_    0.804699 0.345402 0.636045 0.185227
H64   H     H_    0.837310 0.235683 0.589411 0.172996
H65   H     H_    0.808851 0.314495 0.469307 0.183774
O19   O     O_3   0.909695 0.659868 0.503479 -0.653400
C53   C     C_3   0.932848 0.747451 0.542003 -0.344765
H66   H     H_    0.955777 0.752811 0.641982 0.214129
H67   H     H_    0.876287 0.791199 0.533350 0.186288
H68   H     H_    0.981987 0.773809 0.476625 0.157684

loop_
_geom_bond_atom_site_label_1
_geom_bond_atom_site_label_2
_ccdc_geom_bond_type
O8    Zn2   S    
C8    C13   S    
C32   H14   S    
C37   H24   S    
C43   H38   S    
C40   H33   S    
C4    C8    S    
C3    C6    S    
C6    C9    S    
C39   H29   S    
C43   H40   S    
O18   C52   S    
C47   H49   S    
O10   C38   S    
C14   O4    A    
C28   H12   S    
C50   H57   S    
C23   H8    S    
C46   H46   S    
C30   H1    S    
C29   H13   S    
C2    C29   S    
C19   C21   S    
C26   O6    A    
C40   H32   S    
C53   H67   S    
C30   C31   S    
C38   H28   S    
C46   H45   S    
C24   N1    T    
O14   C48   S    
C29   C33   S    
C48   H51   S    
C18   C19   S    
C19   O10   S    
C18   H6    S    
O13   C47   S    
C44   H41   S    
C49   H56   S    
O7    Zn1   S    
C11   H18   S    
C39   H30   S    
C31   C32   S    
C16   C17   S    
C10   H2    S    
O1    Zn1   S    
C36   H22   S    
C1    C15   S    
C41   H35   S    
C9    C10   S    
C11   H19   S    
C2    C34   S    
O9    C35   S    
C21   C22   S    
C37   H25   S    
C51   H62   S    
C52   H65   S    
C42   H37   S    
N2    Zn2   S    
O3    Zn1   S    
C7    C12   T    
C14   O3    A    
C31   C33   S    
C5    O15   S    
C27   C31   S    
C35   H20   S    
C28   C32   S    
O19   C53   S    
C52   H64   S    
C3    C8    S    
C53   H68   S    
C3    H17   S    
C38   H27   S    
C4    C5    S    
C4    O17   S    
C50   H59   S    
C42   C43   S    
C17   C21   S    
C23   H10   S    
C4    H16   S    
C35   H21   S    
C32   C34   S    
C45   C46   S    
C5    C9    S    
C29   C30   S    
C27   O7    A    
C1    O2    A    
O12   C44   S    
C20   C23   S    
C16   C20   S    
C36   C37   S    
C44   H42   S    
C33   C34   S    
C45   H44   S    
C40   H31   S    
C41   C42   S    
C17   O12   S    
C49   H54   S    
C27   O8    A    
C13   C15   T    
O16   C50   S    
C34   O13   S    
C37   H26   S    
C51   H60   S    
C39   C40   S    
O15   C49   S    
C26   O5    A    
C5    O18   S    
C50   H58   S    
C47   H48   S    
C1    O1    A    
C25   N2    T    
O2    Zn2   S    
C52   H63   S    
C51   H61   S    
C36   H23   S    
C43   H39   S    
C10   H3    S    
C18   O9    S    
C48   H53   S    
C3    O16   S    
O5    Zn1   S    
C35   C36   S    
C28   C30   S    
O17   C51   S    
C53   H66   S    
O4    Zn2   S    
C38   C39   S    
N1    Zn1   S    
C8    C11   S    
C42   H36   S    
C48   H52   S    
C47   H50   S    
C18   C20   S    
C17   H4    S    
C44   C45   S    
C6    O19   S    
C2    C14   S    
C9    C12   S    
C6    O14   S    
C49   H55   S    
C10   C11   S    
C16   H5    S    
O6    Zn2   S    
C22   H11   S    
O11   C41   S    
C33   H15   S    
C20   C25   S    
C21   C24   S    
C45   H43   S    
C16   O11   S    
C22   C23   S    
C2    C28   S    
C41   H34   S    
C7    C26   S    
C22   H9    S    
C19   H7    S    
C46   H47   S    
