data_mof_unit_12132.cif
_audit_creation_date              2013-03-05T15:49:17-0500
_audit_creation_method            fapswitch 2.2
_symmetry_space_group_name_H-M    P1
_symmetry_Int_Tables_number       1
_space_group_crystal_system       triclinic
_cell_length_a                    10.634374
_cell_length_b                    11.992558
_cell_length_c                    12.884539
_cell_angle_alpha                 93.197544
_cell_angle_beta                  90.142797
_cell_angle_gamma                 86.428671
_cell_volume                      1637.46326547

loop_
_atom_site_label
_atom_site_type_symbol
_atom_site_description
_atom_site_fract_x
_atom_site_fract_y
_atom_site_fract_z
_atom_type_partial_charge
O1    O     O_R   0.506170 0.421690 0.658830 -0.623850
O2    O     O_R   0.491330 0.609320 0.646410 -0.627458
C1    C     C_R   0.498993 0.521907 0.700448 0.886625
O3    O     O_R   0.690660 0.406170 0.506210 -0.624917
O4    O     O_R   0.675810 0.593790 0.493790 -0.610238
C2    C     C_R   0.739517 0.499823 0.496345 0.868049
Zn1   Zn    Zn3+2 0.509910 0.374720 0.508290 0.946734
Zn2   Zn    Zn3+2 0.490090 0.625280 0.491710 0.953544
O5    O     O_R   0.508670 0.390680 0.353590 -0.638850
O6    O     O_R   0.493830 0.578310 0.341170 -0.620868
O7    O     O_R   0.324190 0.406210 0.506210 -0.622572
O8    O     O_R   0.309340 0.593830 0.493790 -0.613029
C3    C     C_R   0.501004 0.478070 0.299578 0.858410
C4    C     C_R   0.260500 0.499211 0.496734 0.871322
H1    H     H_    0.877946 0.620789 0.618923 0.150496
C5    C     C_R   0.877621 0.368213 0.332584 -0.177299
H2    H     H_    0.776112 0.369091 0.327261 0.152065
C6    C     C_R   0.947545 0.303453 0.257276 -0.126498
H3    H     H_    0.899909 0.255024 0.197484 0.147056
C7    C     C_R   0.078462 0.302276 0.258034 -0.076035
C8    C     C_R   0.139923 0.366036 0.333973 -0.183451
H4    H     H_    0.241470 0.365125 0.329684 0.152296
C9    C     C_R   0.070480 0.430894 0.411977 0.086880
C10   C     C_R   0.938551 0.431902 0.411331 0.097347
C11   C     C_R   0.871695 0.499614 0.488404 -0.093386
C12   C     C_R   0.931171 0.568455 0.560979 -0.204814
C13   C     C_R   0.059613 0.567586 0.561541 -0.191743
C14   C     C_R   0.128334 0.497908 0.489514 -0.093909
C15   C     C_R   0.502416 0.464989 0.188309 -0.061288
C16   C     C_R   0.497594 0.534875 0.811789 -0.057274
C17   C     C_R   0.457664 0.647611 0.969789 -0.202631
C18   C     C_R   0.465152 0.638991 0.862433 -0.204963
C19   C     C_R   0.525137 0.439986 0.867783 -0.269700
C20   C     C_R   0.517169 0.447614 0.974411 0.179762
C21   C     C_R   0.482785 0.552158 0.025709 0.178164
C22   C     C_R   0.474723 0.559804 0.132306 -0.257585
C23   C     C_R   0.535059 0.360873 0.137743 -0.195394
C24   C     C_R   0.542442 0.352193 0.030377 -0.207821
H5    H     H_    0.447989 0.640229 0.171469 0.168783
H6    H     H_    0.556720 0.287154 0.180975 0.179288
H7    H     H_    0.431628 0.728116 0.008868 0.158440
H8    H     H_    0.568572 0.271696 0.991331 0.147109
H9    H     H_    0.443717 0.712783 0.819262 0.167089
H10   H     H_    0.551748 0.359553 0.828594 0.158662
N1    N     N_R   0.523130 0.207800 0.519340 -0.114126
N2    N     N_R   0.476870 0.792180 0.480660 -0.122638
C25   C     C_R   0.384935 0.953350 0.397497 0.213481
C26   C     C_R   0.395508 0.837146 0.410374 -0.060418
C27   C     C_R   0.549903 0.858703 0.541546 -0.056368
C28   C     C_R   0.542203 0.975781 0.533535 0.049717
C29   C     C_R   0.458357 0.024458 0.461189 -0.043668
C30   C     C_R   0.449594 0.142706 0.457225 0.009396
C31   C     C_R   0.605522 0.161070 0.587859 0.033160
C32   C     C_R   0.616155 0.044943 0.596599 -0.283102
H11   H     H_    0.383697 0.184189 0.405966 0.172901
H12   H     H_    0.662870 0.214230 0.636320 0.130644
H13   H     H_    0.340273 0.781774 0.362265 0.171427
H14   H     H_    0.613983 0.820308 0.596505 0.135364
N3    N     N_R   0.301802 0.996038 0.318943 0.193697
O9    O     O_R   0.194868 0.951415 0.301083 -0.395610
O10   O     O_R   0.341810 0.064366 0.253177 -0.433191
H15   H     H_    0.681585 0.009556 0.652282 0.143955
H16   H     H_    0.132554 0.252862 0.198882 0.176662
H17   H     H_    0.105904 0.619571 0.619722 0.156170

loop_
_geom_bond_atom_site_label_1
_geom_bond_atom_site_label_2
_geom_bond_distance
_ccdc_geom_bond_type
O4    Zn2   1.987955 S    
Zn1   O7    1.987956 S    
C9    C10   1.402290 A    
C24   H8    1.084132 S    
C23   C24   1.383534 A    
C1    C16   1.434354 S    
C32   H15   1.083369 S    
C17   C18   1.383456 A    
C21   C22   1.373935 A    
N2    C27   1.363598 A    
C30   H11   1.079664 S    
Zn2   O8    1.982267 S    
N1    C30   1.365534 A    
C27   C28   1.410881 A    
C7    H16   1.082722 S    
O2    C1    1.288739 A    
N1    C31   1.360639 A    
C26   H13   1.082164 S    
C5    C10   1.415845 A    
C5    C6    1.394697 A    
O1    Zn1   1.989167 S    
C31   C32   1.400998 A    
C7    C8    1.394572 A    
C16   C18   1.400144 A    
C15   C22   1.396089 A    
C12   C13   1.365294 A    
C28   C32   1.403402 A    
O3    Zn1   1.982269 S    
Zn1   N1    2.010935 S    
C17   C21   1.397801 A    
C8    H4    1.080790 S    
C18   H9    1.083358 S    
O8    C4    1.279502 A    
C28   C29   1.412947 A    
C23   H6    1.083444 S    
C6    C7    1.391431 A    
C8    C9    1.416113 A    
O4    C2    1.280197 A    
C15   C23   1.400138 A    
O7    C4    1.279940 A    
Zn2   N2    2.010697 S    
N3    O10   1.301234 A    
O3    C2    1.279258 A    
C9    C14   1.411175 A    
C13   H17   1.085001 S    
C25   N3    1.437030 S    
C29   C30   1.419117 A    
C2    C11   1.409433 S    
N2    C26   1.360886 A    
N3    O9    1.301245 A    
C19   C20   1.374267 A    
C10   C11   1.411618 A    
Zn2   O6    1.989168 S    
C20   C21   1.412130 A    
C31   H12   1.081825 S    
C3    C15   1.433503 S    
C13   C14   1.390817 A    
Zn1   O5    2.012937 S    
O5    C3    1.288314 A    
C6    H3    1.082696 S    
H1    C12   1.085014 S    
C25   C29   1.418448 A    
C17   H7    1.084186 S    
C16   C19   1.396514 A    
C4    C14   1.409347 S    
C11   C12   1.389969 A    
C20   C24   1.398033 A    
C19   H10   1.085292 S    
C22   H5    1.085341 S    
O2    Zn2   2.012938 S    
C27   H14   1.082916 S    
C25   C26   1.410104 A    
C5    H2    1.080924 S    
O1    C1    1.286353 A    
O6    C3    1.286482 A    
