data_mof_unit_37170.cif
_audit_creation_date              2012-12-10T18:33:38-0500
_audit_creation_method            fapswitch 2.2
_symmetry_space_group_name_H-M    P1
_symmetry_Int_Tables_number       1
_space_group_crystal_system       triclinic
_cell_length_a                    10.50858
_cell_length_b                    15.023209
_cell_length_c                    15.477743
_cell_angle_alpha                 82.440012
_cell_angle_beta                  89.500281
_cell_angle_gamma                 104.146195
_cell_volume                      2346.69232212

loop_
_atom_site_label
_atom_site_type_symbol
_atom_type_description
_atom_site_fract_x
_atom_site_fract_y
_atom_site_fract_z
_atom_type_partial_charge
C1    C     C_R   0.477781 0.441925 0.661991 0.852737
C2    C     C_R   0.515772 0.557877 0.337939 0.857305
C3    C     C_R   0.433222 0.468904 0.810543 -0.288639
C4    C     C_R   0.482881 0.525436 0.188448 -0.237126
C5    C     C_R   0.406989 0.440351 0.899728 0.095029
C6    C     C_R   0.442885 0.545758 0.104185 0.080489
C7    C     C_R   0.394774 0.345681 0.932124 0.183587
C8    C     C_R   0.439478 0.638272 0.074025 0.177924
C9    C     C_R   0.404441 0.505117 0.958094 0.072064
C10   C     C_R   0.413031 0.477036 0.048116 0.070673
C11   C     C_R   0.392367 0.381373 0.079015 -0.245580
C12   C     C_R   0.397349 0.597341 0.929673 -0.245859
C13   C     C_R   0.380742 0.316579 0.021571 -0.248755
C14   C     C_R   0.412232 0.662314 0.987422 -0.241171
C15   C     C_R   0.694995 0.842581 0.636980 -0.424615
C16   C     C_R   0.320762 0.160285 0.354846 -0.426017
C17   C     C_R   0.662964 0.752588 0.614988 0.654071
C18   C     C_R   0.344487 0.248183 0.380633 0.626868
C19   C     C_R   0.512954 0.793528 0.511849 -0.180222
C20   C     C_R   0.480478 0.204864 0.492587 -0.176094
C21   C     C_R   0.541619 0.885271 0.531271 0.004231
C22   C     C_R   0.457431 0.114174 0.470476 0.002172
C23   C     C_R   0.742378 0.500477 0.500089 0.853697
C24   C     C_R   0.257541 0.499445 0.500364 0.853124
C25   C     C_R   0.633048 0.908288 0.596437 0.114198
C26   C     C_R   0.374394 0.092879 0.400534 0.120253
C27   C     C_R   0.484253 0.954479 0.487995 0.100242
C28   C     C_R   0.515207 0.045056 0.513726 0.097939
C29   C     C_R   0.604843 0.063969 0.580408 -0.244630
C30   C     C_R   0.399540 0.936666 0.418534 -0.240930
C31   C     C_R   0.663337 0.996955 0.620188 -0.188733
C32   C     C_R   0.346664 0.004914 0.375463 -0.187651
C33   C     C_3   0.931591 0.422255 0.472530 -0.152984
C34   C     C_3   0.068401 0.577979 0.528810 -0.120764
C35   C     C_3   0.014506 0.425534 0.554379 -0.197195
C36   C     C_3   0.985376 0.574707 0.447063 -0.168924
C37   C     C_3   0.122143 0.499551 0.500840 0.024030
C38   C     C_3   0.877753 0.500595 0.500444 0.039427
C39   C     C_3   0.041801 0.496606 0.419204 -0.196498
C40   C     C_3   0.957997 0.503766 0.582216 -0.162194
C41   C     C_R   0.447378 0.406506 0.754183 -0.057028
C42   C     C_R   0.503191 0.590828 0.246099 -0.066794
C43   C     C_R   0.401283 0.281895 0.874707 -0.208789
C44   C     C_R   0.464747 0.705495 0.130935 -0.211341
C45   C     C_R   0.428054 0.312272 0.785954 -0.199661
C46   C     C_R   0.494416 0.681459 0.217279 -0.205133
H1    H     H_    0.030964 0.364810 0.597858 0.136068
H2    H     H_    0.969007 0.635415 0.403516 0.136564
H3    H     H_    0.541704 0.227896 0.544618 0.150632
H4    H     H_    0.442790 0.768391 0.465085 0.152232
H5    H     H_    0.768566 0.861623 0.684260 0.159267
H6    H     H_    0.262879 0.145317 0.298479 0.154130
H7    H     H_    0.634304 0.130607 0.602659 0.135239
H8    H     H_    0.373720 0.871043 0.394123 0.134854
H9    H     H_    0.872497 0.358604 0.449311 0.145309
H10   H     H_    0.127825 0.641614 0.551873 0.146650
H11   H     H_    0.080397 0.495102 0.352752 0.142955
H12   H     H_    0.919158 0.506996 0.648377 0.138535
H13   H     H_    0.367414 0.244091 0.047395 0.146906
H14   H     H_    0.406641 0.732328 0.963508 0.144064
H15   H     H_    0.500101 0.458396 0.210326 0.180376
H16   H     H_    0.449512 0.540902 0.784149 0.150670
H17   H     H_    0.508520 0.732979 0.261434 0.157250
H18   H     H_    0.436083 0.262610 0.742702 0.154995
H19   H     H_    0.390091 0.209219 0.898838 0.133730
H20   H     H_    0.460193 0.776125 0.108915 0.134727
H21   H     H_    0.382755 0.354559 0.147576 0.188233
H22   H     H_    0.377067 0.620613 0.863461 0.145092
H23   H     H_    0.733031 0.014801 0.670203 0.141541
H24   H     H_    0.283325 0.988569 0.321811 0.141134
N1    N     N_R   0.574200 0.731700 0.552740 -0.138548
N2    N     N_R   0.425800 0.268300 0.447260 -0.134784
O1    O     O_R   0.462600 0.383110 0.605620 -0.627303
O2    O     O_R   0.537400 0.616890 0.394380 -0.626884
O3    O     O_R   0.510210 0.531900 0.639510 -0.599743
O4    O     O_R   0.489790 0.468100 0.360490 -0.565579
O5    O     O_R   0.662240 0.425610 0.483080 -0.634106
O6    O     O_R   0.337760 0.574390 0.516920 -0.634861
O7    O     O_R   0.709860 0.574400 0.516970 -0.564328
O8    O     O_R   0.290140 0.425600 0.483030 -0.606894
Zn1   Zn    Zn3+2 0.468210 0.400660 0.477370 0.964477
Zn2   Zn    Zn3+2 0.531790 0.599340 0.522630 0.969055
O9    O     O_3   0.301926 0.318353 0.331631 -0.598635
C47   C     C_3   0.163086 0.298712 0.334078 0.078753
H25   H     H_    0.127856 0.321136 0.393466 0.173962
H26   H     H_    0.113541 0.224149 0.334431 0.117010
C48   C     C_3   0.120249 0.352467 0.253998 -0.852729
H27   H     H_    0.140094 0.322984 0.194642 0.252535
H28   H     H_    0.013359 0.347693 0.260312 0.210855
H29   H     H_    0.175124 0.426455 0.246746 0.264923
O10   O     O_3   0.728946 0.686748 0.647758 -0.584526
C49   C     C_3   0.731193 0.675522 0.740028 0.087607
H30   H     H_    0.691774 0.600842 0.764394 0.175243
H31   H     H_    0.669314 0.713131 0.772609 0.110310
C50   C     C_3   0.872383 0.703160 0.768078 -0.869508
H32   H     H_    0.917098 0.777430 0.744818 0.247384
H33   H     H_    0.874336 0.691401 0.840349 0.219362
H34   H     H_    0.931425 0.660671 0.740566 0.259065

loop_
_geom_bond_atom_site_label_1
_geom_bond_atom_site_label_2
_ccdc_geom_bond_type
C25   C31   A    
C38   C40   S    
C48   H27   S    
C33   H9    S    
C34   C37   S    
C44   H20   S    
C50   H32   S    
C17   O10   S    
C47   C48   S    
C35   H1    S    
C50   H34   S    
C34   H10   S    
C12   H22   S    
C33   C39   S    
C29   H7    S    
C34   C40   S    
C28   C29   A    
C35   C37   S    
C47   H26   S    
C15   C25   A    
C39   H11   S    
C42   C46   A    
C19   N1    A    
C24   O8    A    
C11   H21   S    
C7    C43   A    
C9    C10   A    
N2    Zn1   S    
C2    O2    A    
N1    Zn2   S    
C21   C27   A    
C22   C28   A    
C27   C30   A    
C18   N2    A    
O2    Zn2   S    
O1    Zn1   S    
C44   C46   A    
C24   C37   S    
C16   C26   A    
C37   C39   S    
C40   H12   S    
C1    O3    A    
C8    C44   A    
C47   H25   S    
C4    C6    A    
O10   C49   S    
C5    C7    A    
C26   C32   A    
C6    C8    A    
C4    H15   S    
C49   C50   S    
C5    C9    A    
C20   H3    S    
C30   H8    S    
O6    Zn2   S    
C31   H23   S    
O9    C47   S    
O5    Zn1   S    
C43   H19   S    
C49   H31   S    
C18   O9    S    
C23   O5    A    
C43   C45   A    
C1    C41   S    
C20   C22   A    
C17   N1    A    
C15   H5    S    
C48   H28   S    
C2    O4    A    
C3    H16   S    
C24   O6    A    
C15   C17   A    
C21   C25   A    
C3    C41   A    
C8    C14   A    
C19   C21   A    
C36   C39   S    
C16   H6    S    
C12   C14   A    
O8    Zn1   S    
C3    C5    A    
O4    Zn1   S    
C6    C10   A    
O7    Zn2   S    
C32   H24   S    
C50   H33   S    
O3    Zn2   S    
C13   H13   S    
C23   C38   S    
C14   H14   S    
C45   H18   S    
C33   C38   S    
C46   H17   S    
C1    O1    A    
C36   C38   S    
C35   C40   S    
C29   C31   A    
C30   C32   A    
C11   C13   A    
C19   H4    S    
C4    C42   A    
C2    C42   S    
C49   H30   S    
C33   C35   S    
C36   H2    S    
C34   C36   S    
C9    C12   A    
C10   C11   A    
C7    C13   A    
C16   C18   A    
C22   C26   A    
C48   H29   S    
C27   C28   A    
C41   C45   A    
C20   N2    A    
C23   O7    A    
