data_mof_unit_28431.cif
_audit_creation_date              2012-12-11T14:40:08-0500
_audit_creation_method            fapswitch 2.2
_symmetry_space_group_name_H-M    P1
_symmetry_Int_Tables_number       1
_space_group_crystal_system       triclinic
_cell_length_a                    19.782042
_cell_length_b                    10.998591
_cell_length_c                    19.487066
_cell_angle_alpha                 90.287045
_cell_angle_beta                  97.230544
_cell_angle_gamma                 89.603482
_cell_volume                      4206.03636132

loop_
_atom_site_label
_atom_site_type_symbol
_atom_type_description
_atom_site_fract_x
_atom_site_fract_y
_atom_site_fract_z
_atom_type_partial_charge
C1    C     C_R   0.726020 0.951350 0.359698 0.553837
C2    C     C_R   0.274488 0.950813 0.639558 0.545098
C3    C     C_R   0.226020 0.451352 0.359699 0.553840
C4    C     C_R   0.774487 0.450812 0.639559 0.545097
C5    C     C_3   0.760227 0.293712 0.484299 -0.174049
C6    C     C_3   0.292725 0.287193 0.503151 -0.175727
C7    C     C_3   0.260229 0.793715 0.484299 -0.174050
C8    C     C_3   0.792724 0.787188 0.503151 -0.175729
C9    C     C_3   0.742418 0.397499 0.433242 0.079976
C10   C     C_3   0.265954 0.361147 0.560999 0.032782
C11   C     C_3   0.242419 0.897501 0.433241 0.079980
C12   C     C_3   0.765955 0.861146 0.560998 0.032778
C13   C     C_3   0.686879 0.441966 0.475766 -0.025666
C14   C     C_3   0.291601 0.477913 0.531111 -0.027532
C15   C     C_3   0.186880 0.941967 0.475766 -0.025665
C16   C     C_3   0.791604 0.977909 0.531108 -0.027529
C17   C     C_3   0.740023 0.525737 0.515602 -0.119300
C18   C     C_3   0.220485 0.494220 0.488435 -0.091665
C19   C     C_3   0.240023 0.025739 0.515602 -0.119300
C20   C     C_3   0.720488 0.994218 0.488433 -0.091664
C21   C     C_3   0.795296 0.478527 0.472362 0.213386
C22   C     C_3   0.196165 0.375983 0.518003 0.245139
C23   C     C_3   0.295296 0.978531 0.472361 0.213386
C24   C     C_3   0.696166 0.875984 0.518002 0.245138
C25   C     C_3   0.814540 0.376167 0.523911 -0.091053
C26   C     C_3   0.221297 0.299829 0.460037 -0.096826
C27   C     C_3   0.314542 0.876171 0.523910 -0.091056
C28   C     C_3   0.721296 0.799827 0.460037 -0.096826
C29   C     C_3   0.758926 0.420977 0.566775 0.011058
C30   C     C_3   0.245545 0.416790 0.430403 0.027930
C31   C     C_3   0.258927 0.920979 0.566775 0.011057
C32   C     C_3   0.745546 0.916785 0.430401 0.027931
C33   C     C_3   0.521040 0.275684 0.965866 -0.097012
C34   C     C_3   0.488491 0.275177 0.033131 -0.095412
C35   C     C_3   0.021040 0.775684 0.965866 -0.097012
C36   C     C_3   0.988491 0.775177 0.033131 -0.095412
C37   C     C_3   0.572263 0.177296 0.994645 -0.023713
C38   C     C_3   0.439108 0.174950 0.004994 -0.030242
C39   C     C_3   0.072263 0.677296 0.994645 -0.023713
C40   C     C_3   0.939107 0.674950 0.004994 -0.030242
C41   C     C_3   0.539694 0.176030 0.062242 0.040001
C42   C     C_3   0.471075 0.175136 0.937092 0.042790
C43   C     C_3   0.039694 0.676030 0.062242 0.040001
C44   C     C_3   0.971075 0.675136 0.937092 0.042790
C45   C     C_R   0.536336 0.180598 0.338558 0.556662
C46   C     C_R   0.464918 0.179759 0.662326 0.543658
C47   C     C_R   0.036336 0.680598 0.338558 0.556661
C48   C     C_R   0.964918 0.679759 0.662327 0.543656
C49   C     C_3   0.490672 0.075934 0.033118 -0.112644
C50   C     C_3   0.522740 0.076888 0.964808 -0.111750
C51   C     C_3   0.990673 0.575934 0.033118 -0.112644
C52   C     C_3   0.022740 0.576888 0.964808 -0.111750
C53   C     C_1   0.776542 0.465109 0.912373 -0.026942
C54   C     C_1   0.236220 0.427195 0.095503 -0.018935
C55   C     C_1   0.276542 0.965109 0.912373 -0.026942
C56   C     C_1   0.736220 0.927195 0.095503 -0.018935
C57   C     C_1   0.751812 0.423937 0.038187 -0.065413
C58   C     C_1   0.252989 0.404537 0.965930 -0.067252
C59   C     C_1   0.251812 0.923937 0.038187 -0.065413
C60   C     C_1   0.752989 0.904536 0.965930 -0.067252
C61   C     C_1   0.763364 0.445352 0.969703 -0.069203
C62   C     C_1   0.245385 0.414829 0.036232 -0.065506
C63   C     C_1   0.263364 0.945352 0.969703 -0.069203
C64   C     C_1   0.745385 0.914829 0.036232 -0.065506
C65   C     C_1   0.744148 0.400349 0.096757 -0.029134
C66   C     C_1   0.258238 0.390100 0.905847 -0.027945
C67   C     C_1   0.244148 0.900349 0.096757 -0.029134
C68   C     C_1   0.758238 0.890100 0.905847 -0.027946
C69   C     C_R   0.738368 0.362776 0.361692 0.597451
C70   C     C_R   0.273763 0.317264 0.631759 0.554119
C71   C     C_R   0.238369 0.862777 0.361692 0.597451
C72   C     C_R   0.773764 0.817264 0.631759 0.554118
C73   C     C_R   0.721253 0.954295 0.163368 0.529124
C74   C     C_R   0.293266 0.993413 0.845317 0.532288
C75   C     C_R   0.221253 0.454295 0.163368 0.529125
C76   C     C_R   0.793266 0.493414 0.845317 0.532288
C77   C     C_R   0.563796 0.182467 0.136554 0.543916
C78   C     C_R   0.440581 0.182551 0.864757 0.531407
C79   C     C_R   0.063796 0.682467 0.136554 0.543916
C80   C     C_R   0.940581 0.682551 0.864757 0.531405
C81   C     C_R   0.735562 0.359071 0.164263 0.539993
C82   C     C_R   0.264736 0.357551 0.836287 0.536986
C83   C     C_R   0.235562 0.859071 0.164263 0.539992
C84   C     C_R   0.764736 0.857551 0.836287 0.536987
C85   C     C_1   0.487774 0.171786 0.595862 0.005942
C86   C     C_1   0.517040 0.173715 0.406549 0.040797
C87   C     C_1   0.987774 0.671786 0.595862 0.005941
C88   C     C_1   0.017040 0.673716 0.406549 0.040795
C89   C     C_1   0.507993 0.170508 0.466336 0.029243
C90   C     C_1   0.499121 0.169467 0.536750 0.007158
C91   C     C_1   0.007993 0.670508 0.466336 0.029241
C92   C     C_1   0.999121 0.669467 0.536750 0.007157
C93   C     C_3   0.704678 0.338571 0.528020 -0.151982
C94   C     C_3   0.316734 0.404546 0.471395 -0.116588
C95   C     C_3   0.204681 0.838572 0.528019 -0.151985
C96   C     C_3   0.816735 0.904537 0.471393 -0.116587
Cr1   Cr    Cr6+3 0.765830 0.160660 0.268180 1.029820
Cr2   Cr    Cr6+3 0.234170 0.160660 0.731820 1.031508
Cr3   Cr    Cr6+3 0.265830 0.660660 0.268180 1.029820
Cr4   Cr    Cr6+3 0.734170 0.660660 0.731820 1.031508
Cr5   Cr    Cr6+3 0.612110 0.009150 0.248770 1.036064
Cr6   Cr    Cr6+3 0.387890 0.009150 0.751230 1.017929
Cr7   Cr    Cr6+3 0.112110 0.509150 0.248770 1.036065
Cr8   Cr    Cr6+3 0.887890 0.509150 0.751230 1.017932
Cr9   Cr    Cr6+3 0.615930 0.324050 0.248450 1.004959
Cr10  Cr    Cr6+3 0.384070 0.324050 0.751550 0.984797
Cr11  Cr    Cr6+3 0.115930 0.824050 0.248450 1.004959
Cr12  Cr    Cr6+3 0.884070 0.824050 0.751550 0.984806
H1    H     H_    0.768906 0.202825 0.463042 0.134905
H2    H     H_    0.327678 0.210580 0.517936 0.164116
H3    H     H_    0.268911 0.702826 0.463044 0.134908
H4    H     H_    0.827676 0.710575 0.517936 0.164116
H5    H     H_    0.668580 0.280624 0.552194 0.123670
H6    H     H_    0.365272 0.415225 0.449051 0.130719
H7    H     H_    0.168582 0.780625 0.552193 0.123668
H8    H     H_    0.865272 0.915212 0.449047 0.130720
H9    H     H_    0.226566 0.113079 0.537770 0.127227
H10   H     H_    0.686759 0.075328 0.481194 0.118785
H11   H     H_    0.726566 0.613077 0.537771 0.127227
H12   H     H_    0.186756 0.575330 0.481195 0.118783
H13   H     H_    0.867663 0.351501 0.544794 0.152110
H14   H     H_    0.192781 0.227919 0.428765 0.142348
H15   H     H_    0.367665 0.851506 0.544793 0.152112
H16   H     H_    0.692778 0.727917 0.428766 0.142346
H17   H     H_    0.533319 0.361130 0.940076 0.134387
H18   H     H_    0.474333 0.360986 0.058205 0.137166
H19   H     H_    0.033320 0.861130 0.940076 0.134387
H20   H     H_    0.974333 0.860986 0.058205 0.137166
H21   H     H_    0.478644 0.991831 0.060386 0.133536
H22   H     H_    0.536502 0.994216 0.936549 0.132192
H23   H     H_    0.978644 0.491831 0.060386 0.133536
H24   H     H_    0.036502 0.494216 0.936549 0.132192
O1    O     O_R   0.783230 0.287800 0.346510 -0.491544
O2    O     O_R   0.216770 0.287800 0.653490 -0.451161
O3    O     O_R   0.283230 0.787800 0.346510 -0.491546
O4    O     O_R   0.716770 0.787800 0.653490 -0.451159
O5    O     O_R   0.554500 0.081650 0.170370 -0.503997
O6    O     O_R   0.445500 0.081650 0.829630 -0.509029
O7    O     O_R   0.054500 0.581650 0.170370 -0.503997
O8    O     O_R   0.945500 0.581650 0.829630 -0.509029
O9    O     O_R   0.545430 0.285140 0.163100 -0.527099
O10   O     O_R   0.454570 0.285140 0.836900 -0.518467
O11   O     O_R   0.045430 0.785140 0.163100 -0.527099
O12   O     O_R   0.954570 0.785140 0.836900 -0.518465
O13   O     O_R   0.677850 0.374730 0.185500 -0.507718
O14   O     O_R   0.322150 0.374730 0.814500 -0.505470
O15   O     O_R   0.177850 0.874730 0.185500 -0.507718
O16   O     O_R   0.822150 0.874730 0.814500 -0.505467
O17   O     O_3   0.664630 0.164620 0.255130 -0.287390
O18   O     O_3   0.335370 0.164620 0.744870 -0.308596
O19   O     O_3   0.164630 0.664620 0.255130 -0.287390
O20   O     O_3   0.835370 0.664620 0.744870 -0.308597
O21   O     O_R   0.760130 0.037060 0.338610 -0.514275
O22   O     O_R   0.239870 0.037060 0.661390 -0.516625
O23   O     O_R   0.260130 0.537060 0.338610 -0.514274
O24   O     O_R   0.739870 0.537060 0.661390 -0.516626
O25   O     O_R   0.666620 0.921370 0.332440 -0.506584
O26   O     O_R   0.333380 0.921370 0.667560 -0.517355
O27   O     O_R   0.166620 0.421370 0.332440 -0.506583
O28   O     O_R   0.833380 0.421370 0.667560 -0.517352
O29   O     O_R   0.557170 0.082420 0.312350 -0.471611
O30   O     O_R   0.442830 0.082420 0.687650 -0.473407
O31   O     O_R   0.057170 0.582420 0.312350 -0.471610
O32   O     O_R   0.942830 0.582420 0.687650 -0.473406
O33   O     O_R   0.548310 0.285980 0.316250 -0.535359
O34   O     O_R   0.451690 0.285980 0.683750 -0.543710
O35   O     O_R   0.048310 0.785980 0.316250 -0.535360
O36   O     O_R   0.951690 0.785980 0.683750 -0.543715
O37   O     O_R   0.680520 0.375500 0.327470 -0.523597
O38   O     O_R   0.319480 0.375500 0.672530 -0.512246
O39   O     O_R   0.180520 0.875500 0.327470 -0.523597
O40   O     O_R   0.819480 0.875500 0.672530 -0.512243
O41   O     O_R   0.780350 0.286970 0.193350 -0.501355
O42   O     O_R   0.219650 0.286970 0.806650 -0.501843
O43   O     O_R   0.280350 0.786970 0.193350 -0.501355
O44   O     O_R   0.719650 0.786970 0.806650 -0.501844
O45   O     O_R   0.757460 0.036290 0.196640 -0.500235
O46   O     O_R   0.242540 0.036290 0.803360 -0.495654
O47   O     O_R   0.257460 0.536290 0.196640 -0.500234
O48   O     O_R   0.742540 0.536290 0.803360 -0.495654
O49   O     O_R   0.663740 0.920540 0.179290 -0.515504
O50   O     O_R   0.336260 0.920540 0.820710 -0.514912
O51   O     O_R   0.163740 0.420540 0.179290 -0.515503
O52   O     O_R   0.836260 0.420540 0.820710 -0.514911
C97   C     C_3   0.616447 0.485059 0.443417 -0.246284
C98   C     C_3   0.576828 0.551940 0.494930 -0.307847
C99   C     C_3   0.519057 0.628032 0.456823 -0.409142
H25   H     H_    0.539336 0.692691 0.420962 0.193189
H26   H     H_    0.480954 0.568098 0.426941 0.139969
H27   H     H_    0.493707 0.682337 0.494518 0.188186
H28   H     H_    0.555807 0.484749 0.528867 0.151221
H29   H     H_    0.610657 0.613571 0.528392 0.222366
H30   H     H_    0.623614 0.546075 0.399678 0.161242
H31   H     H_    0.586697 0.405379 0.422693 0.174927
C100  C     C_3   0.338403 0.567099 0.575116 -0.241905
C101  C     C_3   0.411406 0.518403 0.588826 -0.287985
C102  C     C_3   0.452922 0.584871 0.648609 -0.399073
H32   H     H_    0.454215 0.683780 0.637574 0.163607
H33   H     H_    0.430347 0.570598 0.697306 0.167739
H34   H     H_    0.505946 0.549015 0.655446 0.150863
H35   H     H_    0.411173 0.420295 0.598522 0.214867
H36   H     H_    0.436339 0.528807 0.541615 0.135139
H37   H     H_    0.343052 0.650973 0.547190 0.133706
H38   H     H_    0.316776 0.588867 0.623664 0.180965
C103  C     C_3   0.116448 0.985059 0.443417 -0.246285
C104  C     C_3   0.076828 0.051934 0.494931 -0.307846
C105  C     C_3   0.019056 0.128026 0.456826 -0.409140
H39   H     H_    0.039335 0.192691 0.420968 0.193196
H40   H     H_    0.980955 0.068092 0.426941 0.139969
H41   H     H_    0.993704 0.182324 0.494522 0.188181
H42   H     H_    0.055808 0.984740 0.528867 0.151220
H43   H     H_    0.110657 0.113566 0.528394 0.222368
H44   H     H_    0.123614 0.046078 0.399680 0.161242
H45   H     H_    0.086699 0.905379 0.422692 0.174929
C106  C     C_3   0.838410 0.067098 0.575105 -0.241910
C107  C     C_3   0.911410 0.018389 0.588821 -0.287991
C108  C     C_3   0.952931 0.084874 0.648595 -0.399076
H46   H     H_    0.954241 0.183774 0.637539 0.163614
H47   H     H_    0.930349 0.070651 0.697292 0.167723
H48   H     H_    0.005949 0.048991 0.655444 0.150869
H49   H     H_    0.911169 0.920287 0.598531 0.214886
H50   H     H_    0.936345 0.028760 0.541608 0.135134
H51   H     H_    0.843067 0.150961 0.547168 0.133710
H52   H     H_    0.816783 0.088886 0.623651 0.180959
Cl1   Cl    Cl    0.853805 0.554232 0.424893 -0.661725
Cl2   Cl    Cl    0.112972 0.368660 0.544044 -0.633970
Cl3   Cl    Cl    0.353804 0.054238 0.424891 -0.661727
Cl4   Cl    Cl    0.612974 0.868666 0.544045 -0.633966
C109  C     C_3   0.645448 0.172443 0.978270 -0.262656
C110  C     C_3   0.650519 0.226253 0.906226 -0.290203
C111  C     C_3   0.716175 0.189998 0.877954 -0.418188
H53   H     H_    0.760664 0.194659 0.918757 0.172395
H54   H     H_    0.711117 0.096964 0.856389 0.154610
H55   H     H_    0.724676 0.251344 0.834864 0.173698
H56   H     H_    0.607191 0.194851 0.868473 0.189464
H57   H     H_    0.647305 0.326886 0.909274 0.172409
H58   H     H_    0.678970 0.221074 0.018739 0.148034
H59   H     H_    0.660868 0.076112 0.978768 0.163123
C112  C     C_3   0.368657 0.164683 0.028052 -0.267785
C113  C     C_3   0.367907 0.217371 0.101593 -0.288348
C114  C     C_3   0.308982 0.170382 0.137061 -0.422112
H60   H     H_    0.260596 0.171768 0.101376 0.168884
H61   H     H_    0.320754 0.076660 0.155624 0.165609
H62   H     H_    0.303011 0.227658 0.183005 0.158605
H63   H     H_    0.415443 0.192136 0.135215 0.203489
H64   H     H_    0.365685 0.318050 0.099036 0.168134
H65   H     H_    0.330082 0.208937 0.990270 0.147088
H66   H     H_    0.358133 0.066929 0.030004 0.162948
C115  C     C_3   0.145448 0.672443 0.978270 -0.262656
C116  C     C_3   0.150519 0.726253 0.906226 -0.290202
C117  C     C_3   0.216175 0.689998 0.877954 -0.418189
H67   H     H_    0.260664 0.694659 0.918756 0.172395
H68   H     H_    0.211117 0.596964 0.856389 0.154609
H69   H     H_    0.224676 0.751344 0.834864 0.173698
H70   H     H_    0.107190 0.694851 0.868473 0.189464
H71   H     H_    0.147305 0.826886 0.909274 0.172409
H72   H     H_    0.178970 0.721074 0.018739 0.148034
H73   H     H_    0.160867 0.576113 0.978768 0.163123
C118  C     C_3   0.868657 0.664683 0.028052 -0.267785
C119  C     C_3   0.867907 0.717371 0.101593 -0.288348
C120  C     C_3   0.808982 0.670382 0.137061 -0.422113
H74   H     H_    0.760596 0.671768 0.101376 0.168884
H75   H     H_    0.820753 0.576660 0.155624 0.165609
H76   H     H_    0.803011 0.727658 0.183005 0.158604
H77   H     H_    0.915443 0.692136 0.135215 0.203489
H78   H     H_    0.865685 0.818050 0.099036 0.168134
H79   H     H_    0.830082 0.708937 0.990270 0.147088
H80   H     H_    0.858133 0.566929 0.030004 0.162948

loop_
_geom_bond_atom_site_label_1
_geom_bond_atom_site_label_2
_ccdc_geom_bond_type
C58   C62   S    
C79   O7    A    
C14   C100  S    
Cr2   O22   S    
Cr11  O19   S    
C67   C83   S    
Cr10  O18   S    
C83   O43   A    
C102  H34   S    
C17   C29   S    
C14   C18   S    
C19   C23   S    
C35   C36   S    
C8    C96   S    
Cr1   O1    S    
C115  H73   S    
C75   O51   A    
C106  H52   S    
Cr6   O26   S    
C20   H10   S    
C94   H6    S    
C68   C84   S    
Cr5   O49   S    
C117  H67   S    
C38   C49   S    
Cr11  O39   S    
C103  C104  S    
C10   C22   S    
C108  H48   S    
C7    C11   S    
C103  H44   S    
Cr2   O18   S    
C115  C116  S    
C57   C61   S    
Cr9   O37   S    
Cr7   O51   S    
C33   C42   S    
C72   O40   A    
C112  C113  S    
C77   O5    A    
C38   C42   S    
Cr11  O11   S    
C78   O10   A    
C15   C95   S    
C120  H74   S    
Cr2   O42   S    
C41   C77   S    
C11   C71   S    
C117  H68   S    
C100  H37   S    
C109  H59   S    
C43   C79   S    
C4    O28   A    
Cr4   O48   S    
C27   H15   S    
C7    C27   S    
C112  H65   S    
C114  H60   S    
Cr6   O6    S    
Cr5   O17   S    
C98   H28   S    
C102  H33   S    
C45   O29   A    
C107  H49   S    
C99   H27   S    
C9    C13   S    
C118  H80   S    
C50   H22   S    
C59   C67   T    
C38   C112  S    
C15   C19   S    
C55   C74   S    
C11   C15   S    
C104  H42   S    
C58   C66   T    
C79   O11   A    
C97   C98   S    
C12   C16   S    
C95   H7    S    
C6    C94   S    
C55   C63   T    
Cr4   O44   S    
C105  H41   S    
C69   O1    A    
C56   C64   T    
C110  H57   S    
C18   C30   S    
Cr1   O21   S    
Cr2   O46   S    
C18   C22   S    
C75   O47   A    
C73   O49   A    
C97   H31   S    
C4    C29   S    
C8    C12   S    
C46   C85   S    
C47   O31   A    
C34   H18   S    
Cr4   O24   S    
C39   C52   S    
Cr12  O36   S    
C98   C99   S    
C19   C31   S    
Cr5   O29   S    
C2    O22   A    
C116  C117  S    
Cr12  O20   S    
C87   C92   T    
C116  H71   S    
Cr10  O38   S    
C5    C9    S    
C36   H20   S    
C34   C41   S    
C53   C61   T    
Cr8   O28   S    
C78   O6    A    
C70   O2    A    
C41   C49   S    
C96   H8    S    
C82   O14   A    
C40   C118  S    
Cr10  O10   S    
C107  H50   S    
Cr9   O17   S    
C84   O16   A    
C25   C29   S    
C16   C106  S    
Cr11  O35   S    
C24   Cl4   S    
C16   C96   S    
C13   C97   S    
C27   C31   S    
C51   C52   S    
Cr6   O50   S    
C98   H29   S    
C20   C24   S    
C44   C80   S    
C72   O4    A    
Cr1   O41   S    
C107  C108  S    
C10   C14   S    
C115  H72   S    
C91   C92   S    
C120  H75   S    
C29   C93   S    
C104  C105  S    
C119  C120  S    
C117  H69   S    
C39   C43   S    
C100  H38   S    
C54   C62   T    
C80   O12   A    
C108  H46   S    
C80   O8    A    
Cr3   O19   S    
C113  H64   S    
C1    C32   S    
Cr4   O20   S    
C105  H39   S    
Cr3   O23   S    
C112  H66   S    
C114  H61   S    
C52   H24   S    
C6    H2    S    
C3    C30   S    
C35   C39   S    
C106  C107  S    
Cr3   O47   S    
C109  C110  S    
Cr7   O7    S    
C66   C82   S    
C47   O35   A    
Cr1   O45   S    
C102  H32   S    
C39   C115  S    
C88   C91   T    
C28   C32   S    
C16   C20   S    
Cr9   O13   S    
Cr7   O31   S    
C33   H17   S    
C33   C34   S    
C48   C87   S    
Cr3   O3    S    
C110  H56   S    
C111  H54   S    
C69   O37   A    
C1    O21   A    
C35   C44   S    
C74   O46   A    
C60   C68   T    
C15   C103  S    
C42   C50   S    
C74   O50   A    
C10   C70   S    
Cr8   O52   S    
Cr6   O18   S    
C103  H45   S    
C26   C30   S    
C23   C27   S    
C25   H13   S    
Cr12  O40   S    
C46   O30   A    
C113  H63   S    
C8    C28   S    
C83   O15   A    
C53   C76   S    
C3    O23   A    
C109  H58   S    
C118  C119  S    
C9    C21   S    
C18   H12   S    
Cr12  O12   S    
C36   C40   S    
C21   Cl1   S    
Cr6   O30   S    
Cr7   O27   S    
C33   C37   S    
C20   C32   S    
C116  H70   S    
C21   C25   S    
Cr11  O15   S    
Cr5   O5    S    
C56   C73   S    
C46   O34   A    
C32   C96   S    
C22   Cl2   S    
C34   C38   S    
C59   C63   S    
Cr1   O17   S    
C24   C28   S    
C9    C69   S    
C101  C102  S    
C76   O48   A    
C86   C89   T    
C106  H51   S    
C44   C52   S    
C5    C25   S    
C120  H76   S    
C5    C93   S    
C85   C90   T    
C28   H16   S    
C42   C78   S    
C48   O32   A    
Cr7   O19   S    
C108  H47   S    
C40   C51   S    
C7    C95   S    
C12   C24   S    
C81   O13   A    
Cr10  O14   S    
C13   C17   S    
C60   C64   S    
C114  H62   S    
C23   Cl3   S    
Cr8   O20   S    
C35   H19   S    
C1    O25   A    
C45   C86   S    
C70   O38   A    
C82   O42   A    
C73   O45   A    
C99   H25   S    
C30   C94   S    
C76   O52   A    
C100  C101  S    
C47   C88   S    
C71   O3    A    
C37   C50   S    
C43   C51   S    
Cr8   O32   S    
C6    C26   S    
C49   H21   S    
Cr10  O34   S    
C31   C95   S    
C5    H1    S    
C11   C23   S    
C113  C114  S    
C8    H4    S    
C7    H3    S    
C45   O33   A    
C111  H55   S    
C71   O39   A    
Cr2   O2    S    
C101  H35   S    
C104  H43   S    
C37   C41   S    
C110  C111  S    
C12   C72   S    
Cr9   O9    S    
C77   O9    A    
C99   H26   S    
C118  H79   S    
C6    C10   S    
C17   H11   S    
C3    O27   A    
Cr5   O25   S    
C54   C75   S    
C119  H77   S    
Cr8   O8    S    
C40   C44   S    
C4    O24   A    
Cr3   O43   S    
C2    O26   A    
C19   H9    S    
C93   H5    S    
C49   C50   S    
C22   C26   S    
C51   H23   S    
C13   C93   S    
C111  H53   S    
C105  H40   S    
Cr9   O33   S    
C65   C81   S    
C2    C31   S    
C36   C43   S    
C97   H30   S    
C37   C109  S    
C26   H14   S    
Cr12  O16   S    
C89   C90   S    
C84   O44   A    
C119  H78   S    
C48   O36   A    
C14   C94   S    
Cr4   O4    S    
C101  H36   S    
C81   O41   A    
C57   C65   T    
C17   C21   S    
