data_mof_unit_9601.cif
_audit_creation_date              2013-03-05T15:53:06-0500
_audit_creation_method            fapswitch 2.2
_symmetry_space_group_name_H-M    P1
_symmetry_Int_Tables_number       1
_space_group_crystal_system       triclinic
_cell_length_a                    9.895269
_cell_length_b                    10.721899
_cell_length_c                    15.424167
_cell_angle_alpha                 91.343008
_cell_angle_beta                  68.324834
_cell_angle_gamma                 88.720774
_cell_volume                      1519.47179974

loop_
_atom_site_label
_atom_site_type_symbol
_atom_site_description
_atom_site_fract_x
_atom_site_fract_y
_atom_site_fract_z
_atom_type_partial_charge
O1    O     O_R   0.385310 0.683220 0.500000 -0.650746
O2    O     O_R   0.614640 0.683250 0.500010 -0.639035
C1    C     C_R   0.499770 0.740453 0.495839 0.870587
O3    O     O_R   0.319840 0.499980 0.632240 -0.632124
O4    O     O_R   0.549160 0.500000 0.632250 -0.624096
C2    C     C_R   0.409356 0.498644 0.675934 0.849546
Zn1   Zn    Zn3+2 0.346880 0.499980 0.499990 0.931224
Zn2   Zn    Zn3+2 0.653120 0.500020 0.500010 0.951515
O5    O     O_R   0.385360 0.316750 0.499990 -0.616631
O6    O     O_R   0.614690 0.316780 0.500000 -0.602995
O7    O     O_R   0.450840 0.500000 0.367750 -0.619727
O8    O     O_R   0.680160 0.500020 0.367760 -0.614703
C3    C     C_R   0.495642 0.261339 0.509430 0.883507
C4    C     C_R   0.590718 0.497170 0.323871 0.872106
C5    C     C_R   0.353514 0.486103 0.776842 -0.062556
C6    C     C_R   0.644571 0.470716 0.223287 -0.057114
C7    C     C_R   0.158637 0.499078 0.927971 -0.204165
C8    C     C_R   0.206449 0.509083 0.831559 -0.189731
C9    C     C_R   0.450800 0.448515 0.818291 -0.236996
C10   C     C_R   0.404721 0.434964 0.914617 0.090266
C11   C     C_R   0.257176 0.464419 0.969970 0.129451
C12   C     C_R   0.504019 0.401980 0.957583 0.024400
C13   C     C_R   0.459585 0.420034 0.055392 0.022571
C14   C     C_R   0.307491 0.434134 0.110070 0.084440
C15   C     C_R   0.209519 0.458118 0.066492 -0.234683
C16   C     C_R   0.646294 0.352588 0.906411 -0.185849
C17   C     C_R   0.746478 0.334504 0.949229 -0.220428
C18   C     C_R   0.711143 0.373812 0.041921 0.167037
C19   C     C_R   0.569559 0.423331 0.093618 0.094950
C20   C     C_R   0.815436 0.366680 0.083657 -0.222580
C21   C     C_R   0.780659 0.411917 0.175303 -0.203576
C22   C     C_R   0.545161 0.483451 0.179304 -0.270619
H1    H     H_    0.095088 0.472197 0.108799 0.153553
H2    H     H_    0.446834 0.539180 0.213758 0.158229
H3    H     H_    0.857970 0.398528 0.209158 0.155378
H4    H     H_    0.853916 0.295399 0.908481 0.171520
H5    H     H_    0.045454 0.520985 0.969772 0.149765
H6    H     H_    0.129551 0.537369 0.800195 0.165432
H7    H     H_    0.563999 0.434890 0.774476 0.176843
H8    H     H_    0.681245 0.323234 0.833835 0.199457
H9    H     H_    0.922234 0.324136 0.046180 0.146638
H10   H     H_    0.724735 0.883878 0.470271 0.175039
C23   C     C_R   0.234640 0.897651 0.503373 -0.240934
H11   H     H_    0.235960 0.813102 0.463872 0.191078
C24   C     C_R   0.101769 0.964235 0.539579 -0.244263
H12   H     H_    0.007125 0.924934 0.531417 0.186329
C25   C     C_R   0.090876 0.078855 0.587069 0.360639
C26   C     C_R   0.218578 0.130800 0.588731 -0.240698
H13   H     H_    0.210649 0.219635 0.625338 0.196885
C27   C     C_R   0.355790 0.069043 0.543314 0.040531
C28   C     C_R   0.361205 0.944504 0.513467 0.106747
C29   C     C_R   0.494149 0.874772 0.494215 -0.119633
C30   C     C_R   0.621931 0.934731 0.486622 -0.215104
H14   H     H_    0.722894 0.106809 0.483212 0.193874
C31   C     C_R   0.620364 0.061701 0.497277 -0.151610
C32   C     C_R   0.488942 0.129427 0.522677 -0.109879
H15   H     H_    0.937728 0.357539 0.396324 0.140239
C33   C     C_R   0.786472 0.664423 0.623608 -0.169408
H16   H     H_    0.677402 0.673830 0.627095 0.206034
C34   C     C_R   0.819997 0.741492 0.686190 -0.165984
H17   H     H_    0.737418 0.804532 0.733785 0.173182
C35   C     C_R   0.959088 0.738176 0.687504 -0.184128
H18   H     H_    0.985116 0.798768 0.735898 0.161277
C36   C     C_R   0.066013 0.659061 0.625302 -0.179305
H19   H     H_    0.171432 0.663656 0.628529 0.207475
C37   C     C_R   0.035759 0.579495 0.561290 0.171682
C38   C     C_R   0.891284 0.580613 0.560859 0.185286
N1    N     N_R   0.856800 0.501200 0.500850 -0.116619
C39   C     C_R   0.963215 0.421533 0.442958 -0.082458
H20   H     H_    0.188081 0.356234 0.397691 0.147704
C40   C     C_R   0.106230 0.421247 0.443316 -0.090841
N2    N     N_R   0.142390 0.501280 0.500880 -0.121346
N3    N     N_R   0.952434 0.144471 0.629795 0.197775
O9    O     O_R   0.833106 0.092654 0.632893 -0.432403
O10   O     O_R   0.944230 0.256394 0.666348 -0.435740
N4    N     N_3   0.245685 0.405813 0.207109 -0.480321
H21   H     H_    0.316141 0.348710 0.226333 0.197837
H22   H     H_    0.219438 0.489092 0.247153 0.180995

loop_
_geom_bond_atom_site_label_1
_geom_bond_atom_site_label_2
_geom_bond_distance
_ccdc_geom_bond_type
C5    C8    1.399195 A    
C31   C32   1.392887 A    
N3    O9    1.301560 A    
C9    C10   1.396111 A    
C23   C28   1.418997 A    
C24   H12   1.082930 S    
C6    C21   1.400941 A    
Zn1   O7    1.915376 S    
C16   C17   1.391981 A    
C13   C19   1.416962 A    
C18   C19   1.415021 A    
N4    H22   1.044748 S    
C19   C22   1.392095 A    
H10   C30   1.083983 S    
C20   C21   1.397471 A    
O7    C4    1.296136 A    
C33   C34   1.391407 A    
C34   C35   1.383633 A    
C24   C25   1.397157 A    
C39   C40   1.417151 A    
O5    C3    1.287446 A    
C35   C36   1.389758 A    
C2    C5    1.457295 S    
C37   N2    1.372014 A    
N1    C39   1.365759 A    
C13   C14   1.430191 A    
C20   H9    1.083465 S    
H20   C40   1.080699 S    
C3    C32   1.433264 S    
C26   C27   1.417105 A    
C37   C38   1.431874 A    
N3    O10   1.301784 A    
O3    Zn1   1.956884 S    
C27   C28   1.395557 A    
C30   C31   1.366463 A    
C38   N1    1.381108 A    
N4    H21   1.044497 S    
C25   N3    1.440232 S    
O3    C2    1.296101 A    
Zn1   N2    2.018187 S    
C14   N4    1.435235 S    
C33   H16   1.062965 S    
C7    C11   1.403647 A    
C28   C29   1.426493 A    
C34   H17   1.082798 S    
O1    C1    1.281667 A    
C36   C37   1.408008 A    
C5    C9    1.395441 A    
C23   H11   1.077440 S    
C35   H18   1.082740 S    
C25   C26   1.400832 A    
Zn2   O8    1.956881 S    
C7    C8    1.391685 A    
C7    H5    1.083034 S    
C14   C15   1.391440 A    
C23   C24   1.395432 A    
C9    H7    1.077797 S    
C26   H13   1.082090 S    
C10   C12   1.416398 A    
Zn2   N1    2.020609 S    
C4    C6    1.460565 S    
C29   C30   1.398660 A    
Zn1   O5    1.992770 S    
C11   C15   1.389564 A    
H14   C31   1.083767 S    
O1    Zn1   2.009471 S    
O2    Zn2   1.992771 S    
O8    C4    1.298205 A    
O6    C3    1.292662 A    
O4    Zn2   1.915376 S    
C1    C29   1.441148 S    
C17   H4    1.084079 S    
C6    C22   1.392047 A    
C36   H19   1.064699 S    
C18   C20   1.405283 A    
O2    C1    1.302714 A    
C8    H6    1.083278 S    
C40   N2    1.365778 A    
C16   H8    1.079077 S    
O4    C2    1.296454 A    
C21   H3    1.082702 S    
C27   C32   1.412247 A    
C33   C38   1.412807 A    
C10   C11   1.416422 A    
Zn2   O6    2.009469 S    
C12   C16   1.418361 A    
C15   H1    1.082920 S    
C17   C18   1.392776 A    
C12   C13   1.413965 A    
H15   C39   1.081834 S    
C22   H2    1.078581 S    
