data_mof_unit_21840.cif
_audit_creation_date              2012-12-11T15:08:31-0500
_audit_creation_method            fapswitch 2.2
_symmetry_space_group_name_H-M    P1
_symmetry_Int_Tables_number       1
_space_group_crystal_system       triclinic
_cell_length_a                    25.977507
_cell_length_b                    27.621849
_cell_length_c                    8.41084
_cell_angle_alpha                 89.999963
_cell_angle_beta                  96.065851
_cell_angle_gamma                 89.999958
_cell_volume                      6001.38081722

loop_
_atom_site_label
_atom_site_type_symbol
_atom_type_description
_atom_site_fract_x
_atom_site_fract_y
_atom_site_fract_z
_atom_type_partial_charge
Ba1   Ba    Ba6+2 0.999910 0.465960 0.844870 1.616909
Ba2   Ba    Ba6+2 0.999910 0.534040 0.344870 1.616922
Ba3   Ba    Ba6+2 0.499910 0.965960 0.844870 1.616920
Ba4   Ba    Ba6+2 0.499910 0.034040 0.344870 1.616917
C1    C     C_3   0.045644 0.243174 0.683089 -0.348668
C2    C     C_3   0.045638 0.756826 0.183144 -0.348676
C3    C     C_3   0.545640 0.743173 0.683078 -0.348667
C4    C     C_3   0.545638 0.256826 0.183088 -0.348667
C5    C     C_R   0.885930 0.390470 0.149827 0.076857
C6    C     C_R   0.885930 0.609529 0.649826 0.076913
C7    C     C_R   0.385929 0.890471 0.149827 0.076853
C8    C     C_R   0.385928 0.109528 0.649830 0.076847
C9    C     C_R   0.845945 0.357766 0.098976 -0.130434
C10   C     C_R   0.845944 0.642233 0.598974 -0.130374
C11   C     C_R   0.345942 0.857768 0.098981 -0.130433
C12   C     C_R   0.345941 0.142231 0.598981 -0.130432
C13   C     C_R   0.834928 0.317697 0.195027 -0.010691
C14   C     C_R   0.834928 0.682303 0.695024 -0.010672
C15   C     C_R   0.334925 0.817699 0.195032 -0.010684
C16   C     C_R   0.334923 0.182300 0.695034 -0.010687
C17   C     C_R   0.864145 0.312036 0.345445 -0.123528
C18   C     C_R   0.864145 0.687963 0.845442 -0.123526
C19   C     C_R   0.364143 0.812037 0.345448 -0.123511
C20   C     C_R   0.364139 0.187960 0.845454 -0.123509
C21   C     C_R   0.903714 0.344911 0.396755 0.033302
C22   C     C_R   0.903713 0.655087 0.896754 0.033227
C23   C     C_R   0.403713 0.844912 0.396756 0.033293
C24   C     C_R   0.403709 0.155085 0.896762 0.033314
C25   C     C_R   0.796025 0.233422 0.171541 -0.083366
C26   C     C_R   0.796024 0.766577 0.671545 -0.083362
C27   C     C_R   0.296021 0.733425 0.171536 -0.083366
C28   C     C_R   0.296020 0.266574 0.671560 -0.083368
C29   C     C_R   0.255207 0.701592 0.122467 -0.099639
C30   C     C_R   0.255207 0.298407 0.622488 -0.099637
C31   C     C_R   0.755212 0.201589 0.122470 -0.099640
C32   C     C_R   0.755209 0.798410 0.622477 -0.099644
C33   C     C_R   0.208067 0.718499 0.043188 0.040394
C34   C     C_R   0.208070 0.281503 0.543180 0.040403
C35   C     C_R   0.708074 0.218494 0.043176 0.040404
C36   C     C_R   0.708073 0.781505 0.543176 0.040403
C37   C     C_R   0.203083 0.769383 0.015494 0.142929
C38   C     C_R   0.203088 0.230620 0.515459 0.142923
C39   C     C_R   0.703090 0.269378 0.015468 0.142926
C40   C     C_R   0.703090 0.730621 0.515458 0.142926
C41   C     C_R   0.744415 0.300737 0.065114 -0.051574
C42   C     C_R   0.744415 0.699263 0.565103 -0.051576
C43   C     C_R   0.244409 0.800742 0.065138 -0.051570
C44   C     C_R   0.244412 0.199261 0.565106 -0.051569
C45   C     C_3   0.986123 0.289241 0.108839 0.343435
C46   C     C_3   0.986164 0.710800 0.609055 0.343237
C47   C     C_3   0.486120 0.789243 0.108823 0.343436
C48   C     C_3   0.486119 0.210753 0.608838 0.343452
C49   C     C_R   0.791384 0.283460 0.142714 0.026894
C50   C     C_R   0.791383 0.716539 0.642711 0.026891
C51   C     C_R   0.291380 0.783464 0.142722 0.026887
C52   C     C_R   0.291379 0.216536 0.642721 0.026891
C53   C     C_R   0.138497 0.685589 0.836454 -0.134748
C54   C     C_R   0.138507 0.314420 0.336435 -0.134767
C55   C     C_R   0.638510 0.185579 0.836433 -0.134768
C56   C     C_R   0.638507 0.814420 0.336434 -0.134769
C57   C     C_R   0.098617 0.652942 0.787902 0.015646
C58   C     C_R   0.098628 0.347066 0.287883 0.015728
C59   C     C_R   0.598630 0.152932 0.787881 0.015748
C60   C     C_R   0.598627 0.847066 0.287884 0.015728
C61   C     C_R   0.114850 0.609666 0.038575 0.063651
C62   C     C_R   0.114852 0.390336 0.538571 0.063634
C63   C     C_R   0.614853 0.109663 0.038570 0.063638
C64   C     C_R   0.614851 0.890335 0.538572 0.063642
C65   C     C_R   0.154123 0.643312 0.089946 -0.131597
C66   C     C_R   0.154124 0.356689 0.589942 -0.131595
C67   C     C_R   0.654127 0.143309 0.089939 -0.131587
C68   C     C_R   0.654125 0.856690 0.589941 -0.131591
C69   C     C_R   0.165673 0.682649 0.990691 -0.016204
C70   C     C_R   0.165679 0.317355 0.490680 -0.016221
C71   C     C_R   0.665682 0.182642 0.990677 -0.016227
C72   C     C_R   0.665680 0.817356 0.490678 -0.016223
C73   C     C_R   0.085912 0.616326 0.890898 -0.285437
C74   C     C_R   0.085917 0.383678 0.390887 -0.285476
C75   C     C_R   0.585919 0.116321 0.890885 -0.285479
C76   C     C_R   0.585916 0.883677 0.390889 -0.285479
C77   C     C_3   0.962007 0.239115 0.093623 -0.369217
C78   C     C_3   0.961998 0.760901 0.593382 -0.369117
C79   C     C_3   0.462002 0.739118 0.093606 -0.369223
C80   C     C_3   0.462011 0.260884 0.593704 -0.369212
C81   C     C_3   0.148206 0.469977 0.224330 0.314128
C82   C     C_3   0.148201 0.530026 0.724321 0.314125
C83   C     C_3   0.648204 0.969976 0.224329 0.314125
C84   C     C_3   0.648207 0.030022 0.724333 0.314124
C85   C     C_3   0.197548 0.439985 0.247688 -0.394209
C86   C     C_3   0.197540 0.560023 0.747659 -0.394193
C87   C     C_3   0.697546 0.939984 0.247692 -0.394214
C88   C     C_3   0.697549 0.060016 0.747668 -0.394201
C89   C     C_3   0.840423 0.523279 0.925854 0.399161
C90   C     C_3   0.840428 0.476719 0.425862 0.399140
C91   C     C_3   0.340417 0.023277 0.925852 0.399166
C92   C     C_3   0.340423 0.976723 0.425832 0.399161
C93   C     C_3   0.787407 0.531003 0.832585 -0.299397
C94   C     C_3   0.787406 0.468973 0.332652 -0.299436
C95   C     C_3   0.287401 0.030993 0.832594 -0.299472
C96   C     C_3   0.287408 0.969010 0.332557 -0.299377
C97   C     C_3   0.019699 0.291434 0.639970 0.341190
C98   C     C_3   0.019699 0.708560 0.140077 0.341325
C99   C     C_3   0.519696 0.791434 0.639962 0.341183
C100  C     C_3   0.519695 0.208564 0.139982 0.341168
C101  C     C_R   0.915692 0.382623 0.295806 -0.261711
C102  C     C_R   0.915692 0.617376 0.795805 -0.261826
C103  C     C_R   0.415692 0.882623 0.295805 -0.261701
C104  C     C_R   0.415690 0.117375 0.795809 -0.261706
H1    H     H_    0.037390 0.319007 0.724723 0.109968
H2    H     H_    0.037368 0.681000 0.224916 0.110089
H3    H     H_    0.537390 0.819006 0.724711 0.109961
H4    H     H_    0.537380 0.180995 0.224758 0.109984
H5    H     H_    0.226227 0.457844 0.336045 0.126286
H6    H     H_    0.226224 0.542168 0.836013 0.126278
H7    H     H_    0.726224 0.957843 0.336053 0.126288
H8    H     H_    0.726234 0.042155 0.836002 0.126285
H9    H     H_    0.189338 0.403423 0.292199 0.066028
H10   H     H_    0.189327 0.596585 0.792165 0.066033
H11   H     H_    0.689336 0.903422 0.292199 0.066030
H12   H     H_    0.689341 0.096576 0.792200 0.066028
H13   H     H_    0.214318 0.436252 0.132172 0.124779
H14   H     H_    0.214306 0.563755 0.632135 0.124782
H15   H     H_    0.714318 0.936252 0.132178 0.124776
H16   H     H_    0.714310 0.063753 0.632138 0.124774
H17   H     H_    0.869167 0.518632 0.838736 0.054381
H18   H     H_    0.869156 0.481376 0.338696 0.054415
H19   H     H_    0.369158 0.018629 0.838733 0.054423
H20   H     H_    0.369168 0.981372 0.338722 0.054425
H21   H     H_    0.776668 0.498848 0.757045 0.109338
H22   H     H_    0.776650 0.501118 0.257080 0.109344
H23   H     H_    0.276659 0.998839 0.757128 0.109336
H24   H     H_    0.276674 0.001171 0.257041 0.109341
H25   H     H_    0.788058 0.563427 0.754778 0.082130
H26   H     H_    0.788061 0.436543 0.254874 0.082106
H27   H     H_    0.288038 0.063399 0.754737 0.082151
H28   H     H_    0.288057 0.936590 0.254725 0.082153
H29   H     H_    0.757454 0.536320 0.916005 0.098019
H30   H     H_    0.757466 0.463655 0.416114 0.098036
H31   H     H_    0.257462 0.036322 0.915994 0.098014
H32   H     H_    0.257454 0.963689 0.415975 0.098001
H33   H     H_    0.026968 0.301201 0.516064 -0.054151
H34   H     H_    0.026999 0.698767 0.016224 -0.054214
H35   H     H_    0.526963 0.801199 0.516052 -0.054153
H36   H     H_    0.526972 0.198791 0.016088 -0.054126
H37   H     H_    0.035486 0.216477 0.586102 0.100017
H38   H     H_    0.035493 0.783507 0.086100 0.100015
H39   H     H_    0.535480 0.716476 0.586094 0.100020
H40   H     H_    0.535485 0.283519 0.086084 0.100021
H41   H     H_    0.088257 0.248090 0.700835 0.081352
H42   H     H_    0.088251 0.751912 0.200953 0.081358
H43   H     H_    0.588253 0.748087 0.700816 0.081349
H44   H     H_    0.588251 0.251911 0.200854 0.081361
H45   H     H_    0.924517 0.239157 0.145935 0.070361
H46   H     H_    0.924591 0.760916 0.646179 0.070309
H47   H     H_    0.424509 0.739164 0.145892 0.070361
H48   H     H_    0.424510 0.260829 0.645938 0.070368
H49   H     H_    0.175986 0.638338 0.205633 0.087166
H50   H     H_    0.175985 0.361661 0.705636 0.087172
H51   H     H_    0.675988 0.138337 0.205632 0.087169
H52   H     H_    0.675986 0.861662 0.705633 0.087170
H53   H     H_    0.261005 0.663251 0.144386 0.070447
H54   H     H_    0.261004 0.336747 0.644427 0.070447
H55   H     H_    0.761010 0.163248 0.144399 0.070446
H56   H     H_    0.761007 0.836750 0.644414 0.070445
H57   H     H_    0.831707 0.218640 0.230113 0.069045
H58   H     H_    0.831705 0.781359 0.730121 0.069040
H59   H     H_    0.331704 0.718642 0.230097 0.069047
H60   H     H_    0.331700 0.281355 0.730141 0.069048
H61   H     H_    0.823086 0.364065 0.985654 0.081777
H62   H     H_    0.823086 0.635934 0.485651 0.081764
H63   H     H_    0.323082 0.864067 0.985661 0.081772
H64   H     H_    0.323083 0.135933 0.485656 0.081771
H65   H     H_    0.739203 0.339241 0.044836 0.075915
H66   H     H_    0.739205 0.660759 0.544818 0.075914
H67   H     H_    0.239198 0.839246 0.044870 0.075912
H68   H     H_    0.239201 0.160757 0.544818 0.075913
H69   H     H_    0.149093 0.712192 0.751646 0.077268
H70   H     H_    0.149107 0.287821 0.251621 0.077286
H71   H     H_    0.649108 0.212181 0.751624 0.077290
H72   H     H_    0.649107 0.787820 0.251620 0.077286
H73   H     H_    0.854949 0.283277 0.425217 0.076330
H74   H     H_    0.854949 0.716722 0.925215 0.076332
H75   H     H_    0.354947 0.783279 0.425220 0.076329
H76   H     H_    0.354942 0.216718 0.925229 0.076332
H77   H     H_    0.055753 0.590740 0.850812 0.065133
H78   H     H_    0.055757 0.409263 0.350804 0.065149
H79   H     H_    0.555759 0.090736 0.850802 0.065148
H80   H     H_    0.555756 0.909262 0.350807 0.065149
H81   H     H_    0.032870 0.228946 0.795884 0.158083
H82   H     H_    0.032847 0.771073 0.295890 0.158081
H83   H     H_    0.532868 0.728946 0.795877 0.158081
H84   H     H_    0.532859 0.271059 0.295869 0.158066
H85   H     H_    0.945691 0.408243 0.336941 0.066547
H86   H     H_    0.945691 0.591757 0.836940 0.066566
H87   H     H_    0.445692 0.908242 0.336938 0.066551
H88   H     H_    0.445692 0.091756 0.836941 0.066557
H89   H     H_    0.959015 0.315051 0.041971 0.071239
H90   H     H_    0.959038 0.684909 0.542645 0.070927
H91   H     H_    0.459016 0.815052 0.041947 0.071252
H92   H     H_    0.459013 0.184956 0.541913 0.071265
H93   H     H_    0.991217 0.299069 0.237835 -0.058786
H94   H     H_    0.991353 0.701110 0.738165 -0.058645
H95   H     H_    0.491210 0.799071 0.237816 -0.058784
H96   H     H_    0.491205 0.200905 0.737816 -0.058796
H97   H     H_    0.954975 0.228660 0.965679 0.137983
H98   H     H_    0.954793 0.771178 0.465300 0.138072
H99   H     H_    0.454978 0.728660 0.965666 0.137990
H100  H     H_    0.455006 0.271370 0.465784 0.137957
H101  H     H_    0.988226 0.212232 0.158373 0.116458
H102  H     H_    0.988266 0.787884 0.657430 0.116531
H103  H     H_    0.488215 0.712237 0.158378 0.116454
H104  H     H_    0.488221 0.287749 0.658573 0.116440
H105  H     H_    0.132281 0.473603 0.340623 0.015580
H106  H     H_    0.132280 0.526402 0.840620 0.015570
H107  H     H_    0.632278 0.973601 0.340620 0.015587
H108  H     H_    0.632289 0.026396 0.840636 0.015587
H109  H     H_    0.119934 0.451245 0.136833 0.059782
H110  H     H_    0.119925 0.548754 0.636825 0.059817
H111  H     H_    0.619933 0.951244 0.136829 0.059785
H112  H     H_    0.619931 0.048754 0.636847 0.059773
O1    O     O_2   0.898940 0.431940 0.867860 -0.473432
O2    O     O_2   0.898940 0.568060 0.367860 -0.473412
O3    O     O_2   0.398940 0.931940 0.867860 -0.473412
O4    O     O_2   0.398940 0.068060 0.367860 -0.473428
O5    O     O_3   0.160709 0.484435 0.667558 -0.634815
O6    O     O_3   0.160710 0.515567 0.167554 -0.634815
O7    O     O_3   0.660710 0.984433 0.667552 -0.634818
O8    O     O_3   0.660710 0.015566 0.167557 -0.634817
O9    O     O_3   0.033825 0.288783 0.043916 -0.603955
O10   O     O_3   0.033817 0.711213 0.543835 -0.603915
O11   O     O_3   0.533824 0.788783 0.043916 -0.603955
O12   O     O_3   0.533825 0.211217 0.543938 -0.603967
O13   O     O_3   0.058810 0.523750 0.066650 -0.493023
O14   O     O_3   0.058810 0.476250 0.566650 -0.493027
O15   O     O_3   0.558810 0.023750 0.066650 -0.493021
O16   O     O_3   0.558810 0.976250 0.566650 -0.493019
O17   O     O_3   0.941140 0.476130 0.123050 -0.491880
O18   O     O_3   0.941140 0.523870 0.623050 -0.491897
O19   O     O_3   0.441140 0.976130 0.123050 -0.491874
O20   O     O_3   0.441140 0.023870 0.623050 -0.491868
O21   O     O_3   0.982430 0.389880 0.635700 -0.498451
O22   O     O_3   0.982430 0.610120 0.135700 -0.498450
O23   O     O_3   0.482430 0.889880 0.635700 -0.498437
O24   O     O_3   0.482430 0.110120 0.135700 -0.498446
O25   O     O_2   0.897389 0.349452 0.726069 -0.470696
O26   O     O_2   0.897388 0.650548 0.226069 -0.470638
O27   O     O_2   0.397388 0.849454 0.726069 -0.470705
O28   O     O_2   0.397389 0.150548 0.226080 -0.470713
O29   O     O_3   0.837412 0.482976 0.025486 -0.656543
O30   O     O_3   0.837412 0.517024 0.525478 -0.656546
O31   O     O_3   0.337414 0.982978 0.025500 -0.656548
O32   O     O_3   0.337416 0.017019 0.525491 -0.656537
O33   O     O_3   0.966425 0.287391 0.652866 -0.603037
O34   O     O_3   0.966419 0.712611 0.152845 -0.603068
O35   O     O_3   0.466423 0.787392 0.652868 -0.603036
O36   O     O_3   0.466420 0.212609 0.152846 -0.603043
O37   O     O_2   0.100770 0.431440 0.821660 -0.459116
O38   O     O_2   0.100770 0.568560 0.321660 -0.459113
O39   O     O_2   0.600770 0.931440 0.821660 -0.459122
O40   O     O_2   0.600770 0.068560 0.321660 -0.459119
O41   O     O_3   0.017130 0.389790 0.053700 -0.486535
O42   O     O_3   0.017130 0.610210 0.553700 -0.486486
O43   O     O_3   0.517130 0.889790 0.053700 -0.486541
O44   O     O_3   0.517130 0.110210 0.553700 -0.486544
O45   O     O_2   0.102262 0.349884 0.957396 -0.492376
O46   O     O_2   0.102267 0.650109 0.457434 -0.492379
O47   O     O_2   0.602262 0.849883 0.957396 -0.492372
O48   O     O_2   0.602261 0.150119 0.457390 -0.492383
P1    P     P_3+3 0.893960 0.447890 0.040050 0.963722
P2    P     P_3+3 0.893960 0.552110 0.540050 0.963738
P3    P     P_3+3 0.393960 0.947890 0.040050 0.963739
P4    P     P_3+3 0.393960 0.052110 0.540050 0.963739
P5    P     P_3+3 0.105800 0.447360 0.649510 0.982798
P6    P     P_3+3 0.105800 0.552640 0.149510 0.982797
P7    P     P_3+3 0.605800 0.947360 0.649510 0.982801
P8    P     P_3+3 0.605800 0.052640 0.149510 0.982800
P9    P     P_3+3 0.064147 0.344535 0.085717 0.935856
P10   P     P_3+3 0.064143 0.655468 0.585725 0.935795
P11   P     P_3+3 0.564146 0.844535 0.085718 0.935855
P12   P     P_3+3 0.564147 0.155465 0.585719 0.935849
P13   P     P_3+3 0.936942 0.656934 0.102293 0.945716
P14   P     P_3+3 0.936943 0.343065 0.602295 0.945684
P15   P     P_3+3 0.436941 0.156933 0.102297 0.945676
P16   P     P_3+3 0.436942 0.843066 0.602295 0.945681
N1    N     N_3   0.853716 0.565725 0.023571 -0.520526
H113  H     H_    0.891468 0.560550 0.076370 0.212052
H114  H     H_    0.829540 0.567418 0.115343 0.192100
N2    N     N_3   0.853755 0.434280 0.523587 -0.520517
H115  H     H_    0.891513 0.439468 0.576320 0.212045
H116  H     H_    0.829600 0.432580 0.615417 0.192151
N3    N     N_3   0.353707 0.065727 0.023545 -0.520559
H117  H     H_    0.391451 0.060550 0.076380 0.212065
H118  H     H_    0.329523 0.067436 0.115285 0.192062
N4    N     N_3   0.353712 0.934270 0.523511 -0.520566
H119  H     H_    0.391454 0.939449 0.576358 0.212067
H120  H     H_    0.329521 0.932562 0.615240 0.192065
N5    N     N_3   0.156425 0.791123 0.941636 -0.508441
H121  H     H_    0.124095 0.772081 0.970859 0.174846
H122  H     H_    0.157319 0.790396 0.817832 0.173118
N6    N     N_3   0.156434 0.208882 0.441561 -0.508439
H123  H     H_    0.124100 0.227923 0.470752 0.174852
H124  H     H_    0.157340 0.209610 0.317763 0.173131
N7    N     N_3   0.656434 0.291116 0.941592 -0.508434
H125  H     H_    0.624102 0.272070 0.970781 0.174851
H126  H     H_    0.657337 0.290394 0.817790 0.173131
N8    N     N_3   0.656436 0.708883 0.441565 -0.508432
H127  H     H_    0.624103 0.727924 0.470753 0.174851
H128  H     H_    0.657343 0.709610 0.317766 0.173130

loop_
_geom_bond_atom_site_label_1
_geom_bond_atom_site_label_2
_ccdc_geom_bond_type
Ba4   P4    S    
C77   H101  S    
C83   C87   S    
C20   H76   S    
N5    H122  S    
C57   P10   S    
N3    H117  S    
C10   H62   S    
C46   H90   S    
C21   C101  A    
N7    H126  S    
O46   P10   D    
C94   H30   S    
C2    H38   S    
C91   C95   S    
C59   P12   S    
C84   O7    S    
C60   P11   S    
C1    H41   S    
Ba1   O1    S    
C48   C80   S    
C5    C9    A    
C22   P13   S    
Ba3   O15   S    
C7    C11   A    
C8    C12   A    
Ba1   O13   S    
C66   C70   A    
C42   H66   S    
C74   H78   S    
Ba4   O40   S    
O15   P8    S    
C40   C42   A    
C19   C23   A    
C46   H94   S    
C85   H5    S    
C61   C73   A    
C63   C75   A    
C82   C86   S    
C8    C104  A    
C15   C19   A    
C56   C72   A    
C31   H55   S    
C36   C72   S    
C28   C30   A    
C29   H53   S    
O3    P3    D    
O27   P16   D    
C41   H65   S    
O4    P4    D    
Ba2   O13   S    
N7    H125  S    
C64   C68   A    
N8    H127  S    
C4    C100  S    
C27   H59   S    
C28   H60   S    
C47   C79   S    
N6    H123  S    
O5    P5    S    
O32   P4    S    
C99   H35   S    
C96   H24   S    
C53   C57   A    
O11   P11   S    
C25   C31   A    
C55   C59   A    
C1    C97   S    
C26   C32   A    
C56   C60   A    
O12   P12   S    
C1    H81   S    
N1    H114  S    
C80   H48   S    
Ba2   O42   S    
C24   C104  A    
Ba3   O39   S    
O13   P6    S    
O9    P9    S    
Ba4   O19   S    
C86   H6    S    
C48   H96   S    
C83   O8    S    
C62   P5    S    
O38   P6    D    
C93   H25   S    
C16   C52   S    
C102  H86   S    
C45   H89   S    
C26   C50   A    
O10   P10   S    
C4    H44   S    
O8    P8    S    
C61   C65   A    
C79   H47   S    
C5    C101  A    
C77   H45   S    
O26   P13   D    
O18   P2    S    
C82   H110  S    
C53   C69   A    
C63   P8    S    
O7    P7    S    
C53   H69   S    
C57   C73   A    
C65   H49   S    
C48   H92   S    
C91   N3    S    
C63   C67   A    
Ba3   O20   S    
C9    H61   S    
C41   C49   A    
C87   H15   S    
Ba4   O16   S    
C95   H31   S    
C90   O30   S    
C93   H29   S    
C3    H39   S    
C37   C43   A    
C45   H93   S    
C1    H37   S    
C47   O11   S    
C6    C10   A    
C23   P16   S    
C100  H4    S    
N2    H116  S    
C82   H106  S    
C19   H75   S    
O23   P16   S    
C39   C41   A    
C80   H100  S    
Ba4   O44   S    
C76   H80   S    
C54   H70   S    
C38   C44   A    
O39   P7    D    
Ba2   O22   S    
Ba1   O21   S    
C85   H9    S    
C6    P2    S    
C87   H11   S    
C6    C102  A    
Ba3   Ba4   S    
C89   C93   S    
C78   H98   S    
C54   C70   A    
C34   C70   S    
C5    P1    S    
Ba3   O3    S    
O36   P15   S    
C14   C18   A    
C7    P3    S    
C58   C74   A    
C20   C24   A    
C30   H54   S    
Ba2   O17   S    
Ba3   P7    S    
C62   C66   A    
Ba3   O43   S    
C9    C13   A    
C27   C51   A    
C88   H12   S    
C18   H74   S    
C89   N1    S    
C64   P7    S    
C38   N6    S    
C92   C96   S    
C46   O10   S    
C45   C77   S    
C33   C37   A    
O40   P8    D    
C36   C40   A    
O41   P9    S    
C82   O5    S    
C98   H34   S    
Ba4   O24   S    
C43   H67   S    
C96   H28   S    
C78   H102  S    
C54   C58   A    
C99   O35   S    
O21   P14   S    
C22   C102  A    
C11   C15   A    
O14   P5    S    
C86   H10   S    
C43   C51   A    
C88   H16   S    
N4    H119  S    
C90   C94   S    
C97   H1    S    
Ba2   O2    S    
C92   H20   S    
C99   H3    S    
C40   N8    S    
C17   C21   A    
C37   N5    S    
Ba2   O14   S    
N6    H124  S    
N8    H128  S    
C65   C69   A    
C58   P9    S    
C104  H88   S    
C84   H108  S    
C60   C76   A    
C3    H83   S    
C4    H40   S    
Ba2   P2    S    
C47   H95   S    
Ba1   O37   S    
C62   C74   A    
O29   P1    S    
C91   O31   S    
C81   C85   S    
C90   N2    S    
C39   N7    S    
C29   C33   A    
C84   H112  S    
C98   O34   S    
C31   C35   A    
N1    H113  S    
Ba3   O16   S    
C23   C103  A    
Ba1   O14   S    
C42   C50   A    
C11   H63   S    
C3    H43   S    
C98   H2    S    
C92   O32   S    
C13   C49   S    
O33   P14   S    
C46   C78   S    
C15   C51   S    
O24   P15   S    
N3    H118  S    
C8    P4    S    
C100  O36   S    
C80   H104  S    
O19   P3    S    
C56   H72   S    
O48   P12   D    
O16   P7    S    
C55   H71   S    
O45   P9    D    
C85   H13   S    
O43   P11   S    
O47   P11   D    
C87   H7    S    
C25   H57   S    
C45   O9    S    
C4    H84   S    
C92   N4    S    
C2    H42   S    
C91   H19   S    
Ba1   P1    S    
C18   C22   A    
C32   H56   S    
C83   H107  S    
O17   P1    S    
O6    P6    S    
C66   H50   S    
C21   P14   S    
C28   C52   A    
O28   P15   D    
C13   C17   A    
C64   C76   A    
C24   P15   S    
C67   C71   A    
C73   H77   S    
N5    H121  S    
C10   C14   A    
C97   O33   S    
C68   C72   A    
C103  H87   S    
Ba3   P3    S    
C59   C75   A    
C17   H73   S    
C75   H79   S    
C34   C38   A    
Ba2   P6    S    
O42   P10   S    
Ba1   Ba2   S    
C81   H109  S    
C96   H32   S    
C97   H33   S    
C84   C88   S    
O35   P16   S    
C79   H99   S    
C27   C29   A    
C83   H111  S    
O22   P13   S    
Ba1   P5    S    
C12   C16   A    
C2    C98   S    
C86   H14   S    
C94   H22   S    
C89   O29   S    
C90   H18   S    
C95   H27   S    
Ba4   P8    S    
C16   C20   A    
C32   C36   A    
C26   H58   S    
O31   P3    S    
C48   O12   S    
C35   C39   A    
Ba4   O4    S    
O2    P2    D    
C81   H105  S    
C88   H8    S    
C12   H64   S    
C2    H82   S    
C100  H36   S    
Ba3   O23   S    
C47   H91   S    
Ba1   O41   S    
Ba2   O38   S    
C89   H17   S    
C35   C71   S    
C7    C103  A    
Ba4   O15   S    
O30   P2    S    
C55   C71   A    
O1    P1    D    
C77   H97   S    
C44   C52   A    
C33   C69   S    
C101  H85   S    
C61   P6    S    
C30   C34   A    
Ba1   O18   S    
C67   H51   S    
C94   H26   S    
O37   P5    D    
C68   H52   S    
C95   H23   S    
N2    H115  S    
O20   P4    S    
C93   H21   S    
N4    H120  S    
C25   C49   A    
O44   P12   S    
C14   C50   S    
C78   H46   S    
O34   P13   S    
O25   P14   D    
C3    C99   S    
C81   O6    S    
C44   H68   S    
C79   H103  S    
