data_mof_unit_49849.cif
_audit_creation_date              2012-12-10T17:40:31-0500
_audit_creation_method            fapswitch 2.2
_symmetry_space_group_name_H-M    P1
_symmetry_Int_Tables_number       1
_space_group_crystal_system       triclinic
_cell_length_a                    13.693649
_cell_length_b                    15.097404
_cell_length_c                    15.873567
_cell_angle_alpha                 89.902335
_cell_angle_beta                  70.171814
_cell_angle_gamma                 90.006198
_cell_volume                      3087.11541616

loop_
_atom_site_label
_atom_site_type_symbol
_atom_type_description
_atom_site_fract_x
_atom_site_fract_y
_atom_site_fract_z
_atom_type_partial_charge
C1    C     C_R   0.500092 0.671512 0.499837 0.817916
C2    C     C_R   0.499909 0.328490 0.500162 0.817894
C3    C     C_R   0.373583 0.475294 0.094921 -0.221977
C4    C     C_R   0.625258 0.469339 0.905748 -0.220202
C5    C     C_R   0.302400 0.474843 0.050192 -0.230137
C6    C     C_R   0.696420 0.467891 0.950490 -0.229211
C7    C     C_R   0.409979 0.185552 0.502716 -0.240675
C8    C     C_R   0.590024 0.814455 0.497280 -0.240948
C9    C     C_R   0.499631 0.231689 0.500330 -0.080601
C10   C     C_R   0.500372 0.768316 0.499666 -0.081325
C11   C     C_R   0.588902 0.185381 0.498027 -0.229089
C12   C     C_R   0.411102 0.814626 0.501967 -0.229287
C13   C     C_R   0.589460 0.093209 0.497837 0.072881
C14   C     C_R   0.410544 0.906799 0.502157 0.072844
C15   C     C_R   0.499383 0.046471 0.500123 0.016315
C16   C     C_R   0.500621 0.953537 0.499870 0.016349
C17   C     C_R   0.408292 0.092746 0.502660 0.102298
C18   C     C_R   0.591712 0.907261 0.497334 0.102336
C19   C     C_R   0.679276 0.047591 0.495295 -0.208475
C20   C     C_R   0.320727 0.952418 0.504702 -0.208450
C21   C     C_R   0.681747 0.954960 0.494973 0.172802
C22   C     C_R   0.318255 0.045049 0.505026 0.172971
C23   C     C_R   0.437270 0.499280 0.672281 0.804920
C24   C     C_R   0.562732 0.499491 0.327713 0.803901
C25   C     C_R   0.230082 0.552175 0.440351 0.003625
C26   C     C_R   0.769885 0.447870 0.559706 0.003700
C27   C     C_R   0.183204 0.448028 0.559818 0.001151
C28   C     C_R   0.816792 0.551986 0.440210 0.000705
C29   C     C_R   0.079538 0.446801 0.561291 -0.002603
C30   C     C_R   0.920433 0.553243 0.438785 -0.003536
C31   C     C_R   0.051799 0.500027 0.500048 0.089040
C32   C     C_R   0.948166 0.500014 0.500031 0.089309
C33   C     C_R   0.127634 0.553293 0.438835 -0.007003
C34   C     C_R   0.872319 0.446771 0.561261 -0.005549
C35   C     C_R   0.003273 0.393888 0.622276 -0.205630
C36   C     C_R   0.996668 0.606219 0.377862 -0.205615
C37   C     C_R   0.900593 0.393911 0.622297 -0.209812
C38   C     C_R   0.099333 0.606221 0.377866 -0.208447
C39   C     C_R   0.400390 0.494382 0.770468 -0.053802
C40   C     C_R   0.599553 0.494322 0.229554 -0.054210
C41   C     C_R   0.262415 0.482483 0.913467 -0.196823
C42   C     C_R   0.736858 0.477057 0.086913 -0.196633
C43   C     C_R   0.294501 0.488893 0.820509 -0.194522
C44   C     C_R   0.705117 0.485381 0.179684 -0.194394
C45   C     C_R   0.473572 0.492710 0.814159 -0.252421
C46   C     C_R   0.526413 0.495040 0.185818 -0.248963
C47   C     C_R   0.443558 0.482837 0.907470 0.089091
C48   C     C_R   0.555862 0.483021 0.092825 0.089386
C49   C     C_R   0.335873 0.480004 0.957252 0.166613
C50   C     C_R   0.663302 0.476028 0.043191 0.166189
C51   C     C_R   0.517368 0.477797 0.952594 0.066832
C52   C     C_R   0.481817 0.479385 0.047858 0.065863
Cu1   Cu    Cu3+1 0.402580 0.500010 0.499990 0.938786
Cu2   Cu    Cu3+1 0.597420 0.499990 0.500010 0.938554
H1    H     H_    0.220281 0.471384 0.088885 0.143581
H2    H     H_    0.778265 0.461065 0.911978 0.142441
H3    H     H_    0.289159 0.593030 0.393920 0.125834
H4    H     H_    0.710791 0.407043 0.606161 0.125715
H5    H     H_    0.205892 0.407381 0.606327 0.122717
H6    H     H_    0.794114 0.592636 0.393698 0.123748
H7    H     H_    0.023005 0.352505 0.669966 0.135201
H8    H     H_    0.976923 0.647643 0.330207 0.136491
H9    H     H_    0.843320 0.352593 0.670050 0.135965
H10   H     H_    0.156573 0.647616 0.330183 0.138134
H11   H     H_    0.446713 0.506732 0.225890 0.148307
H12   H     H_    0.553823 0.501262 0.773847 0.152082
H13   H     H_    0.762975 0.484674 0.212258 0.152895
H14   H     H_    0.236622 0.489856 0.787961 0.151513
H15   H     H_    0.180049 0.479404 0.951228 0.130395
H16   H     H_    0.818998 0.470953 0.049288 0.130526
H17   H     H_    0.340806 0.469597 0.166691 0.145340
H18   H     H_    0.657586 0.460845 0.834254 0.139896
H19   H     H_    0.341718 0.222685 0.504641 0.170202
H20   H     H_    0.658284 0.777323 0.495357 0.170328
H21   H     H_    0.658345 0.221049 0.496211 0.154328
H22   H     H_    0.341659 0.778959 0.503781 0.154518
H23   H     H_    0.747876 0.084546 0.493525 0.143953
H24   H     H_    0.252126 0.915463 0.506475 0.144091
N1    N     N_R   0.256170 0.500070 0.500040 -0.181228
N2    N     N_R   0.743830 0.499930 0.499960 -0.181331
O1    O     O_R   0.417730 0.629750 0.499970 -0.586567
O2    O     O_R   0.582270 0.370250 0.500030 -0.586952
O3    O     O_R   0.582270 0.629730 0.499980 -0.587340
O4    O     O_R   0.417730 0.370270 0.500020 -0.587695
O5    O     O_R   0.371590 0.500020 0.629830 -0.586993
O6    O     O_R   0.628410 0.499980 0.370170 -0.587481
O7    O     O_R   0.536130 0.499990 0.629840 -0.589485
O8    O     O_R   0.463870 0.500010 0.370160 -0.589272
C53   C     C_3   0.780788 0.909083 0.492097 -0.886276
H25   H     H_    0.842890 0.957107 0.490431 0.232708
H26   H     H_    0.766203 0.866992 0.552566 0.235722
H27   H     H_    0.809866 0.867417 0.431073 0.230204
C54   C     C_3   0.219211 0.090927 0.507911 -0.886615
H28   H     H_    0.157104 0.042904 0.509589 0.232762
H29   H     H_    0.190145 0.132597 0.568933 0.230172
H30   H     H_    0.233788 0.133015 0.447440 0.235542

loop_
_geom_bond_atom_site_label_1
_geom_bond_atom_site_label_2
_ccdc_geom_bond_type
C54   H28   S    
C27   C29   A    
C18   C21   A    
C2    O4    A    
C4    H18   S    
C7    H19   S    
C21   C53   S    
Cu1   Cu2   S    
C40   C46   A    
C25   H3    S    
Cu1   O4    S    
C19   C21   A    
C27   N1    A    
Cu2   O7    S    
C1    O1    A    
C15   C16   A    
C34   C37   A    
C42   H16   S    
Cu1   O1    S    
C45   C47   A    
C19   H23   S    
C26   C34   A    
C43   H14   S    
C7    C17   A    
C31   C33   A    
C53   H26   S    
C38   H10   S    
C39   C45   A    
C48   C50   A    
C54   H29   S    
C23   O7    A    
C24   O8    A    
Cu1   O5    S    
C41   C43   A    
C5    C49   A    
C42   C44   A    
C36   H8    S    
C41   C49   A    
Cu2   O3    S    
C37   H9    S    
Cu2   N2    S    
C28   H6    S    
C46   C48   A    
C13   C19   A    
C4    C51   A    
C51   C52   A    
C14   C20   A    
C46   H11   S    
C4    C6    A    
C6    H2    S    
Cu2   O6    S    
C39   C43   A    
C8    C18   A    
C32   C34   A    
C3    H17   S    
C9    C11   A    
C31   C32   A    
C40   C44   A    
C8    H20   S    
C35   H7    S    
C6    C50   A    
C53   H27   S    
C26   H4    S    
C10   C12   A    
C42   C50   A    
C16   C18   A    
C20   C22   A    
C54   H30   S    
C13   C15   A    
C22   C54   S    
C14   C16   A    
C2    O2    A    
C36   C38   A    
Cu2   O2    S    
C35   C37   A    
C41   H15   S    
C15   C17   A    
Cu1   N1    S    
C25   N1    A    
C5    H1    S    
C1    C10   S    
C33   C38   A    
C12   C14   A    
C3    C5    A    
C47   C51   A    
C3    C52   A    
C20   H24   S    
C1    O3    A    
C29   C35   A    
C17   C22   A    
C30   C36   A    
C12   H22   S    
C29   C31   A    
C11   H21   S    
C47   C49   A    
C30   C32   A    
C11   C13   A    
C23   C39   S    
C28   C30   A    
C24   C40   S    
Cu1   O8    S    
C28   N2    A    
C26   N2    A    
C7    C9    A    
C48   C52   A    
C8    C10   A    
C23   O5    A    
C45   H12   S    
C44   H13   S    
C27   H5    S    
C53   H25   S    
C2    C9    S    
C24   O6    A    
C25   C33   A    
