data_mof_unit_47926.cif
_audit_creation_date              2012-12-10T20:00:30-0500
_audit_creation_method            fapswitch 2.2
_symmetry_space_group_name_H-M    P1
_symmetry_Int_Tables_number       1
_space_group_crystal_system       triclinic
_cell_length_a                    15.093756
_cell_length_b                    14.146983
_cell_length_c                    15.832038
_cell_angle_alpha                 89.988937
_cell_angle_beta                  89.928948
_cell_angle_gamma                 90.043235
_cell_volume                      3380.62901486

loop_
_atom_site_label
_atom_site_type_symbol
_atom_type_description
_atom_site_fract_x
_atom_site_fract_y
_atom_site_fract_z
_atom_type_partial_charge
C1    C     C_R   0.327507 0.499936 0.499022 1.000959
C2    C     C_R   0.491580 0.795783 0.574172 -0.032855
C3    C     C_R   0.451143 0.204788 0.558537 0.012256
C4    C     C_R   0.505980 0.795777 0.425608 0.015696
C5    C     C_R   0.498610 0.053486 0.499762 0.138135
C6    C     C_R   0.497914 0.946871 0.499755 0.145172
C7    C     C_R   0.500003 0.500012 0.339177 0.905470
C8    C     C_R   0.499992 0.499997 0.660824 0.906082
C9    C     C_R   0.539337 0.575168 0.956141 -0.190756
C10   C     C_R   0.460381 0.425049 0.043869 -0.190888
C11   C     C_R   0.539359 0.575175 0.043725 -0.192009
C12   C     C_R   0.672480 0.499880 0.499080 1.003537
C13   C     C_R   0.460360 0.425041 0.956287 -0.189848
C14   C     C_R   0.499848 0.500095 0.913065 0.176280
C15   C     C_R   0.499889 0.500109 0.086944 0.177722
C16   C     C_1   0.499889 0.500046 0.824197 -0.085069
C17   C     C_1   0.499946 0.500085 0.175811 -0.086331
C18   C     C_1   0.499982 0.500048 0.250718 -0.184046
C19   C     C_1   0.499938 0.500006 0.749288 -0.183967
C20   C     C_R   0.095612 0.573019 0.446665 0.402327
C21   C     C_R   0.902999 0.422507 0.446538 0.382139
C22   C     C_R   0.909730 0.573785 0.520064 0.364252
C23   C     C_R   0.048063 0.495111 0.478163 -0.171004
C24   C     C_R   0.092337 0.418042 0.514594 0.384163
C25   C     C_R   0.185853 0.579505 0.462307 0.310272
C26   C     C_R   0.812471 0.418506 0.461517 0.291530
C27   C     C_R   0.817644 0.579182 0.518407 0.263544
C28   C     C_R   0.184181 0.416484 0.514802 0.289900
C29   C     C_R   0.231423 0.499277 0.493320 -0.440227
C30   C     C_R   0.768556 0.499063 0.493605 -0.417119
C31   C     C_3   0.033803 0.623074 0.322869 0.136956
C32   C     C_3   0.024395 0.712699 0.269616 -0.326966
C33   C     C_3   0.949667 0.776258 0.301230 -0.831253
C34   C     C_R   0.952071 0.497944 0.479739 -0.171930
C35   C     C_3   0.950959 0.365934 0.319856 0.135287
C36   C     C_3   0.961152 0.272907 0.271700 -0.333125
C37   C     C_3   0.044997 0.219880 0.297198 -0.832181
C38   C     C_3   0.959159 0.633330 0.644862 0.100679
C39   C     C_3   0.025823 0.701799 0.683658 -0.338850
C40   C     C_3   0.027240 0.693975 0.779744 -0.983763
C41   C     C_3   0.024623 0.355292 0.630636 0.116804
C42   C     C_3   0.010020 0.259615 0.672971 -0.320176
C43   C     C_3   0.977148 0.271041 0.763549 -0.994400
C44   C     C_3   0.238156 0.722519 0.509712 0.182457
C45   C     C_R   0.548503 0.105017 0.440110 -0.299420
C46   C     C_3   0.169108 0.801633 0.506900 -0.345063
C47   C     C_3   0.184417 0.872878 0.577876 -1.038472
C48   C     C_3   0.773277 0.271131 0.508587 0.176821
C49   C     C_3   0.805193 0.175512 0.475567 -0.332780
C50   C     C_3   0.800986 0.100208 0.544562 -1.004835
C51   C     C_3   0.781461 0.727743 0.478425 0.148226
C52   C     C_3   0.738872 0.820473 0.505878 -0.313124
C53   C     C_3   0.733925 0.889841 0.432171 -1.006799
C54   C     C_3   0.230765 0.269628 0.473542 0.173323
C55   C     C_3   0.214118 0.169674 0.506492 -0.336667
C56   C     C_R   0.490853 0.895119 0.575479 -0.290467
C57   C     C_3   0.233380 0.096219 0.438233 -0.990034
C58   C     C_R   0.449519 0.105476 0.559552 -0.285727
C59   C     C_R   0.504786 0.895099 0.424076 -0.275383
C60   C     C_R   0.548224 0.204337 0.441337 0.005925
H1    H     H_    0.569899 0.633209 0.077623 0.135687
H2    H     H_    0.486042 0.757550 0.633009 0.143989
H3    H     H_    0.412572 0.243915 0.604313 0.148373
H4    H     H_    0.511765 0.757557 0.366806 0.135373
H5    H     H_    0.970534 0.582876 0.320611 0.101598
H6    H     H_    0.087083 0.579394 0.293268 0.071795
H7    H     H_    0.087779 0.752757 0.270865 0.225153
H8    H     H_    0.010579 0.692336 0.203118 0.160734
H9    H     H_    0.885983 0.736866 0.302381 0.231155
H10   H     H_    0.942548 0.837862 0.258326 0.232446
H11   H     H_    0.964926 0.802979 0.365544 0.280697
H12   H     H_    0.429833 0.366998 0.922391 0.138883
H13   H     H_    0.009879 0.411203 0.307756 0.100546
H14   H     H_    0.891003 0.402162 0.294200 0.080458
H15   H     H_    0.902446 0.227390 0.283964 0.218942
H16   H     H_    0.963887 0.288060 0.202857 0.163952
H17   H     H_    0.104461 0.263943 0.284466 0.233179
H18   H     H_    0.050326 0.153644 0.259945 0.231140
H19   H     H_    0.042690 0.201103 0.365297 0.292307
H20   H     H_    0.979435 0.560167 0.662244 0.098061
H21   H     H_    0.892297 0.648237 0.671468 0.178138
H22   H     H_    0.092948 0.685427 0.658841 0.215917
H23   H     H_    0.569864 0.633196 0.922132 0.138276
H24   H     H_    0.008445 0.775403 0.665522 0.237061
H25   H     H_    0.961090 0.711438 0.806290 0.266992
H26   H     H_    0.076634 0.744333 0.805751 0.267346
H27   H     H_    0.045982 0.621231 0.799183 0.263134
H28   H     H_    0.962009 0.396442 0.633912 0.112399
H29   H     H_    0.077548 0.393542 0.666236 0.127288
H30   H     H_    0.960525 0.218581 0.636391 0.224126
H31   H     H_    0.073317 0.219492 0.673220 0.224374
H32   H     H_    0.026300 0.311024 0.801609 0.267136
H33   H     H_    0.967640 0.200270 0.792522 0.269108
H34   H     H_    0.429867 0.367013 0.077877 0.137552
H35   H     H_    0.912786 0.309080 0.764436 0.262110
H36   H     H_    0.304849 0.755562 0.506266 0.176533
H37   H     H_    0.234953 0.685242 0.571903 0.096351
H38   H     H_    0.172945 0.838594 0.445042 0.237081
H39   H     H_    0.101701 0.771456 0.514101 0.276764
H40   H     H_    0.179643 0.837620 0.640381 0.270078
H41   H     H_    0.133360 0.929235 0.574731 0.277821
H42   H     H_    0.250986 0.905767 0.571709 0.275767
H43   H     H_    0.706182 0.262023 0.536291 0.164337
H44   H     H_    0.818050 0.293549 0.561227 0.107852
H45   H     H_    0.588577 0.069177 0.393361 0.137115
H46   H     H_    0.763265 0.152911 0.421526 0.217454
H47   H     H_    0.874677 0.182159 0.453147 0.261966
H48   H     H_    0.836569 0.123947 0.602033 0.263668
H49   H     H_    0.832836 0.034356 0.521727 0.280116
H50   H     H_    0.730921 0.084917 0.561317 0.275722
H51   H     H_    0.745945 0.700489 0.421665 0.130682
H52   H     H_    0.851525 0.743034 0.461258 0.171017
H53   H     H_    0.671154 0.806461 0.529826 0.250580
H54   H     H_    0.778232 0.852367 0.557890 0.218682
H55   H     H_    0.801566 0.908056 0.409702 0.267270
H56   H     H_    0.486325 0.930855 0.635742 0.139001
H57   H     H_    0.700055 0.955356 0.452906 0.283057
H58   H     H_    0.695710 0.858801 0.379064 0.264774
H59   H     H_    0.298013 0.272684 0.445109 0.163336
H60   H     H_    0.182165 0.283620 0.421897 0.119681
H61   H     H_    0.257036 0.155686 0.562031 0.221614
H62   H     H_    0.143867 0.163193 0.526809 0.238054
H63   H     H_    0.191895 0.109363 0.381590 0.266650
H64   H     H_    0.218121 0.024590 0.462411 0.281295
H65   H     H_    0.304418 0.098607 0.419899 0.276459
H66   H     H_    0.408649 0.069944 0.605939 0.134659
H67   H     H_    0.508757 0.930839 0.363761 0.135020
H68   H     H_    0.587082 0.243077 0.395461 0.154465
N1    N     N_R   0.500000 0.252470 0.500000 -0.104719
N2    N     N_R   0.500000 0.747530 0.500000 -0.098575
O1    O     O_R   0.369060 0.579480 0.500010 -0.607555
O2    O     O_3   0.943851 0.346993 0.407181 -0.561401
O3    O     O_3   0.958736 0.645825 0.556407 -0.606791
O4    O     O_3   0.047070 0.340102 0.545122 -0.586574
O5    O     O_3   0.229720 0.661597 0.438899 -0.599868
O6    O     O_3   0.767316 0.336525 0.440707 -0.611549
O7    O     O_3   0.776406 0.661309 0.545040 -0.607530
O8    O     O_3   0.226544 0.334950 0.541508 -0.607041
O9    O     O_R   0.630940 0.420520 0.499990 -0.606849
O10   O     O_R   0.630940 0.579480 0.499990 -0.586386
O11   O     O_R   0.369060 0.420520 0.500010 -0.602838
O12   O     O_R   0.499980 0.579460 0.378020 -0.632204
O13   O     O_R   0.500020 0.420540 0.621980 -0.626012
O14   O     O_R   0.500020 0.579460 0.621980 -0.633384
O15   O     O_R   0.499980 0.420540 0.378020 -0.627093
O16   O     O_3   0.053625 0.647903 0.407206 -0.570808
Zn1   Zn    Zn3+2 0.500000 0.606140 0.500000 0.949913
Zn2   Zn    Zn3+2 0.500000 0.393860 0.500000 0.946539

loop_
_geom_bond_atom_site_label_1
_geom_bond_atom_site_label_2
_ccdc_geom_bond_type
C31   H6    S    
C41   H29   S    
C21   C26   A    
C55   H61   S    
C45   C60   A    
C51   H52   S    
C47   H41   S    
C54   H60   S    
C41   C42   S    
C35   C36   S    
C46   H39   S    
C35   H14   S    
C54   O8    S    
C52   H53   S    
C37   H19   S    
C28   C29   A    
C27   O7    S    
C38   H20   S    
C5    C58   A    
C40   H27   S    
C36   C37   S    
C39   H24   S    
C10   C15   A    
C57   H65   S    
C5    C6    S    
C53   H57   S    
C20   C25   A    
C10   H34   S    
C59   H67   S    
C48   H44   S    
C50   H50   S    
C15   C17   S    
C42   H31   S    
C38   O3    S    
C40   H26   S    
N1    Zn2   S    
C36   H16   S    
O11   Zn2   S    
C2    N2    A    
C46   C47   S    
C31   O16   S    
C11   C15   A    
C1    O11   A    
C44   C46   S    
C43   H35   S    
C23   C24   A    
C12   O10   A    
O1    Zn1   S    
C33   H9    S    
C32   H8    S    
C23   C34   S    
C44   O5    S    
C46   H38   S    
C55   H62   S    
C47   H42   S    
C54   H59   S    
C27   C30   A    
C50   H48   S    
O14   Zn1   S    
O12   Zn1   S    
O10   Zn1   S    
C41   O4    S    
C45   H45   S    
C25   C29   A    
O13   Zn2   S    
C22   C34   A    
O9    Zn2   S    
C8    C19   S    
C22   O3    S    
C51   C52   S    
C60   H68   S    
C28   O8    S    
C49   H47   S    
C39   C40   S    
C53   H58   S    
C4    N2    A    
C21   C34   A    
C1    O1    A    
C48   H43   S    
C5    C45   A    
C50   H49   S    
C47   H40   S    
C42   H30   S    
C40   H25   S    
C9    C14   A    
C21   O2    S    
C44   H36   S    
C36   H15   S    
C57   H63   S    
C44   H37   S    
C31   C32   S    
C20   C23   A    
C7    C18   S    
C1    C29   S    
C17   C18   T    
C56   H56   S    
C12   O9    A    
C8    O14   A    
C9    C11   A    
C33   H10   S    
C9    H23   S    
C32   H7    S    
C51   O7    S    
C48   C49   S    
C26   C30   A    
C52   H54   S    
C22   C27   A    
C55   C57   S    
C38   H21   S    
C14   C16   S    
C42   C43   S    
O15   Zn2   S    
C52   C53   S    
C24   O4    S    
C31   H5    S    
C41   H28   S    
C54   C55   S    
C35   H13   S    
C51   H51   S    
C12   C30   S    
N2    Zn1   S    
C3    N1    A    
C6    C59   A    
C48   O6    S    
C24   C28   A    
C39   H22   S    
C6    C56   A    
C11   H1    S    
C10   C13   A    
C60   N1    A    
C58   H66   S    
C49   H46   S    
C13   H12   S    
C3    H3    S    
C37   H18   S    
C4    H4    S    
C43   H32   S    
C32   C33   S    
C2    C56   A    
C57   H64   S    
C38   C39   S    
C37   H17   S    
C16   C19   T    
C4    C59   A    
C43   H33   S    
C8    O13   A    
C20   O16   S    
C25   O5    S    
C26   O6    S    
C33   H11   S    
C3    C58   A    
C53   H55   S    
C49   C50   S    
C13   C14   A    
C35   O2    S    
C7    O12   A    
C2    H2    S    
C7    O15   A    
