data_mof_unit_27997.cif
_audit_creation_date              2012-12-11T17:36:15-0500
_audit_creation_method            fapswitch 2.2
_symmetry_space_group_name_H-M    P1
_symmetry_Int_Tables_number       1
_space_group_crystal_system       triclinic
_cell_length_a                    25.860624
_cell_length_b                    6.895649
_cell_length_c                    21.638781
_cell_angle_alpha                 90.395276
_cell_angle_beta                  96.193886
_cell_angle_gamma                 90.39264
_cell_volume                      3836.02378962

loop_
_atom_site_label
_atom_site_type_symbol
_atom_type_description
_atom_site_fract_x
_atom_site_fract_y
_atom_site_fract_z
_atom_type_partial_charge
O1    O     O_R   0.208650 0.594520 0.175450 -0.531597
O2    O     O_R   0.791350 0.405480 0.824550 -0.535845
O3    O     O_R   0.291350 0.094520 0.324550 -0.521703
O4    O     O_R   0.708650 0.905480 0.675450 -0.526161
O5    O     O_R   0.192980 0.260780 0.300160 -0.552865
O6    O     O_R   0.807020 0.739220 0.699840 -0.553313
O7    O     O_R   0.307020 0.760780 0.199840 -0.543172
O8    O     O_R   0.692980 0.239220 0.800160 -0.543668
C1    C     C_R   0.178202 0.433074 0.317318 0.765743
C2    C     C_R   0.820573 0.567210 0.680747 0.775595
C3    C     C_R   0.321136 0.933424 0.181636 0.766724
C4    C     C_R   0.679159 0.067432 0.818646 0.722406
O9    O     O_R   0.202550 0.264660 0.174420 -0.533867
O10   O     O_R   0.797450 0.735340 0.825580 -0.527446
O11   O     O_R   0.297450 0.764660 0.325580 -0.546642
O12   O     O_R   0.702550 0.235340 0.674420 -0.538715
O13   O     O_R   0.300990 0.096480 0.197920 -0.509694
O14   O     O_R   0.699010 0.903520 0.802080 -0.526888
O15   O     O_R   0.199010 0.596480 0.302080 -0.518865
O16   O     O_R   0.800990 0.403520 0.697920 -0.511020
C5    C     C_R   0.190932 0.432634 0.151063 0.685701
C6    C     C_R   0.809386 0.566989 0.848805 0.698774
C7    C     C_R   0.309562 0.934827 0.348726 0.698551
C8    C     C_R   0.690787 0.064849 0.651094 0.725158
O17   O     O_3   0.282290 0.427760 0.257860 -0.349737
O18   O     O_3   0.717710 0.572240 0.742140 -0.361918
O19   O     O_3   0.217710 0.927760 0.242140 -0.364124
O20   O     O_3   0.782290 0.072240 0.757860 -0.360161
V1    V     V_3+5 0.244010 0.152080 0.248540 1.548632
V2    V     V_3+5 0.755990 0.847920 0.751460 1.564924
V3    V     V_3+5 0.255990 0.652080 0.251460 1.544384
V4    V     V_3+5 0.744010 0.347920 0.748540 1.555894
C9    C     C_R   0.658297 0.047872 0.590260 -0.276234
C10   C     C_R   0.342953 0.949901 0.409102 -0.321702
C11   C     C_R   0.843990 0.560387 0.908244 -0.276749
C12   C     C_R   0.156759 0.437471 0.091510 -0.326673
C13   C     C_R   0.650048 0.957058 0.479827 0.407715
C14   C     C_R   0.353353 0.051436 0.518144 0.393993
C15   C     C_R   0.856193 0.643788 0.018843 0.474877
C16   C     C_R   0.144277 0.357137 0.981033 0.404912
C17   C     C_R   0.681156 0.979877 0.537349 0.258839
C18   C     C_R   0.321518 0.023458 0.462146 0.355430
C19   C     C_R   0.822741 0.596813 0.964712 0.207854
C20   C     C_R   0.177633 0.388965 0.035575 0.364647
C21   C     C_R   0.603339 0.072733 0.585935 0.401174
C22   C     C_R   0.397662 0.917317 0.412924 0.394861
C23   C     C_R   0.898462 0.528273 0.909674 0.471728
C24   C     C_R   0.102670 0.479010 0.089735 0.431832
C25   C     C_R   0.571866 0.015260 0.530764 -0.035186
C26   C     C_R   0.430312 0.979433 0.466608 0.047020
C27   C     C_R   0.930217 0.531608 0.967614 -0.031899
C28   C     C_R   0.070489 0.470968 0.032042 0.072110
C29   C     C_R   0.596020 0.993332 0.475765 -0.231306
C30   C     C_R   0.407086 0.006338 0.522079 -0.310384
C31   C     C_R   0.910624 0.623794 0.018715 -0.139630
C32   C     C_R   0.089642 0.373518 0.981715 -0.279401
C33   C     C_R   0.516612 0.988871 0.527593 -0.170612
C34   C     C_R   0.485709 0.001087 0.468740 -0.139082
C35   C     C_R   0.982455 0.461530 0.975263 -0.130510
C36   C     C_R   0.018047 0.539097 0.024438 -0.056955
C37   C     C_R   0.511585 0.044146 0.415475 0.462576
C38   C     C_R   0.491166 0.937806 0.580297 0.499020
C39   C     C_R   0.000158 0.687123 0.062633 0.428118
C40   C     C_R   0.999775 0.308763 0.938304 0.510387
C41   C     C_R   0.565620 0.017605 0.417837 0.395996
C42   C     C_R   0.437392 0.968231 0.579325 0.323420
C43   C     C_R   0.946172 0.703972 0.066552 0.367790
C44   C     C_R   0.053447 0.279557 0.937048 0.346762
C45   C     C_R   0.402260 0.827249 0.048487 0.441393
C46   C     C_R   0.550684 0.143833 0.885669 0.380795
C47   C     C_R   0.093129 0.331244 0.446168 0.417678
C48   C     C_R   0.940831 0.685206 0.600000 0.421748
C49   C     C_R   0.365236 0.810938 0.091550 -0.241420
C50   C     C_R   0.592068 0.161929 0.849088 -0.117588
C51   C     C_R   0.130996 0.313668 0.404827 -0.192268
C52   C     C_R   0.900637 0.697033 0.638497 -0.209217
H1    H     H_    0.337517 0.691742 0.087338 0.141190
H2    H     H_    0.587794 0.257364 0.809294 0.187930
H3    H     H_    0.159563 0.199595 0.412190 0.173309
H4    H     H_    0.901230 0.815455 0.671762 0.187085
C53   C     C_R   0.362753 0.948797 0.138925 -0.165353
C54   C     C_R   0.637896 0.055844 0.861761 -0.276185
C55   C     C_R   0.134383 0.446086 0.356673 -0.214767
C56   C     C_R   0.861418 0.555142 0.636793 -0.216943
C57   C     C_R   0.398481 0.106068 0.143838 0.269564
C58   C     C_R   0.642989 0.932692 0.914234 0.313641
C59   C     C_R   0.097484 0.596276 0.348126 0.287705
C60   C     C_R   0.861911 0.399610 0.593881 0.288751
C61   C     C_R   0.436117 0.125319 0.100482 0.250543
C62   C     C_R   0.601529 0.909688 0.951277 0.355600
C63   C     C_R   0.055442 0.604855 0.385498 0.290329
C64   C     C_R   0.899109 0.395758 0.550035 0.357710
C65   C     C_R   0.438288 0.982081 0.053410 -0.100130
C66   C     C_R   0.554822 0.015316 0.937210 -0.204756
C67   C     C_R   0.054851 0.478439 0.436945 -0.146668
C68   C     C_R   0.940340 0.533511 0.555050 -0.162448
C69   C     C_1   0.478193 0.989146 0.010613 0.211936
C70   C     C_1   0.512511 0.998451 0.976474 0.130995
C71   C     C_1   0.015386 0.500136 0.479852 0.103207
C72   C     C_1   0.981802 0.516899 0.514618 0.137395
O21   O     O_3   0.588239 0.039815 0.363358 -0.516253
H5    H     H_    0.618483 0.128640 0.372226 0.363459
O22   O     O_3   0.415025 0.932829 0.633368 -0.567336
H6    H     H_    0.380417 0.872102 0.622244 0.341523
O23   O     O_3   0.927760 0.818146 0.112018 -0.546925
H7    H     H_    0.955112 0.830772 0.147581 0.386479
O24   O     O_3   0.068535 0.138518 0.897168 -0.574559
H8    H     H_    0.098394 0.067758 0.918676 0.350135
O25   O     O_3   0.420289 0.817149 0.367415 -0.603519
H9    H     H_    0.393278 0.763988 0.335998 0.309619
O26   O     O_3   0.579191 0.159531 0.632901 -0.591206
H10   H     H_    0.605164 0.205549 0.666718 0.308723
O27   O     O_3   0.078785 0.504876 0.143413 -0.586715
H11   H     H_    0.104651 0.505019 0.180517 0.314741
O28   O     O_3   0.922701 0.510270 0.855970 -0.582310
H12   H     H_    0.896837 0.511781 0.818856 0.293160
O29   O     O_3   0.269332 0.066951 0.462118 -0.597516
H13   H     H_    0.248933 0.009175 0.425196 0.275643
O30   O     O_3   0.733670 0.938457 0.539129 -0.621968
H14   H     H_    0.752679 0.977575 0.579289 0.317240
O31   O     O_3   0.230353 0.364592 0.032232 -0.600615
H15   H     H_    0.250538 0.416262 0.070289 0.274963
O32   O     O_3   0.769739 0.593223 0.968382 -0.589897
H16   H     H_    0.752055 0.520573 0.932432 0.325244
O33   O     O_3   0.670904 0.890008 0.427388 -0.583777
H17   H     H_    0.708985 0.874227 0.435833 0.371285
O34   O     O_3   0.330723 0.130754 0.567378 -0.584815
H18   H     H_    0.357995 0.200491 0.594822 0.339595
O35   O     O_3   0.836605 0.703087 0.072915 -0.546427
H19   H     H_    0.798691 0.724987 0.065088 0.387313
O36   O     O_3   0.166830 0.316060 0.927477 -0.587134
H20   H     H_    0.142903 0.358836 0.891350 0.333914
S1    S     S_3+6 0.482351 0.176176 0.350104 0.119846
O37   O     O_2   0.429795 0.255162 0.359968 -0.350239
O38   O     O_2   0.517007 0.345022 0.338517 -0.241060
O39   O     O_3   0.478249 0.030636 0.286934 -0.415189
H21   H     H_    0.440683 0.007350 0.275217 0.361328
S2    S     S_3+6 0.520816 0.782990 0.639747 0.106726
O40   O     O_2   0.531050 0.894621 0.699764 -0.253342
O41   O     O_2   0.484128 0.618721 0.649636 -0.281240
O42   O     O_3   0.576832 0.687528 0.621055 -0.500441
H22   H     H_    0.566581 0.602222 0.584702 0.336914
S3    S     S_3+6 0.040868 0.888789 0.088522 0.027217
O43   O     O_2   0.089417 0.892749 0.056054 -0.353699
O44   O     O_2   0.011296 0.072700 0.073974 -0.335831
O45   O     O_3   0.057037 0.879752 0.165843 -0.451244
H23   H     H_    0.080073 0.993654 0.175775 0.375666
S4    S     S_3+6 0.957202 0.117188 0.907989 0.090627
O46   O     O_2   0.947204 0.133475 0.838532 -0.265257
O47   O     O_2   0.982766 0.925416 0.922726 -0.301501
O48   O     O_3   0.900184 0.119473 0.938775 -0.512947
H24   H     H_    0.909142 0.087912 0.983219 0.351064
O49   O     O_3   0.403796 0.693500 0.000912 -0.624280
H25   H     H_    0.376512 0.593414 0.004147 0.305457
O50   O     O_3   0.507175 0.254809 0.868696 -0.596509
H26   H     H_    0.480136 0.230062 0.896694 0.306010
O51   O     O_3   0.095379 0.200386 0.494525 -0.616322
H27   H     H_    0.066690 0.223101 0.520336 0.307508
O52   O     O_3   0.979335 0.826072 0.608195 -0.595860
H28   H     H_    0.005177 0.806300 0.578298 0.307412
O53   O     O_3   0.395577 0.237634 0.191713 -0.609369
H29   H     H_    0.431041 0.283791 0.206475 0.389129
O54   O     O_3   0.688471 0.834271 0.931400 -0.573495
H30   H     H_    0.718052 0.906844 0.917057 0.308966
O55   O     O_3   0.102894 0.730075 0.302085 -0.599430
H31   H     H_    0.091537 0.857793 0.316640 0.340176
O56   O     O_3   0.825053 0.254749 0.594936 -0.611407
H32   H     H_    0.841845 0.129951 0.586587 0.330110
S5    S     S_3+6 0.480137 0.327670 0.105475 0.133328
O57   O     O_2   0.526736 0.277001 0.149848 -0.186061
O58   O     O_2   0.455213 0.505021 0.129577 -0.301019
O59   O     O_3   0.500549 0.382979 0.036503 -0.458951
H33   H     H_    0.468384 0.404373 0.008310 0.331727
S6    S     S_3+6 0.611034 0.745878 0.015041 0.210612
O60   O     O_2   0.661657 0.794800 0.052952 -0.201218
O61   O     O_2   0.568521 0.751293 0.057126 -0.242068
O62   O     O_3   0.615089 0.519634 0.986621 -0.434475
H34   H     H_    0.581954 0.498667 0.959853 0.341723
S7    S     S_3+6 0.002744 0.767108 0.365594 0.139696
O63   O     O_2   0.952295 0.684831 0.382734 -0.238423
O64   O     O_2   0.996506 0.805071 0.296870 -0.234977
O65   O     O_3   0.015085 0.978315 0.403631 -0.460314
H35   H     H_    0.014595 0.946235 0.448107 0.354430
S8    S     S_3+6 0.892110 0.223777 0.487487 0.091488
O66   O     O_2   0.909822 0.309341 0.429584 -0.233415
O67   O     O_2   0.924697 0.049798 0.505812 -0.336271
O68   O     O_3   0.829580 0.153995 0.471417 -0.456289
H36   H     H_    0.830522 0.038862 0.443941 0.402327

loop_
_geom_bond_atom_site_label_1
_geom_bond_atom_site_label_2
_ccdc_geom_bond_type
O17   V3    S    
S3    O45   S    
C55   C59   A    
C25   C29   A    
O1    C5    A    
O51   H27   S    
C62   C66   A    
C59   C63   A    
O19   V1    S    
C9    C21   A    
S5    O57   D    
O3    C7    A    
O54   H30   S    
C10   C18   A    
S4    O48   S    
C41   O21   S    
C48   C52   A    
O4    V2    S    
C11   C23   A    
C52   C56   A    
C69   C70   T    
C37   S1    S    
O32   H16   S    
C5    C12   S    
C59   O55   S    
C3    C53   S    
C23   O28   S    
C6    C11   S    
C35   C40   A    
O55   H31   S    
C48   O52   S    
C36   C39   A    
C40   C44   A    
O9    V1    S    
C46   C66   A    
O10   V2    S    
C14   C18   A    
C24   C28   A    
C45   C65   A    
C46   C50   A    
O4    C8    A    
C67   C71   S    
C47   C67   A    
C66   C70   S    
O28   H12   S    
C20   O31   S    
O1    V3    S    
O13   V1    S    
S8    O66   D    
O2    V4    S    
C57   O53   S    
O3    V1    S    
S6    O60   D    
C28   C36   A    
O65   H35   S    
O42   H22   S    
C1    O15   A    
C15   C31   A    
C60   C64   A    
C2    O16   A    
C16   C32   A    
C63   S7    S    
O2    C6    A    
S1    O39   S    
O24   H8    S    
C45   C49   A    
C10   C22   A    
C44   O24   S    
C21   C25   A    
C11   C19   A    
O5    V1    S    
S7    O65   S    
C13   C29   A    
C7    C10   S    
C34   C37   A    
O11   C7    A    
O48   H24   S    
O15   V3    S    
C35   C36   A    
O12   C8    A    
C40   S4    S    
C61   C65   A    
S5    O58   D    
C50   C54   A    
C49   C53   A    
O53   H29   S    
C13   O33   S    
C64   C68   A    
O17   V1    S    
C47   O51   S    
C39   C43   A    
O7    V3    S    
C38   C42   A    
O19   V3    S    
C46   O50   S    
C26   C34   A    
O21   H5    S    
C52   H4    S    
C33   C38   A    
S4    O46   D    
C64   S8    S    
O56   H32   S    
C57   C61   A    
O18   V4    S    
C43   O23   S    
C15   C19   A    
C15   O35   S    
C54   C58   A    
C45   O49   S    
O8    V4    S    
O7    C3    A    
O5    C1    A    
C65   C69   S    
C31   C43   A    
O52   H28   S    
C14   C30   A    
O20   V4    S    
O8    C4    A    
C60   O56   S    
O9    C5    A    
C26   C30   A    
C17   O30   S    
S6    O62   S    
O31   H15   S    
O45   H23   S    
S2    O41   D    
C1    C55   S    
S8    O68   S    
O14   V2    S    
C38   S2    S    
C16   O36   S    
O18   V2    S    
C58   C62   A    
S1    O37   D    
S5    O59   S    
C12   C20   A    
C27   C35   A    
O34   H18   S    
C4    C54   S    
C19   O32   S    
O22   H6    S    
C29   C41   A    
O59   H33   S    
O27   H11   S    
O16   V4    S    
S3    O44   D    
C62   S6    S    
C3    O13   A    
C49   H1    S    
O26   H10   S    
O6    V2    S    
C42   O22   S    
C56   C60   A    
S4    O47   D    
O39   H21   S    
S2    O42   S    
O6    C2    A    
C25   C33   A    
C23   C27   A    
O30   H14   S    
C21   O26   S    
C18   O29   S    
O11   V3    S    
C30   C42   A    
O12   V4    S    
O23   H7    S    
C22   C26   A    
C8    C9    S    
C71   C72   T    
C9    C17   A    
O10   C6    A    
O20   V2    S    
O35   H19   S    
C61   S5    S    
O68   H36   S    
C32   C44   A    
O29   H13   S    
C47   C51   A    
C51   C55   A    
C33   C34   A    
O33   H17   S    
C28   C32   A    
C14   O34   S    
C68   C72   S    
C2    C56   S    
S8    O67   D    
C12   C24   A    
C27   C31   A    
C13   C17   A    
O36   H20   S    
S6    O61   D    
S2    O40   D    
C63   C67   A    
S7    O63   D    
C48   C68   A    
C37   C41   A    
C16   C20   A    
O62   H34   S    
C50   H2    S    
C22   O25   S    
C4    O14   A    
O50   H26   S    
S1    O38   D    
C39   S3    S    
C58   O54   S    
O49   H25   S    
O25   H9    S    
C51   H3    S    
C53   C57   A    
S3    O43   D    
C24   O27   S    
S7    O64   D    
