data_mof_unit_37016.cif
_audit_creation_date              2012-10-26T19:40:38-0400
_audit_creation_method            fapswitch 2.2
_symmetry_space_group_name_H-M    P1
_symmetry_Int_Tables_number       1
_space_group_crystal_system       triclinic
_cell_length_a                    9.747755
_cell_length_b                    10.920751
_cell_length_c                    13.456908
_cell_angle_alpha                 90.317103
_cell_angle_beta                  72.936148
_cell_angle_gamma                 90.148545
_cell_volume                      1369.44176665

loop_
_atom_site_label
_atom_site_type_symbol
_atom_type_description
_atom_site_fract_x
_atom_site_fract_y
_atom_site_fract_z
_atom_type_partial_charge
C1    C     C_R   0.500491 0.734458 0.499018 0.538171
C2    C     C_R   0.376474 0.516356 0.814830 0.001241
C3    C     C_2   0.613477 0.067208 0.498980 -0.163950
C4    C     C_R   0.423060 0.507180 0.699918 0.527551
C5    C     C_2   0.495140 0.133436 0.507003 -0.121629
C6    C     C_2   0.611759 0.933150 0.503206 -0.159662
C7    C     C_2   0.500257 0.866491 0.494487 -0.125114
C8    C     C_2   0.054819 0.579096 0.551048 0.061426
C9    C     C_2   0.895451 0.556588 0.569264 0.102556
C10   C     C_R   0.499295 0.265516 0.501442 0.540659
C11   C     C_R   0.576103 0.508785 0.300528 0.551728
C12   C     C_R   0.434129 0.533968 0.979980 0.031458
C13   C     C_R   0.793180 0.566931 0.021382 -0.158530
C14   C     C_R   0.615695 0.531137 0.187630 0.006735
C15   C     C_R   0.238715 0.474199 0.869216 -0.138867
C16   C     C_R   0.199125 0.460593 0.976580 -0.164294
C17   C     C_R   0.296808 0.486311 0.031287 -0.114320
C18   C     C_3   0.075014 0.325787 0.591377 0.060808
C19   C     C_3   0.072364 0.187170 0.574373 -0.271773
C20   C     C_3   0.073128 0.117046 0.671978 -0.493396
C21   C     C_3   0.981147 0.434720 0.336441 0.111427
C22   C     C_3   0.911692 0.307362 0.362320 -0.227228
C23   C     C_R   0.471487 0.554361 0.871505 0.019825
C24   C     C_3   0.010669 0.207133 0.301449 -0.514180
C25   C     C_3   0.365819 0.728958 0.174192 0.009786
C26   C     C_3   0.296066 0.805197 0.271370 -0.257678
C27   C     C_3   0.142080 0.765583 0.323673 -0.370947
C28   C     C_R   0.539826 0.553264 0.031986 0.021417
C29   C     C_R   0.683654 0.575222 0.973660 0.011284
C30   C     C_R   0.713270 0.611739 0.870495 -0.148771
C31   C     C_R   0.604187 0.610763 0.823006 -0.131889
C32   C     C_R   0.506771 0.556030 0.140903 0.241959
C33   C     C_R   0.759532 0.537211 0.126617 -0.190857
Cu1   Cu    Cu3+1 0.361370 0.499980 0.499980 0.978893
Cu2   Cu    Cu3+1 0.638630 0.500020 0.500020 0.967899
H1    H     H_    0.845494 0.526409 0.161012 0.128332
H2    H     H_    0.264951 0.463913 0.112976 0.153664
H3    H     H_    0.094321 0.424190 0.017101 0.106926
H4    H     H_    0.624459 0.653315 0.748044 0.132709
H5    H     H_    0.715830 0.111928 0.490394 0.133574
H6    H     H_    0.968073 0.353189 0.642986 0.095599
H7    H     H_    0.155016 0.348186 0.632439 0.181272
H8    H     H_    0.974419 0.161615 0.552907 0.138455
H9    H     H_    0.166747 0.159376 0.509289 0.177795
H10   H     H_    0.172477 0.137669 0.693443 0.148390
H11   H     H_    0.069457 0.017128 0.657177 0.142329
H12   H     H_    0.390735 0.092029 0.520215 0.093651
H13   H     H_    0.978115 0.142396 0.737666 0.147830
H14   H     H_    0.098318 0.430474 0.325177 0.187673
H15   H     H_    0.976064 0.458685 0.257934 0.091379
H16   H     H_    0.887794 0.286618 0.446013 0.196503
H17   H     H_    0.811512 0.303595 0.339414 0.179265
H18   H     H_    0.036389 0.223760 0.216566 0.138318
H19   H     H_    0.956767 0.116760 0.319259 0.140371
H20   H     H_    0.111831 0.204541 0.323565 0.170789
H21   H     H_    0.299750 0.734992 0.119652 0.140291
H22   H     H_    0.471810 0.772872 0.135918 0.106474
H23   H     H_    0.706999 0.888623 0.512082 0.146049
H24   H     H_    0.359962 0.796169 0.326939 0.179469
H25   H     H_    0.296381 0.903234 0.249499 0.103174
H26   H     H_    0.075587 0.776595 0.269937 0.145261
H27   H     H_    0.095567 0.822159 0.394326 0.115069
H28   H     H_    0.141089 0.668525 0.346705 0.232263
H29   H     H_    0.405866 0.907211 0.481746 0.088809
H30   H     H_    0.087414 0.659401 0.586163 0.059419
H31   H     H_    0.822733 0.586067 0.641716 0.045741
H32   H     H_    0.819348 0.643704 0.827582 0.094493
H33   H     H_    0.904338 0.580772 0.976982 0.119419
H34   H     H_    0.163277 0.446149 0.828234 0.114294
N1    N     N_2   0.152660 0.501340 0.501130 -0.042076
N2    N     N_2   0.846520 0.501370 0.501160 -0.027196
O1    O     O_R   0.382960 0.678040 0.499980 -0.522528
O2    O     O_3   0.922648 0.535326 0.403585 -0.478433
O3    O     O_3   0.376985 0.604297 0.201124 -0.565169
O4    O     O_R   0.617100 0.678080 0.500020 -0.487716
O5    O     O_R   0.325800 0.499940 0.650950 -0.540075
O6    O     O_R   0.559930 0.499980 0.650990 -0.516352
O7    O     O_R   0.382900 0.321920 0.499980 -0.488370
O8    O     O_R   0.617040 0.321960 0.500020 -0.523799
O9    O     O_R   0.440070 0.500020 0.349010 -0.433211
O10   O     O_R   0.674200 0.500060 0.349050 -0.493438
O11   O     O_3   0.104149 0.385874 0.493898 -0.488424

loop_
_geom_bond_atom_site_label_1
_geom_bond_atom_site_label_2
_ccdc_geom_bond_type
C6    H23   S    
C19   C20   S    
C25   H21   S    
C3    C6    S    
C14   C33   A    
C21   H14   S    
Cu2   O10   S    
C11   O10   A    
C24   H20   S    
C5    H12   S    
C12   C23   A    
Cu2   O4    S    
C26   C27   S    
C30   H32   S    
C12   C28   A    
C13   C29   A    
C28   C29   A    
C25   O3    S    
C18   H7    S    
C32   O3    S    
C30   C31   A    
Cu1   Cu2   S    
C11   C14   S    
C24   H19   S    
C15   C16   A    
C21   O2    S    
C33   H1    S    
C18   C19   S    
C9    H31   S    
C27   H26   S    
Cu1   O9    S    
C8    C9    S    
C12   C17   A    
C26   H24   S    
Cu1   N1    S    
C20   H10   S    
Cu2   N2    S    
C8    H30   S    
C21   C22   S    
C25   H22   S    
C21   H15   S    
C19   H8    S    
C10   O7    A    
C15   H34   S    
C1    O1    A    
C1    O4    A    
C28   C32   A    
C18   H6    S    
N2    O2    S    
C16   C17   A    
C24   H18   S    
Cu2   O6    S    
C23   C31   A    
C2    C4    S    
C13   C33   A    
C29   C30   A    
C27   H27   S    
C17   H2    S    
C2    C15   A    
C20   H13   S    
C27   H28   S    
C3    H5    S    
C22   C24   S    
Cu1   O1    S    
C19   H9    S    
C22   H17   S    
C1    C7    S    
C9    N2    D    
C14   C32   A    
C3    C5    D    
C10   O8    A    
C6    C7    D    
C8    N1    D    
C25   C26   S    
C5    C10   S    
Cu1   O7    S    
Cu2   O8    S    
C18   O11   S    
C31   H4    S    
N1    O11   S    
C7    H29   S    
C4    O5    A    
C11   O9    A    
C4    O6    A    
C16   H3    S    
C2    C23   A    
C26   H25   S    
C20   H11   S    
Cu1   O5    S    
C22   H16   S    
C13   H33   S    
