data_mof_unit_18380.cif
_audit_creation_date              2012-12-11T17:39:37-0500
_audit_creation_method            fapswitch 2.2
_symmetry_space_group_name_H-M    P1
_symmetry_Int_Tables_number       1
_space_group_crystal_system       triclinic
_cell_length_a                    15.084165
_cell_length_b                    15.10539
_cell_length_c                    15.127678
_cell_angle_alpha                 108.903957
_cell_angle_beta                  110.434845
_cell_angle_gamma                 109.572947
_cell_volume                      2636.61419441

loop_
_atom_site_label
_atom_site_type_symbol
_atom_type_description
_atom_site_fract_x
_atom_site_fract_y
_atom_site_fract_z
_atom_type_partial_charge
C1    C     C_R   0.911107 0.910112 0.711462 -0.156798
C2    C     C_R   0.910285 0.705438 0.509684 -0.131777
C3    C     C_R   0.715550 0.779260 0.189270 -0.138371
C4    C     C_R   0.091705 0.314871 0.549187 -0.130642
C5    C     C_R   0.303697 0.007231 0.599298 -0.132900
C6    C     C_R   0.672972 0.677681 0.179108 0.132177
C7    C     C_R   0.368900 0.070439 0.573276 0.070906
C8    C     C_R   0.001992 0.704835 0.573415 0.074391
C9    C     C_R   0.000461 0.962121 0.176171 0.055069
C10   C     C_R   0.508391 0.703006 0.462670 -0.250160
C11   C     C_R   0.504375 0.797703 0.477386 0.572086
C12   C     C_R   0.998449 0.324626 0.522800 0.055318
C13   C     C_R   0.559217 0.886106 0.583860 -0.073619
C14   C     C_R   0.606556 0.873949 0.673862 -0.271285
C15   C     C_R   0.608800 0.778564 0.657929 -0.127087
C16   C     C_R   0.299245 0.206099 0.800579 -0.142191
C17   C     C_R   0.562092 0.694399 0.552907 -0.208728
C18   C     C_R   0.509426 0.024234 0.631638 -0.267343
C19   C     C_R   0.481158 0.094657 0.603686 0.065174
C20   C     C_R   0.546160 0.161083 0.577080 0.026966
C21   C     C_R   0.624720 0.141374 0.561694 -0.267503
C22   C     C_R   0.632931 0.052933 0.564670 0.108250
C23   C     C_R   0.364044 0.296830 0.803569 0.135402
C24   C     C_R   0.574325 0.993484 0.600369 0.089619
C25   C     C_R   0.493757 0.227154 0.447375 -0.208684
C26   C     C_R   0.469209 0.299599 0.420903 -0.125607
C27   C     C_R   0.478870 0.388154 0.499719 -0.082249
C28   C     C_R   0.727107 0.041398 0.453888 -0.121152
C29   C     C_R   0.514394 0.405314 0.605512 -0.132310
C30   C     C_R   0.538481 0.332464 0.632262 -0.157360
C31   C     C_R   0.527690 0.242601 0.552951 0.128984
C32   C     C_R   0.737545 0.215585 0.197307 -0.118961
C33   C     C_R   0.823183 0.304074 0.299456 -0.121164
C34   C     C_R   0.700577 0.022614 0.528042 0.084414
C35   C     C_R   0.805230 0.336494 0.386790 0.112520
C36   C     C_R   0.699734 0.282018 0.369501 -0.201429
C37   C     C_R   0.614826 0.192550 0.267573 -0.131524
C38   C     C_R   0.633698 0.159361 0.181683 -0.102228
C39   C     C_R   0.898400 0.521243 0.532841 -0.239070
C40   C     C_R   0.303606 0.297776 0.710720 -0.123431
C41   C     C_R   0.998708 0.618958 0.599887 0.054880
C42   C     C_R   0.093918 0.619190 0.662989 0.093731
C43   C     C_R   0.087581 0.520250 0.643896 -0.170824
C44   C     C_R   0.993800 0.423885 0.554815 0.060109
C45   C     C_R   0.720610 0.687788 0.280279 -0.125245
C46   C     C_R   0.897995 0.425096 0.496892 0.016262
C47   C     C_R   0.279485 0.730180 0.696623 0.558125
C48   C     C_R   0.379448 0.830065 0.758353 -0.356535
C49   C     C_R   0.405499 0.910823 0.856625 -0.157247
C50   C     C_R   0.332680 0.894161 0.894462 -0.101675
C51   C     C_R   0.231817 0.797863 0.832843 -0.239020
C52   C     C_R   0.746618 0.965617 0.559040 -0.125605
C53   C     C_R   0.204416 0.716504 0.733616 -0.028349
C54   C     C_2   0.537204 0.460503 0.890988 -0.142404
C55   C     C_2   0.478177 0.370191 0.887479 -0.199979
C56   C     C_R   0.304284 0.096095 0.507274 -0.150534
C57   C     C_2   0.617574 0.558374 0.996302 -0.107442
C58   C     C_2   0.598102 0.577116 0.078479 -0.200146
C59   C     C_R   0.392590 0.220531 0.110038 -0.145610
C60   C     C_R   0.308041 0.121635 0.081105 -0.198017
C61   C     C_R   0.199259 0.099228 0.034112 0.126451
C62   C     C_R   0.177572 0.180055 0.023416 -0.130044
C63   C     C_R   0.262483 0.279050 0.053470 -0.106603
C64   C     C_R   0.908242 0.221667 0.459139 -0.131857
C65   C     C_R   0.369846 0.298942 0.096001 -0.102285
C66   C     C_R   0.103608 0.976796 0.083135 -0.229053
C67   C     C_R   0.092100 0.794326 0.597184 -0.099017
C68   C     C_R   0.001291 0.927240 0.074058 0.066631
C69   C     C_R   0.904971 0.863258 0.968701 0.023922
C70   C     C_R   0.916861 0.849676 0.879555 -0.230920
C71   C     C_R   0.012654 0.926006 0.895135 0.060507
C72   C     C_R   0.107730 0.993670 0.000170 0.004146
C73   C     C_R   0.708952 0.730966 0.895266 -0.212970
C74   C     C_R   0.603401 0.709549 0.872678 -0.143083
C75   C     C_R   0.582365 0.794454 0.902106 -0.095138
C76   C     C_R   0.093411 0.998812 0.798519 -0.116172
C77   C     C_R   0.665054 0.900974 0.948644 -0.126203
C78   C     C_R   0.909871 0.941258 0.188308 -0.141540
C79   C     C_R   0.769768 0.922722 0.968487 -0.175298
C80   C     C_R   0.793663 0.838269 0.946723 0.116139
C81   C     C_R   0.005561 0.945542 0.806035 0.053212
C82   C     C_3   0.348984 0.785236 0.363608 0.258760
C83   C     C_3   0.312382 0.836822 0.297660 -0.870303
C84   C     C_3   0.328776 0.640656 0.581612 0.265374
C85   C     C_3   0.279259 0.531426 0.482774 -0.907607
C86   C     C_R   0.092894 0.034682 0.280085 -0.121272
H1    H     H_    0.827649 0.853269 0.682874 0.110502
H2    H     H_    0.471074 0.636797 0.381381 0.138046
H3    H     H_    0.176689 0.378554 0.596728 0.096919
H4    H     H_    0.647476 0.940533 0.755882 0.154901
H5    H     H_    0.649787 0.771012 0.726875 0.158144
H6    H     H_    0.464770 0.975295 0.656455 0.123616
H7    H     H_    0.673633 0.190188 0.539238 0.129063
H8    H     H_    0.482566 0.156722 0.384909 0.116359
H9    H     H_    0.441348 0.286311 0.339001 0.131003
H10   H     H_    0.457854 0.442733 0.478223 0.093898
H11   H     H_    0.522247 0.474565 0.666176 0.098906
H12   H     H_    0.327979 0.151380 0.478918 0.126300
H13   H     H_    0.564400 0.345133 0.713796 0.122857
H14   H     H_    0.567728 0.090200 0.103036 0.096405
H15   H     H_    0.325704 0.174333 0.852967 0.106916
H16   H     H_    0.751949 0.189893 0.130609 0.103411
H17   H     H_    0.903938 0.345922 0.311329 0.120667
H18   H     H_    0.684868 0.306493 0.435974 0.133953
H19   H     H_    0.534173 0.148683 0.254672 0.107145
H20   H     H_    0.822725 0.517866 0.487987 0.128094
H21   H     H_    0.160305 0.519883 0.691211 0.114834
H22   H     H_    0.436806 0.847079 0.730590 0.134742
H23   H     H_    0.177189 0.829775 0.653785 0.115502
H24   H     H_    0.482029 0.986990 0.903002 0.121041
H25   H     H_    0.353841 0.956882 0.970738 0.112202
H26   H     H_    0.692927 0.072819 0.405098 0.101033
H27   H     H_    0.174259 0.787505 0.861145 0.143657
H28   H     H_    0.513955 0.468480 0.819153 0.112993
H29   H     H_    0.507104 0.360297 0.958392 0.137349
H30   H     H_    0.687589 0.619743 0.004092 0.138898
H31   H     H_    0.528470 0.517805 0.073302 0.133010
H32   H     H_    0.435556 0.375363 0.118764 0.096404
H33   H     H_    0.475944 0.236961 0.143538 0.131142
H34   H     H_    0.825897 0.888283 0.127876 0.128536
H35   H     H_    0.326966 0.062551 0.094708 0.105234
H36   H     H_    0.094601 0.165616 0.990401 0.111223
H37   H     H_    0.244983 0.340190 0.043487 0.111805
H38   H     H_    0.334388 0.350191 0.681225 0.089538
H39   H     H_    0.179391 0.023549 0.160238 0.124195
H40   H     H_    0.844252 0.795996 0.799247 0.121838
H41   H     H_    0.724501 0.664482 0.872331 0.121079
H42   H     H_    0.537295 0.627389 0.832144 0.108817
H43   H     H_    0.501560 0.777086 0.887836 0.125923
H44   H     H_    0.648207 0.966648 0.969354 0.108242
H45   H     H_    0.178384 0.070169 0.305176 0.096767
H46   H     H_    0.833289 0.005553 0.004060 0.118696
H47   H     H_    0.748866 0.942494 0.619219 0.124806
H48   H     H_    0.824160 0.198229 0.424553 0.119481
H49   H     H_    0.177164 0.019433 0.846076 0.112639
H50   H     H_    0.702032 0.625015 0.301831 0.095675
H51   H     H_    0.343309 0.818069 0.437753 0.087414
H52   H     H_    0.291820 0.696012 0.314697 0.100343
H53   H     H_    0.313194 0.803891 0.220981 0.254014
H54   H     H_    0.227969 0.819189 0.277374 0.212720
H55   H     H_    0.368459 0.926149 0.345723 0.252923
H56   H     H_    0.826864 0.658678 0.488875 0.087999
H57   H     H_    0.387723 0.644504 0.654264 0.091812
H58   H     H_    0.371922 0.704821 0.566879 0.115449
H59   H     H_    0.220576 0.525351 0.408713 0.256478
H60   H     H_    0.344814 0.522411 0.470909 0.212113
H61   H     H_    0.235511 0.464868 0.494556 0.251418
H62   H     H_    0.683839 0.798974 0.127078 0.116592
H63   H     H_    0.329349 0.985044 0.660852 0.099304
H64   H     H_    0.567860 0.622673 0.541691 0.133005
N1    N     N_R   0.941940 0.944580 0.650780 -0.041426
N2    N     N_R   0.204460 0.150250 0.707090 -0.042714
N3    N     N_R   0.794270 0.003240 0.446420 -0.042763
N4    N     N_R   0.204920 0.207570 0.650770 -0.044038
N5    N     N_R   0.793810 0.945920 0.502740 -0.041208
N6    N     N_R   0.943620 0.152590 0.446420 -0.042931
N7    N     N_R   0.055110 0.000900 0.707100 -0.042594
N8    N     N_R   0.795080 0.792430 0.349230 -0.041511
N9    N     N_R   0.206190 0.054080 0.497260 -0.041047
N10   N     N_R   0.056380 0.847410 0.553580 -0.049085
N11   N     N_R   0.944890 0.999100 0.292900 -0.043059
N12   N     N_R   0.058060 0.055420 0.349220 -0.042238
N13   N     N_R   0.943200 0.791100 0.497260 -0.041265
N14   N     N_R   0.795540 0.849750 0.292910 -0.045270
N15   N     N_R   0.205730 0.996760 0.553580 -0.040212
N16   N     N_R   0.056800 0.208900 0.502740 -0.041890
Ni1   Ni    Ni4+2 0.869690 0.869690 0.500000 0.218388
Ni2   Ni    Ni4+2 0.130310 0.130310 0.500000 0.211953
Ni3   Ni    Ni4+2 0.129250 0.998840 0.629170 0.208286
Ni4   Ni    Ni4+2 0.870750 0.001160 0.370830 0.224580
O1    O     O_3   0.456037 0.807621 0.387735 -0.638568
O2    O     O_3   0.243301 0.650931 0.592854 -0.645335

loop_
_geom_bond_atom_site_label_1
_geom_bond_atom_site_label_2
_ccdc_geom_bond_type
C1    H1    S    
C39   H20   S    
C66   C68   A    
C63   C65   A    
C25   C31   A    
C6    C45   A    
C27   C29   A    
C41   C42   A    
C6    C58   S    
N14   Ni4   S    
C17   H64   S    
C56   H12   S    
C3    C6    A    
N4    Ni2   S    
C83   H53   S    
C47   O2    S    
C39   C41   A    
C28   H26   S    
C52   N5    A    
C11   O1    S    
C9    C78   A    
C10   H2    S    
C26   C27   A    
C37   C38   A    
C21   H7    S    
C18   C24   A    
N1    N7    A    
C36   C37   A    
C85   H59   S    
C82   H51   S    
C32   C38   A    
C42   C53   S    
C30   C31   A    
C12   C64   A    
C86   H45   S    
C84   H58   S    
C10   C17   A    
C1    C81   A    
C23   C40   A    
C5    H63   S    
N9    Ni2   S    
C18   C19   A    
C73   C74   A    
C14   H4    S    
N7    Ni3   S    
C54   C55   D    
C67   H23   S    
C66   C72   A    
C19   C20   A    
N5    Ni1   S    
C68   C69   A    
N3    Ni4   S    
C65   H32   S    
C70   C71   A    
C86   N12   A    
C5    N15   A    
C4    C12   A    
C29   C30   A    
N8    N14   A    
C47   C53   A    
C70   H40   S    
C28   C34   A    
C59   C60   A    
C13   C14   A    
N16   Ni2   S    
C52   H47   S    
C40   N4    A    
C27   H10   S    
C61   C62   A    
C7    C56   A    
C40   H38   S    
C83   H54   S    
C76   H49   S    
C44   C46   A    
N8    Ni1   S    
N11   N12   A    
C57   H30   S    
C60   H35   S    
C77   C79   A    
N15   Ni3   S    
C22   C34   S    
C64   H48   S    
C76   N7    A    
C74   C75   A    
N10   N13   A    
C85   H60   S    
C38   H14   S    
C83   H55   S    
C84   H57   S    
C25   C26   A    
C73   H41   S    
C30   H13   S    
C58   H31   S    
N9    N15   A    
C13   C24   S    
C60   C61   A    
C51   C53   A    
C35   C36   A    
C76   C81   A    
C78   H34   S    
C43   C44   A    
C37   H19   S    
C62   C63   A    
C9    C86   A    
C47   C48   A    
N6    N16   A    
N13   Ni1   S    
N10   Ni3   S    
C50   C51   A    
C16   N2    A    
C43   H21   S    
C84   C85   S    
C75   C77   A    
C67   N10   A    
C3    N14   A    
C8    C67   A    
C39   C46   A    
N12   Ni2   S    
N11   Ni4   S    
C61   C72   S    
C48   C49   A    
N2    N4    A    
C82   C83   S    
C16   C23   A    
C7    C19   S    
C28   N3    A    
C2    H56   S    
C32   H16   S    
N3    N5    A    
C42   C43   A    
C74   H42   S    
C5    C7    A    
C4    H3    S    
C26   H9    S    
C15   C17   A    
C82   O1    S    
C45   H50   S    
C59   H33   S    
C8    C41   S    
C33   H17   S    
C62   H36   S    
C51   H27   S    
C2    C8    A    
C45   N8    A    
C85   H61   S    
C84   O2    S    
C35   C46   S    
C2    N13   A    
C63   H37   S    
C23   C55   S    
C56   N9    A    
C64   N6    A    
C34   C52   A    
C66   H39   S    
C29   H11   S    
C36   H18   S    
C18   H6    S    
C32   C33   A    
C9    C68   S    
C71   C72   A    
C12   C44   S    
C59   C65   A    
N2    Ni3   S    
C11   C13   A    
C57   C58   D    
C48   H22   S    
C55   H29   S    
N1    Ni1   S    
C79   H46   S    
C54   H28   S    
N6    Ni4   S    
C50   H25   S    
C33   C35   A    
C73   C80   A    
C4    N16   A    
C1    N1    A    
C22   C24   A    
C77   H44   S    
C69   C70   A    
C10   C11   A    
C15   H5    S    
C79   C80   A    
C16   H15   S    
C25   H8    S    
C20   C21   A    
C78   N11   A    
C82   H52   S    
C49   C50   A    
C14   C15   A    
C69   C80   S    
C21   C22   A    
C3    H62   S    
C54   C57   S    
C75   H43   S    
C49   H24   S    
C71   C81   S    
C20   C31   S    
