data_mof_unit_7004.cif
_audit_creation_date              2012-12-10T19:55:51-0500
_audit_creation_method            fapswitch 2.2
_symmetry_space_group_name_H-M    P1
_symmetry_Int_Tables_number       1
_space_group_crystal_system       triclinic
_cell_length_a                    15.100621
_cell_length_b                    14.09865
_cell_length_c                    19.239669
_cell_angle_alpha                 89.410169
_cell_angle_beta                  90.490695
_cell_angle_gamma                 90.633767
_cell_volume                      4095.48029843

loop_
_atom_site_label
_atom_site_type_symbol
_atom_type_description
_atom_site_fract_x
_atom_site_fract_y
_atom_site_fract_z
_atom_type_partial_charge
C1    C     C_R   0.327257 0.499430 0.500830 0.959867
C2    C     C_R   0.672215 0.500434 0.498825 1.015270
C3    C     C_R   0.230706 0.498088 0.499468 -0.401987
C4    C     C_R   0.767733 0.500710 0.495562 -0.381568
C5    C     C_R   0.046893 0.496532 0.491479 -0.119185
C6    C     C_R   0.950973 0.497485 0.492764 -0.122474
C7    C     C_R   0.459350 0.104948 0.446754 -0.315971
C8    C     C_R   0.568342 0.894872 0.533470 -0.296300
C9    C     C_R   0.540243 0.105446 0.555257 -0.280303
C10   C     C_R   0.429777 0.894668 0.470454 -0.298256
C11   C     C_R   0.459877 0.204379 0.447325 -0.000246
C12   C     C_R   0.566511 0.795374 0.532851 0.026832
C13   C     C_R   0.540117 0.204915 0.553327 0.022879
C14   C     C_R   0.431698 0.795305 0.469855 0.013573
C15   C     C_R   0.499677 0.053372 0.501318 0.145398
C16   C     C_R   0.499375 0.946625 0.501727 0.156179
C17   C     C_R   0.500614 0.500628 0.364858 0.969647
C18   C     C_R   0.497707 0.499408 0.634799 0.941146
C19   C     C_R   0.503911 0.589596 0.251006 0.341322
C20   C     C_R   0.456120 0.414666 0.745033 0.341159
C21   C     C_R   0.508101 0.579715 0.749218 0.319581
C22   C     C_R   0.478000 0.417887 0.251572 0.292984
C23   C     C_R   0.494587 0.591235 0.178383 0.338977
C24   C     C_R   0.451005 0.412281 0.817624 0.357619
C25   C     C_R   0.495821 0.579282 0.820884 0.333695
C26   C     C_R   0.459589 0.421528 0.180374 0.337601
C27   C     C_R   0.472179 0.506675 0.143883 -0.300955
C28   C     C_R   0.471254 0.494946 0.855017 -0.307749
C29   C     C_R   0.494955 0.502606 0.288263 -0.409720
C30   C     C_R   0.487456 0.497819 0.710558 -0.428846
C31   C     C_R   0.471716 0.493747 0.930014 0.431027
C32   C     C_R   0.471811 0.503295 0.069097 0.423313
C33   C     C_R   0.093555 0.581229 0.478806 0.369752
C34   C     C_R   0.902277 0.434766 0.450818 0.365774
C35   C     C_R   0.908399 0.561181 0.536476 0.378840
C36   C     C_R   0.091464 0.412308 0.507105 0.367508
C37   C     C_R   0.184234 0.584129 0.492705 0.259750
C38   C     C_R   0.810666 0.429057 0.458392 0.259675
C39   C     C_R   0.817025 0.571733 0.529748 0.245990
C40   C     C_R   0.183499 0.411050 0.503595 0.259204
H1    H     H_    0.428439 0.069214 0.403220 0.141398
H2    H     H_    0.623877 0.930515 0.558113 0.132314
H3    H     H_    0.570822 0.070079 0.599305 0.142618
H4    H     H_    0.373415 0.929996 0.447246 0.138127
H5    H     H_    0.428555 0.243164 0.405295 0.173424
H6    H     H_    0.617968 0.755939 0.558974 0.163592
H7    H     H_    0.571547 0.244253 0.594905 0.154089
H8    H     H_    0.377582 0.756316 0.446153 0.164113
N1    N     N_R   0.394801 0.489659 0.033978 -0.214396
N2    N     N_R   0.548579 0.508656 0.965163 -0.124181
N3    N     N_R   0.394705 0.485984 0.965129 -0.241240
N4    N     N_R   0.548674 0.513146 0.033988 -0.133458
N5    N     N_R   0.500000 0.252470 0.500000 -0.103438
N6    N     N_R   0.500000 0.747530 0.500000 -0.095250
O1    O     O_R   0.369060 0.579480 0.500010 -0.593023
O2    O     O_R   0.630940 0.420520 0.499990 -0.611942
O3    O     O_R   0.630940 0.579480 0.499990 -0.607873
O4    O     O_R   0.369060 0.420520 0.500010 -0.596869
O5    O     O_R   0.499990 0.579500 0.398140 -0.605545
O6    O     O_R   0.500010 0.420500 0.601860 -0.597909
O7    O     O_R   0.500010 0.579500 0.601860 -0.585482
O8    O     O_R   0.499990 0.420500 0.398140 -0.595759
Zn1   Zn    Zn3+2 0.500000 0.606140 0.500000 0.973679
Zn2   Zn    Zn3+2 0.500000 0.393860 0.500000 0.964056
O9    O     O_3   0.534865 0.670420 0.283978 -0.544057
C41   C     C_3   0.465074 0.735550 0.291129 0.175233
H9    H     H_    0.421921 0.713453 0.334825 0.125074
H10   H     H_    0.422275 0.741401 0.244156 0.116761
C42   C     C_3   0.504268 0.833278 0.305767 -0.805604
H11   H     H_    0.544966 0.857678 0.261098 0.263638
H12   H     H_    0.450314 0.884783 0.313884 0.187853
H13   H     H_    0.547024 0.830541 0.352970 0.264905
O10   O     O_3   0.437403 0.332368 0.708899 -0.551023
C43   C     C_3   0.348180 0.334311 0.686085 0.130216
H14   H     H_    0.335869 0.395460 0.650336 0.135444
H15   H     H_    0.302178 0.339056 0.730607 0.102378
C44   C     C_3   0.326912 0.243309 0.647281 -0.727714
H16   H     H_    0.254857 0.238764 0.635887 0.218377
H17   H     H_    0.363582 0.242509 0.597645 0.276537
H18   H     H_    0.346077 0.180529 0.679037 0.233128
O11   O     O_3   0.538228 0.662276 0.717461 -0.571426
C45   C     C_3   0.631915 0.665127 0.719756 0.175021
H19   H     H_    0.657948 0.636399 0.670489 0.167946
H20   H     H_    0.661507 0.624001 0.763990 0.128963
C46   C     C_3   0.662700 0.767614 0.726931 -0.806328
H21   H     H_    0.640796 0.795912 0.777541 0.269919
H22   H     H_    0.736108 0.771634 0.724716 0.203890
H23   H     H_    0.634216 0.811782 0.684399 0.242330
O12   O     O_3   0.482000 0.329969 0.283954 -0.601449
C47   C     C_3   0.567335 0.291757 0.273779 0.184899
H24   H     H_    0.610724 0.310956 0.318458 0.178506
H25   H     H_    0.600472 0.317339 0.225247 0.144857
C48   C     C_3   0.560194 0.184313 0.269199 -0.847070
H26   H     H_    0.516632 0.164257 0.224803 0.273332
H27   H     H_    0.626869 0.154016 0.261275 0.211444
H28   H     H_    0.532363 0.154125 0.317717 0.247987
O13   O     O_3   0.518081 0.673748 0.142405 -0.554498
C49   C     C_3   0.445025 0.710731 0.104579 0.110909
H29   H     H_    0.379882 0.693680 0.128962 0.095431
H30   H     H_    0.444840 0.683065 0.050805 0.167669
C50   C     C_3   0.454623 0.818160 0.099064 -0.840644
H31   H     H_    0.519412 0.837529 0.075678 0.269763
H32   H     H_    0.400736 0.847104 0.065713 0.205146
H33   H     H_    0.450526 0.850648 0.151155 0.247502
O14   O     O_3   0.440680 0.325306 0.851165 -0.559086
C51   C     C_3   0.352607 0.312211 0.874279 0.149856
H34   H     H_    0.303835 0.361556 0.849857 0.088225
H35   H     H_    0.350841 0.321893 0.931330 0.172660
C52   C     C_3   0.323010 0.210565 0.860480 -0.834930
H36   H     H_    0.367348 0.160346 0.888365 0.262420
H37   H     H_    0.254255 0.199368 0.879124 0.197658
H38   H     H_    0.325002 0.195686 0.804088 0.263923
O15   O     O_3   0.517057 0.659751 0.858324 -0.570867
C53   C     C_3   0.440470 0.715595 0.863490 0.132150
H39   H     H_    0.389891 0.678833 0.896183 0.122861
H40   H     H_    0.411335 0.731771 0.811294 0.157166
C54   C     C_3   0.465197 0.809097 0.897588 -0.818001
H41   H     H_    0.512160 0.849580 0.864169 0.259292
H42   H     H_    0.404880 0.852024 0.905103 0.200310
H43   H     H_    0.496990 0.795525 0.948872 0.263536
O16   O     O_3   0.443484 0.338422 0.144452 -0.570560
C55   C     C_3   0.353758 0.312064 0.152956 0.143112
H44   H     H_    0.308982 0.370002 0.135245 0.124379
H45   H     H_    0.339513 0.294001 0.208246 0.159998
C56   C     C_3   0.333834 0.224940 0.109344 -0.826739
H46   H     H_    0.376443 0.165260 0.126525 0.254968
H47   H     H_    0.263304 0.203546 0.115373 0.198026
H48   H     H_    0.346576 0.240950 0.053655 0.259859
O17   O     O_3   0.048344 0.663303 0.461628 -0.566196
C57   C     C_3   0.069978 0.691397 0.393159 0.115513
H49   H     H_    0.065091 0.630897 0.356394 0.102481
H50   H     H_    0.138076 0.722148 0.391424 0.176208
C58   C     C_3   0.005420 0.766986 0.368755 -0.855902
H51   H     H_    0.008418 0.828579 0.404274 0.263425
H52   H     H_    0.022772 0.791321 0.315464 0.209643
H53   H     H_    0.936943 0.737398 0.368042 0.243563
O18   O     O_3   0.944820 0.374609 0.405971 -0.562042
C59   C     C_3   0.944233 0.416007 0.338930 0.134250
H54   H     H_    0.972249 0.489459 0.339549 0.113051
H55   H     H_    0.875610 0.417610 0.317322 0.169381
C60   C     C_3   0.000966 0.356943 0.291330 -0.855707
H56   H     H_    0.974359 0.283280 0.288876 0.265112
H57   H     H_    0.070205 0.355352 0.311259 0.237165
H58   H     H_    0.000692 0.388385 0.238175 0.206154
O19   O     O_3   0.957688 0.620213 0.579514 -0.565657
C61   C     C_3   0.939754 0.597550 0.649713 0.125078
H59   H     H_    0.938569 0.519495 0.659513 0.100433
H60   H     H_    0.875251 0.627625 0.665342 0.183635
C62   C     C_3   0.012045 0.640716 0.695285 -0.899455
H61   H     H_    0.014996 0.718804 0.687176 0.259618
H62   H     H_    0.997929 0.625269 0.750829 0.217068
H63   H     H_    0.077113 0.610030 0.682030 0.236739
O20   O     O_3   0.045019 0.329230 0.521134 -0.553430
C63   C     C_3   0.038358 0.317871 0.593811 0.126093
H64   H     H_    0.004061 0.379101 0.617206 0.109635
H65   H     H_    0.105010 0.310318 0.618301 0.151430
C64   C     C_3   0.984521 0.228629 0.609631 -0.848573
H66   H     H_    0.017338 0.165889 0.587299 0.259740
H67   H     H_    0.979098 0.218519 0.666754 0.205442
H68   H     H_    0.916951 0.234979 0.586905 0.238417
O21   O     O_3   0.226416 0.671031 0.501125 -0.593809
C65   C     C_3   0.206506 0.704578 0.568270 0.166527
H69   H     H_    0.220733 0.650033 0.609195 0.111139
H70   H     H_    0.135679 0.725068 0.571210 0.202911
C66   C     C_3   0.262771 0.791809 0.584236 -0.839344
H71   H     H_    0.241825 0.822566 0.634310 0.203574
H72   H     H_    0.333449 0.771823 0.588975 0.272223
H73   H     H_    0.254679 0.846012 0.542439 0.255896
O22   O     O_3   0.762612 0.360047 0.423246 -0.589140
C67   C     C_3   0.772613 0.272451 0.458857 0.175699
H74   H     H_    0.747682 0.277018 0.513063 0.126701
H75   H     H_    0.843034 0.250011 0.460482 0.186139
C68   C     C_3   0.719604 0.195990 0.421351 -0.844722
H76   H     H_    0.743977 0.188595 0.367403 0.251917
H77   H     H_    0.726655 0.127069 0.449207 0.208273
H78   H     H_    0.648597 0.214882 0.419714 0.269887
O23   O     O_3   0.776390 0.649463 0.558560 -0.618750
C69   C     C_3   0.798665 0.732289 0.519467 0.182706
H79   H     H_    0.742969 0.749460 0.483631 0.140478
H80   H     H_    0.859033 0.726147 0.486772 0.171558
C70   C     C_3   0.814485 0.815018 0.568345 -0.862905
H81   H     H_    0.829970 0.880232 0.537744 0.209892
H82   H     H_    0.754759 0.827771 0.599712 0.235523
H83   H     H_    0.871062 0.799569 0.603757 0.278531
O24   O     O_3   0.226445 0.325644 0.512935 -0.585823
C71   C     C_3   0.219680 0.271864 0.451370 0.187613
H84   H     H_    0.274858 0.291999 0.416179 0.128081
H85   H     H_    0.156136 0.281755 0.422289 0.160042
C72   C     C_3   0.226375 0.167051 0.469997 -0.845101
H86   H     H_    0.168435 0.144773 0.501630 0.265279
H87   H     H_    0.227494 0.124282 0.421877 0.199484
H88   H     H_    0.287696 0.153558 0.500465 0.259700

loop_
_geom_bond_atom_site_label_1
_geom_bond_atom_site_label_2
_ccdc_geom_bond_type
C41   H10   S    
C66   H71   S    
C22   C29   A    
C42   H13   S    
C54   H41   S    
C17   C29   S    
O10   C43   S    
C57   H50   S    
C54   H42   S    
O13   C49   S    
C47   H24   S    
C2    O3    A    
C10   C16   A    
C20   C30   A    
C68   H76   S    
C25   C28   A    
C7    C11   A    
C26   C27   A    
C64   H66   S    
C43   H15   S    
C47   C48   S    
C48   H28   S    
C8    H2    S    
O15   C53   S    
C42   H11   S    
C62   H62   S    
C61   H60   S    
O19   C61   S    
C5    C6    S    
N5    Zn2   S    
C68   H78   S    
C41   C42   S    
C67   H74   S    
C15   C16   S    
C61   C62   S    
C5    C36   A    
C6    C35   A    
C72   H87   S    
O22   C67   S    
C50   H32   S    
C42   H12   S    
C9    C13   A    
C48   H27   S    
C32   N4    A    
C45   H20   S    
O8    Zn2   S    
C52   H37   S    
C60   H56   S    
C20   C24   A    
C7    H1    S    
N1    N3    A    
C43   C44   S    
O1    Zn1   S    
C56   H48   S    
N2    N4    A    
O2    Zn2   S    
C18   C30   S    
C26   O16   S    
C23   C27   A    
C21   C30   A    
C13   N5    A    
C11   N5    A    
C44   H16   S    
C44   H17   S    
C41   H9    S    
C64   H67   S    
C58   H52   S    
C66   H72   S    
C39   O23   S    
C36   O20   S    
O3    Zn1   S    
C65   H70   S    
C68   H77   S    
O4    Zn2   S    
C9    H3    S    
O16   C55   S    
C43   H14   S    
C46   H22   S    
C10   H4    S    
C69   C70   S    
C50   H31   S    
C69   H79   S    
C36   C40   A    
C63   C64   S    
C12   H6    S    
C21   C25   A    
C10   C14   A    
C54   H43   S    
O12   C47   S    
C13   H7    S    
C14   H8    S    
C40   O24   S    
C70   H81   S    
C65   H69   S    
O11   C45   S    
C6    C34   A    
C5    C33   A    
C53   H40   S    
C1    C3    S    
C72   H88   S    
C19   C23   A    
C25   O15   S    
C17   O8    A    
C58   H53   S    
C65   C66   S    
C47   H25   S    
C4    C39   A    
C8    C12   A    
O7    Zn1   S    
C63   H64   S    
C48   H26   S    
C51   H34   S    
C46   H21   S    
C59   H55   S    
C17   O5    A    
C62   H63   S    
C18   O6    A    
C14   N6    A    
C4    C38   A    
C3    C40   A    
O23   C69   S    
C50   H33   S    
C49   H30   S    
C22   C26   A    
C56   H46   S    
C52   H38   S    
C57   C58   S    
C31   N2    A    
C71   H85   S    
C19   C29   A    
C38   O22   S    
C37   O21   S    
C61   H59   S    
O18   C59   S    
C46   H23   S    
C33   O17   S    
C35   O19   S    
C70   H83   S    
C23   O13   S    
C27   C32   S    
C34   C38   A    
C63   H65   S    
C28   C31   S    
C24   C28   A    
C31   N3    A    
C59   C60   S    
C69   H80   S    
C21   O11   S    
C18   O7    A    
C55   H44   S    
C60   H58   S    
C64   H68   S    
C66   H73   S    
C45   C46   S    
O14   C51   S    
C34   O18   S    
O5    Zn1   S    
C49   C50   S    
O6    Zn2   S    
C55   C56   S    
C60   H57   S    
C57   H49   S    
O17   C57   S    
O21   C65   S    
C1    O4    A    
C44   H18   S    
C49   H29   S    
O24   C71   S    
C58   H51   S    
C51   H35   S    
C71   C72   S    
C2    C4    S    
C7    C15   A    
C22   O12   S    
C20   O10   S    
C19   O9    S    
C53   H39   S    
O9    C41   S    
C1    O1    A    
C72   H86   S    
C33   C37   A    
C32   N1    A    
C53   C54   S    
C11   H5    S    
C59   H54   S    
C70   H82   S    
C35   C39   A    
C3    C37   A    
C8    C16   A    
C45   H19   S    
N6    Zn1   S    
C52   H36   S    
C56   H47   S    
C2    O2    A    
C24   O14   S    
C67   H75   S    
C71   H84   S    
C62   H61   S    
C55   H45   S    
C67   C68   S    
C12   N6    A    
C9    C15   A    
O20   C63   S    
C51   C52   S    
