data_mof_unit_44005.cif
_audit_creation_date              2013-03-05T15:58:55-0500
_audit_creation_method            fapswitch 2.2
_symmetry_space_group_name_H-M    P1
_symmetry_Int_Tables_number       1
_space_group_crystal_system       triclinic
_cell_length_a                    10.690558
_cell_length_b                    12.619481
_cell_length_c                    13.149331
_cell_angle_alpha                 82.596774
_cell_angle_beta                  90.297625
_cell_angle_gamma                 102.189237
_cell_volume                      1719.07591878

loop_
_atom_site_label
_atom_site_type_symbol
_atom_site_description
_atom_site_fract_x
_atom_site_fract_y
_atom_site_fract_z
_atom_type_partial_charge
O1    O     O_R   0.468120 0.366740 0.627160 -0.614023
O2    O     O_R   0.510770 0.544830 0.662520 -0.627952
C1    C     C_R   0.479864 0.439062 0.691091 0.880239
O3    O     O_R   0.663880 0.410950 0.482330 -0.541782
O4    O     O_R   0.706530 0.589040 0.517700 -0.634982
C2    C     C_R   0.741850 0.500096 0.500589 0.898010
Zn1   Zn    Zn3+2 0.471520 0.381090 0.476390 1.058455
Zn2   Zn    Zn3+2 0.528480 0.618910 0.523610 0.965618
O5    O     O_R   0.489230 0.455170 0.337480 -0.553976
O6    O     O_R   0.531880 0.633260 0.372840 -0.649372
O7    O     O_R   0.293470 0.410960 0.482300 -0.596739
O8    O     O_R   0.336120 0.589050 0.517670 -0.630552
C3    C     C_R   0.514926 0.560889 0.308894 0.905158
C4    C     C_R   0.258417 0.499878 0.501325 0.867695
C5    C     C_3   0.909170 0.409662 0.585543 0.175032
H1    H     H_    0.900322 0.439248 0.660935 0.163434
C6    C     C_3   0.048994 0.400375 0.573255 -0.382734
H2    H     H_    0.098203 0.424673 0.360943 0.285737
C7    C     C_3   0.928165 0.492396 0.389945 0.160578
C8    C     C_3   0.954508 0.611453 0.530618 -0.543717
C9    C     C_3   0.878748 0.500114 0.500779 -0.155623
H3    H     H_    0.940010 0.680510 0.473040 0.222185
H4    H     H_    0.918386 0.627118 0.605415 0.232657
C10   C     C_3   0.122506 0.501683 0.502140 -0.097143
C11   C     C_3   0.073638 0.495331 0.391587 -0.477925
C12   C     C_3   0.097732 0.611186 0.535634 0.199659
H5    H     H_    0.147522 0.680094 0.478656 0.162530
H6    H     H_    0.916599 0.568179 0.340240 0.129265
H7    H     H_    0.124808 0.568373 0.339844 0.191092
C13   C     C_R   0.431955 0.710011 0.062530 -0.108994
C14   C     C_R   0.509269 0.596768 0.200075 -0.087254
C15   C     C_R   0.488029 0.297580 0.837672 -0.216968
C16   C     C_R   0.495602 0.266094 0.942920 0.356996
C17   C     C_R   0.487293 0.342045 0.010117 -0.212124
C18   C     C_R   0.465140 0.447102 0.973339 0.045192
C19   C     C_R   0.436441 0.469684 0.869466 0.049302
C20   C     C_R   0.470338 0.530727 0.036216 0.107616
C21   C     C_R   0.427956 0.627772 0.999438 0.103117
C22   C     C_R   0.380687 0.640425 0.900922 -0.169813
C23   C     C_R   0.384224 0.562044 0.836840 -0.106169
C24   C     C_R   0.519151 0.521332 0.134276 -0.148838
C25   C     C_R   0.471510 0.693976 0.163398 -0.132320
C26   C     C_R   0.462722 0.400100 0.800602 -0.171460
H8    H     H_    0.561063 0.453201 0.163207 0.196362
H9    H     H_    0.494693 0.316136 0.090840 0.205205
H10   H     H_    0.344793 0.574180 0.761608 0.222810
C27   C     C_R   0.311680 0.083677 0.356051 -0.209133
N1    N     N_R   0.433240 0.222190 0.444680 -0.168095
C28   C     C_R   0.652663 0.800173 0.628886 0.030051
C29   C     C_R   0.682176 0.904356 0.657972 -0.196477
C30   C     C_R   0.622545 0.984873 0.610264 -0.089409
C31   C     C_R   0.533367 0.961560 0.532194 0.028505
C32   C     C_R   0.506515 0.853927 0.505787 0.221636
C33   C     C_R   0.469544 0.039955 0.479993 -0.040870
C34   C     C_R   0.373950 0.006773 0.407915 -0.006105
C35   C     C_R   0.344277 0.898060 0.387003 0.285878
C36   C     C_R   0.416308 0.825668 0.431283 -0.263547
C37   C     C_R   0.496694 0.150683 0.496259 -0.021690
C38   C     C_R   0.340889 0.190759 0.376483 0.432760
N2    N     N_R   0.566070 0.776970 0.554790 -0.120091
H11   H     H_    0.566747 0.182425 0.549520 0.195725
H12   H     H_    0.697932 0.736930 0.666057 0.147256
H13   H     H_    0.646517 0.063458 0.637204 0.205014
N3    N     N_R   0.821285 0.302446 0.591850 0.207797
O9    O     O_R   0.825156 0.236772 0.524051 -0.335901
O10   O     O_R   0.747578 0.267283 0.672927 -0.442080
H14   H     H_    0.467254 0.754652 0.213602 0.198518
H15   H     H_    0.343156 0.711799 0.872677 0.195550
H16   H     H_    0.400252 0.784506 0.035097 0.190037
H17   H     H_    0.504866 0.243144 0.784378 0.219494
N4    N     N_R   0.516933 0.159200 0.981112 0.229327
O11   O     O_R   0.526533 0.089430 0.918291 -0.372749
O12   O     O_R   0.524962 0.129898 0.079129 -0.354345
N5    N     N_R   0.266948 0.264593 0.329767 0.212816
O13   O     O_R   0.307543 0.324021 0.243392 -0.394946
O14   O     O_R   0.145001 0.242982 0.351574 -0.352037
N6    N     N_R   0.238067 0.858546 0.324358 0.194469
O15   O     O_R   0.247841 0.788887 0.261607 -0.433621
O16   O     O_R   0.124930 0.874200 0.345036 -0.384164
H18   H     H_    0.240947 0.062521 0.298815 0.229778
H19   H     H_    0.750284 0.922485 0.717821 0.184956
H20   H     H_    0.396485 0.746038 0.408471 0.219631
H21   H     H_    0.093619 0.392786 0.649706 0.186682
H22   H     H_    0.054560 0.324962 0.539604 0.253724
N7    N     N_R   0.854465 0.399922 0.342120 0.261041
O17   O     O_R   0.899858 0.313439 0.333839 -0.251831
O18   O     O_R   0.757066 0.415022 0.286646 -0.400531
N8    N     N_R   0.146835 0.631790 0.637566 0.213720
O19   O     O_R   0.230442 0.721167 0.646721 -0.398357
O20   O     O_R   0.097776 0.568949 0.720203 -0.431872

loop_
_geom_bond_atom_site_label_1
_geom_bond_atom_site_label_2
_geom_bond_distance
_ccdc_geom_bond_type
C34   C35   1.403891 A    
C14   C25   1.398208 A    
C22   H15   1.084003 S    
C18   C19   1.404696 A    
Zn1   N1    2.056567 S    
N6    O15   1.300425 A    
Zn1   O7    2.020726 S    
C1    C26   1.459846 S    
C12   H5    1.114272 S    
C28   N2    1.357084 A    
N5    O14   1.299920 A    
C18   C20   1.414199 A    
C10   C12   1.576799 S    
C21   C22   1.390296 A    
O7    C4    1.308821 A    
C5    H1    1.114635 S    
C35   C36   1.386331 A    
C13   C21   1.403541 A    
Zn1   O5    1.932606 S    
C17   C18   1.419081 A    
C4    C10   1.458052 S    
O5    C3    1.309092 A    
C5    N3    1.468103 S    
C37   H11   1.073294 S    
N6    O16   1.301533 A    
H2    C11   1.104071 S    
C27   H18   1.081728 S    
O3    Zn1   2.013879 S    
C32   N2    1.363551 A    
C31   C33   1.421466 A    
C16   C17   1.400818 A    
N7    O18   1.301033 A    
C11   H7    1.114051 S    
C6    C10   1.549760 S    
N5    O13   1.299586 A    
C30   C31   1.413686 A    
C19   C23   1.413351 A    
C30   H13   1.075600 S    
C10   C11   1.548237 S    
O3    C2    1.299833 A    
C22   C23   1.385913 A    
N4    O12   1.301808 A    
C32   C36   1.397113 A    
C15   H17   1.083047 S    
N7    O17   1.301257 A    
C2    C9    1.463454 S    
C35   N6    1.439948 S    
O1    C1    1.305236 A    
N3    O10   1.301370 A    
C23   H10   1.078723 S    
C20   C21   1.420693 A    
C8    H4    1.114377 S    
Zn2   O8    2.013879 S    
C29   C30   1.391928 A    
C17   H9    1.077239 S    
C8    C9    1.562783 S    
C7    H6    1.115833 S    
C38   N5    1.424363 S    
C12   N8    1.471235 S    
N8    O20   1.301124 A    
C25   H14   1.081411 S    
C24   H8    1.077634 S    
C13   H16   1.083810 S    
C31   C32   1.415543 A    
N1    C38   1.361364 A    
C27   C34   1.395579 A    
C33   C37   1.409832 A    
C5    C6    1.534800 S    
C33   C34   1.424612 A    
C28   H12   1.081752 S    
C14   C24   1.386242 A    
C7    C9    1.574450 S    
O1    Zn1   1.967225 S    
C3    C14   1.449083 S    
O2    Zn2   1.932606 S    
C8    H3    1.114670 S    
C7    N7    1.474380 S    
O6    C3    1.303981 A    
O4    Zn2   2.020727 S    
N1    C37   1.352945 A    
C6    H22   1.112532 S    
C15   C16   1.396581 A    
O2    C1    1.310598 A    
O8    C4    1.291617 A    
N4    O11   1.301767 A    
Zn2   N2    2.044189 S    
O4    C2    1.303061 A    
C8    C12   1.532916 S    
N3    O9    1.299477 A    
C15   C26   1.403032 A    
C20   C24   1.388779 A    
C7    C11   1.547893 S    
C16   N4    1.441528 S    
C27   C38   1.382115 A    
C5    C9    1.573577 S    
N8    O19   1.301409 A    
Zn2   O6    1.967222 S    
C28   C29   1.388348 A    
C36   H20   1.063856 S    
C13   C25   1.392875 A    
C19   C26   1.407736 A    
C6    H21   1.112146 S    
C29   H19   1.082554 S    
