data_mof_unit_43020.cif
_audit_creation_date              2012-10-26T19:03:25-0400
_audit_creation_method            fapswitch 2.2
_symmetry_space_group_name_H-M    P1
_symmetry_Int_Tables_number       1
_space_group_crystal_system       triclinic
_cell_length_a                    10.793433
_cell_length_b                    13.047864
_cell_length_c                    11.718521
_cell_angle_alpha                 99.109159
_cell_angle_beta                  94.539289
_cell_angle_gamma                 92.449501
_cell_volume                      1621.846627

loop_
_atom_site_label
_atom_site_type_symbol
_atom_type_description
_atom_site_fract_x
_atom_site_fract_y
_atom_site_fract_z
_atom_type_partial_charge
C1    C     C_R   0.501356 0.299461 0.479693 0.563237
C2    C     C_R   0.456240 0.125280 0.365196 -0.114043
C3    C     C_R   0.543288 0.138797 0.565921 0.087720
C4    C     C_R   0.262630 0.503989 0.498711 0.586315
C5    C     C_R   0.525069 0.030244 0.558868 0.073975
C6    C     C_R   0.481678 0.969576 0.449513 0.007298
C7    C     C_R   0.472086 0.861509 0.438588 -0.108384
C8    C     C_R   0.531680 0.871952 0.643225 -0.090744
C9    C     C_R   0.546931 0.979113 0.657039 0.111094
C10   C     C_R   0.377664 0.405112 0.021962 -0.159848
C11   C     C_R   0.388397 0.414481 0.143748 0.054994
C12   C     C_R   0.066938 0.595057 0.467396 -0.048568
C13   C     C_R   0.556487 0.540663 0.155893 0.269631
C14   C     C_R   0.542259 0.539947 0.033753 0.065481
C15   C     C_R   0.454939 0.467314 0.966081 -0.034565
C16   C     C_R   0.495907 0.700108 0.520996 0.561195
C17   C     C_R   0.447750 0.458018 0.843508 0.036066
C18   C     C_R   0.603577 0.593022 0.853917 0.064380
C19   C     C_R   0.614508 0.606618 0.975370 0.080615
C20   C     C_R   0.737862 0.504707 0.501373 0.585945
C21   C     C_R   0.126090 0.678699 0.423787 0.141767
C22   C     C_R   0.080636 0.778019 0.446020 0.110448
C23   C     C_R   0.128314 0.505752 0.492007 0.016880
C24   C     C_R   0.966653 0.790524 0.492581 -0.108026
C25   C     C_R   0.893314 0.703811 0.508907 0.084775
C26   C     C_R   0.941635 0.603475 0.493054 0.032362
C27   C     C_R   0.060505 0.419068 0.516971 0.062611
C28   C     C_R   0.932498 0.420775 0.517669 -0.127298
C29   C     C_R   0.872508 0.511389 0.505313 0.007814
C30   C     C_R   0.497876 0.812956 0.534444 -0.047851
C31   C     C_R   0.501385 0.186278 0.470358 -0.001700
C32   C     C_R   0.449357 0.017911 0.352946 0.091540
Cu1   Cu    Cu3+1 0.509250 0.507730 0.615930 0.976467
Cu2   Cu    Cu3+1 0.490750 0.492270 0.384070 0.986827
H1    H     H_    0.425754 0.161248 0.291372 0.159763
H2    H     H_    0.514121 0.086682 0.796096 0.260093
H3    H     H_    0.669505 0.066043 0.779956 0.276021
H4    H     H_    0.683135 0.245098 0.639880 0.252227
H5    H     H_    0.553083 0.243794 0.716229 0.258545
H6    H     H_    0.646314 0.642409 0.293434 0.286075
H7    H     H_    0.732950 0.541749 0.231852 0.258703
H8    H     H_    0.088159 0.897563 0.355695 0.267216
H9    H     H_    0.166619 0.921033 0.488707 0.241130
H10   H     H_    0.726582 0.760437 0.488106 0.224482
H11   H     H_    0.783577 0.769346 0.627832 0.233680
H12   H     H_    0.381866 0.401678 0.790534 0.146788
H13   H     H_    0.658372 0.643187 0.809615 0.153562
H14   H     H_    0.308597 0.349779 0.971730 0.119960
H15   H     H_    0.326877 0.367197 0.185319 0.144060
H16   H     H_    0.930590 0.867281 0.508356 0.127555
H17   H     H_    0.879489 0.351458 0.529925 0.134970
H18   H     H_    0.445272 0.814001 0.355544 0.201447
H19   H     H_    0.550114 0.834597 0.718663 0.174278
I1    I     I_    0.144894 0.279965 0.545995 -0.388995
I2    I     I_    0.732200 0.738860 0.054035 -0.311966
I3    I     I_    0.221159 0.653406 0.269745 -0.251959
I4    I     I_    0.383490 0.936574 0.185391 -0.297061
N1    N     N_R   0.523180 0.519350 0.790130 -0.257025
N2    N     N_R   0.476820 0.480650 0.209890 -0.221435
N3    N     N_3   0.579375 0.031857 0.773164 -0.603418
N4    N     N_3   0.612662 0.198660 0.665849 -0.647351
N5    N     N_3   0.665356 0.594417 0.218283 -0.578180
N6    N     N_3   0.146777 0.865278 0.414207 -0.579564
N7    N     N_3   0.772923 0.720390 0.547506 -0.609975
O1    O     O_R   0.506570 0.354460 0.582000 -0.507603
O2    O     O_R   0.490940 0.341410 0.386200 -0.508802
O3    O     O_R   0.327470 0.506530 0.597920 -0.481503
O4    O     O_R   0.311840 0.493480 0.402120 -0.479883
O5    O     O_R   0.509060 0.658590 0.613800 -0.503016
O6    O     O_R   0.493430 0.645540 0.418000 -0.503900
O7    O     O_R   0.688160 0.506520 0.597880 -0.490700
O8    O     O_R   0.672530 0.493470 0.402080 -0.516625

loop_
_geom_bond_atom_site_label_1
_geom_bond_atom_site_label_2
_ccdc_geom_bond_type
C2    H1    S    
C8    H19   S    
C21   I3    S    
C6    C32   A    
C20   O7    A    
C5    C9    A    
C6    C7    A    
C13   N2    A    
C23   C27   A    
C8    C9    A    
C4    O3    A    
Cu2   O6    S    
H11   N7    S    
C1    O1    A    
Cu1   O5    S    
C17   N1    A    
C10   C15   A    
C9    N3    S    
C8    C30   A    
C18   H13   S    
Cu2   O2    S    
Cu1   Cu2   S    
C25   C26   A    
C27   I1    S    
Cu1   O1    S    
C7    C30   A    
C21   C22   A    
C24   C25   A    
C3    C31   A    
C12   C23   A    
Cu1   N1    S    
H8    N6    S    
C32   I4    S    
C11   N2    A    
H7    N5    S    
C28   C29   A    
C16   O5    A    
C7    H18   S    
C1    O2    A    
C10   H14   S    
C3    C5    A    
C20   C29   S    
C3    N4    S    
C24   H16   S    
C5    C6    A    
H5    N4    S    
C28   H17   S    
C22   C24   A    
H3    N3    S    
C10   C11   A    
Cu1   O7    S    
C16   C30   S    
C12   C21   A    
Cu2   O8    S    
C1    C31   S    
H6    N5    S    
C17   H12   S    
Cu1   O3    S    
C26   C29   A    
C2    C32   A    
C18   C19   A    
H9    N6    S    
Cu2   O4    S    
H4    N4    S    
C15   C17   A    
C4    C23   S    
C19   I2    S    
C14   C15   A    
C20   O8    A    
C11   H15   S    
C16   O6    A    
H2    N3    S    
C22   N6    S    
C13   C14   A    
Cu2   N2    S    
C4    O4    A    
C14   C19   A    
C18   N1    A    
H10   N7    S    
C13   N5    S    
C12   C26   A    
C2    C31   A    
C27   C28   A    
C25   N7    S    
