data_mof_unit_24643.cif
_audit_creation_date              2012-12-10T18:12:40-0500
_audit_creation_method            fapswitch 2.2
_symmetry_space_group_name_H-M    P1
_symmetry_Int_Tables_number       1
_space_group_crystal_system       triclinic
_cell_length_a                    12.740847
_cell_length_b                    13.282642
_cell_length_c                    15.731968
_cell_angle_alpha                 93.516611
_cell_angle_beta                  102.456303
_cell_angle_gamma                 83.064162
_cell_volume                      2578.94896352

loop_
_atom_site_label
_atom_site_type_symbol
_atom_type_description
_atom_site_fract_x
_atom_site_fract_y
_atom_site_fract_z
_atom_type_partial_charge
C1    C     C_R   0.440761 0.690956 0.496848 0.842072
C2    C     C_3   0.505118 0.496453 0.916727 -0.027246
C3    C     C_3   0.488379 0.403617 0.020416 0.302734
C4    C     C_3   0.497813 0.496767 0.083442 -0.055391
C5    C     C_3   0.584163 0.431049 0.985170 0.219198
C6    C     C_3   0.593845 0.524049 0.047998 0.301447
C7    C     C_1   0.506279 0.497773 0.826272 0.156470
C8    C     C_1   0.496110 0.496698 0.173845 0.106758
C9    C     C_R   0.728201 0.062575 0.580864 -0.173548
C10   C     C_R   0.593750 0.205893 0.542043 -0.302332
C11   C     C_R   0.300631 0.836480 0.462034 -0.167664
C12   C     C_R   0.501401 0.500317 0.661645 0.849170
C13   C     C_R   0.272129 0.939378 0.449186 -0.176375
C14   C     C_R   0.348764 0.007226 0.475955 -0.084207
C15   C     C_R   0.453967 0.974330 0.523222 0.103097
C16   C     C_R   0.481416 0.870305 0.539818 0.004876
C17   C     C_R   0.535997 0.040181 0.547896 -0.105756
C18   C     C_R   0.645671 0.999567 0.572771 -0.111883
C19   C     C_R   0.670226 0.897414 0.592799 0.538621
C20   C     C_R   0.585836 0.838828 0.588441 -0.268726
C21   C     C_R   0.512614 0.145327 0.548381 0.446869
C22   C     C_R   0.703527 0.164480 0.562206 0.364584
C23   C     C_R   0.559706 0.310538 0.516186 0.916210
C24   C     C_R   0.406355 0.800394 0.503063 -0.071531
C25   C     C_R   0.098304 0.329807 0.390359 0.303337
C26   C     C_R   0.804802 0.611090 0.618277 -0.222677
C27   C     C_R   0.913879 0.617126 0.658123 0.487878
C28   C     C_R   0.994189 0.567839 0.617300 0.380190
C29   C     C_R   0.965876 0.516985 0.534268 -0.242168
C30   C     C_R   0.855178 0.501367 0.503777 0.062411
C31   C     C_R   0.044336 0.471569 0.485855 -0.214500
C32   C     C_R   0.017396 0.391507 0.424146 -0.222323
C33   C     C_R   0.909798 0.377804 0.393190 0.397477
C34   C     C_R   0.498719 0.499327 0.338363 0.912458
C35   C     C_R   0.831020 0.425328 0.436045 0.418919
C36   C     C_R   0.148559 0.503111 0.493294 0.463288
C37   C     C_R   0.200076 0.361569 0.403795 0.532718
C38   C     C_3   0.416624 0.563852 0.015709 -0.390269
C39   C     C_3   0.514385 0.589212 0.980130 0.357230
C40   C     C_1   0.505005 0.499159 0.750939 -0.151805
C41   C     C_1   0.496275 0.497597 0.249111 -0.192244
C42   C     C_3   0.409408 0.469369 0.952637 0.347076
H1    H     H_    0.241561 0.784625 0.434922 0.172314
H2    H     H_    0.325284 0.083876 0.454632 0.221894
H3    H     H_    0.191936 0.966045 0.413642 0.167275
H4    H     H_    0.604609 0.767115 0.619487 0.177549
H5    H     H_    0.741192 0.645522 0.649165 0.171273
H6    H     H_    0.348025 0.618059 0.028789 0.195997
H7    H     H_    0.812464 0.033311 0.601405 0.214729
N1    N     N_R   0.222180 0.444680 0.455580 -0.190631
N2    N     N_R   0.776980 0.554790 0.543960 -0.126204
O1    O     O_R   0.366730 0.627160 0.478790 -0.568419
O2    O     O_R   0.544830 0.662520 0.507160 -0.633058
O3    O     O_R   0.410960 0.482330 0.609040 -0.565464
O4    O     O_R   0.589060 0.517690 0.637410 -0.641619
O5    O     O_R   0.455170 0.337480 0.492840 -0.513395
O6    O     O_R   0.633270 0.372840 0.521210 -0.558260
O7    O     O_R   0.410940 0.482310 0.362590 -0.618068
O8    O     O_R   0.589040 0.517670 0.390960 -0.538073
Zn1   Zn    Zn3+2 0.381080 0.476390 0.481050 1.051965
Zn2   Zn    Zn3+2 0.618920 0.523610 0.518950 0.980205
O9    O     O_3   0.530039 0.685415 0.957106 -0.728741
H8    H     H_    0.532209 0.728783 0.010882 0.353560
O10   O     O_3   0.412452 0.189202 0.560873 -0.595865
C43   C     C_3   0.418617 0.207476 0.650960 -0.225431
H9    H     H_    0.479425 0.260644 0.678956 0.142100
H10   H     H_    0.437196 0.135315 0.686389 0.163282
H11   H     H_    0.338800 0.243628 0.660883 0.200081
O11   O     O_3   0.281426 0.305743 0.370073 -0.550069
C44   C     C_3   0.262265 0.319880 0.279573 -0.197722
H12   H     H_    0.337041 0.291517 0.256279 0.190662
H13   H     H_    0.242373 0.401410 0.263269 0.129693
H14   H     H_    0.197005 0.275446 0.243727 0.199229
O12   O     O_3   0.879451 0.317796 0.318591 -0.613996
C45   C     C_3   0.844788 0.381384 0.246960 -0.186273
H15   H     H_    0.910206 0.426102 0.238677 0.153744
H16   H     H_    0.770987 0.432906 0.253287 0.194667
H17   H     H_    0.823702 0.333234 0.186968 0.196177
O13   O     O_3   0.082742 0.236520 0.348868 -0.718233
H18   H     H_    0.033777 0.203980 0.377169 0.375764
O14   O     O_3   0.176813 0.594912 0.531265 -0.688306
H19   H     H_    0.110480 0.643627 0.524503 0.331898
O15   O     O_3   0.098418 0.560360 0.666338 -0.656008
H20   H     H_    0.134786 0.492484 0.653971 0.356063
O16   O     O_3   0.947266 0.671318 0.736122 -0.533678
C46   C     C_3   0.878319 0.668062 0.794899 -0.200852
H21   H     H_    0.854114 0.590686 0.797693 0.139094
H22   H     H_    0.806346 0.725023 0.778503 0.176477
H23   H     H_    0.922705 0.688907 0.861127 0.195643
O17   O     O_3   0.732485 0.390293 0.414301 -0.698643
H24   H     H_    0.736452 0.320682 0.387580 0.365788
O18   O     O_3   0.689671 0.553495 0.099734 -0.770944
H25   H     H_    0.735854 0.563627 0.058398 0.353501
O19   O     O_3   0.670260 0.363025 0.967857 -0.741156
H26   H     H_    0.705242 0.332799 0.024452 0.353759
O20   O     O_3   0.473787 0.307016 0.043279 -0.739964
H27   H     H_    0.470804 0.264105 0.989185 0.358609
O21   O     O_3   0.314170 0.439202 0.900482 -0.716264
H28   H     H_    0.268036 0.428060 0.941586 0.351514
O22   O     O_3   0.788300 0.221323 0.567948 -0.736085
H29   H     H_    0.778389 0.278021 0.610456 0.352254
O23   O     O_3   0.775899 0.854724 0.619186 -0.603282
C47   C     C_3   0.817350 0.825938 0.543706 -0.297967
H30   H     H_    0.816902 0.891691 0.503124 0.158983
H31   H     H_    0.902773 0.793066 0.563863 0.201522
H32   H     H_    0.771390 0.767518 0.503247 0.170962

loop_
_geom_bond_atom_site_label_1
_geom_bond_atom_site_label_2
_ccdc_geom_bond_type
C30   N2    A    
C3    C42   S    
C37   O11   S    
C19   C20   A    
N2    Zn2   S    
C4    C8    S    
C5    O19   S    
C23   O5    A    
O3    Zn1   S    
O16   C46   S    
C10   C22   A    
C26   C27   A    
C29   C30   A    
C30   C35   A    
C28   C29   A    
C38   C42   S    
C42   O21   S    
C5    C6    S    
C19   O23   S    
C46   H22   S    
C9    C22   A    
O7    Zn1   S    
C15   C16   A    
C11   C24   A    
C15   C17   A    
C18   C19   A    
C27   O16   S    
C1    O2    A    
O18   H25   S    
C21   O10   S    
O1    Zn1   S    
C2    C7    S    
C25   C37   A    
O2    Zn2   S    
C2    C39   S    
C31   C32   A    
C43   H10   S    
C7    C40   T    
C11   H1    S    
C3    O20   S    
C38   H6    S    
C25   C32   A    
C16   C24   A    
C25   O13   S    
C13   C14   A    
C28   O15   S    
O11   C44   S    
C34   C41   S    
C1    O1    A    
O14   H19   S    
C10   C21   A    
O8    Zn2   S    
C22   O22   S    
O12   C45   S    
C9    H7    S    
C8    C41   T    
C4    C6    S    
C46   H21   S    
C17   C21   A    
O5    Zn1   S    
C12   C40   S    
C45   H15   S    
O9    H8    S    
C9    C18   A    
O15   H20   S    
C14   C15   A    
C36   O14   S    
C16   C20   A    
C43   H11   S    
O20   H27   S    
C44   H14   S    
C17   C18   A    
O19   H26   S    
C47   H31   S    
C45   H16   S    
C44   H12   S    
C26   H5    S    
C4    C38   S    
O21   H28   S    
C34   O8    A    
C2    C5    S    
C3    C4    S    
C47   H30   S    
C36   N1    A    
C14   H2    S    
C23   O6    A    
C39   O9    S    
C31   C36   A    
C3    C5    S    
C46   H23   S    
O6    Zn2   S    
C10   C23   S    
N1    Zn1   S    
C32   C33   A    
C29   C31   A    
C26   N2    A    
O10   C43   S    
C13   H3    S    
C37   N1    A    
C11   C13   A    
O17   H24   S    
C38   C39   S    
C2    C42   S    
C6    O18   S    
O4    Zn2   S    
O22   H29   S    
C33   C35   A    
C47   H32   S    
O23   C47   S    
C45   H17   S    
C12   O3    A    
C12   O4    A    
O13   H18   S    
C35   O17   S    
C33   O12   S    
C1    C24   S    
C43   H9    S    
C27   C28   A    
C34   O7    A    
C6    C39   S    
C44   H13   S    
C20   H4    S    
