data_mof_unit_35036.cif
_audit_creation_date              2012-12-10T17:03:00-0500
_audit_creation_method            fapswitch 2.2
_symmetry_space_group_name_H-M    P1
_symmetry_Int_Tables_number       1
_space_group_crystal_system       triclinic
_cell_length_a                    9.839303
_cell_length_b                    11.082637
_cell_length_c                    13.497725
_cell_angle_alpha                 94.65489
_cell_angle_beta                  81.686282
_cell_angle_gamma                 111.063383
_cell_volume                      1358.40696497

loop_
_atom_site_label
_atom_site_type_symbol
_atom_type_description
_atom_site_fract_x
_atom_site_fract_y
_atom_site_fract_z
_atom_type_partial_charge
C1    C     C_R   0.555365 0.745149 0.508853 0.803308
C2    C     C_R   0.451519 0.435234 0.957688 0.097365
C3    C     C_R   0.468922 0.500893 0.868156 0.071745
C4    C     C_R   0.548600 0.493627 0.031485 -0.012549
C5    C     C_R   0.678693 0.600703 0.003827 -0.007329
C6    C     C_R   0.695531 0.662178 0.914331 -0.155444
C7    C     C_R   0.587149 0.618600 0.851438 -0.188259
C8    C     C_R   0.516633 0.458584 0.133896 0.106818
C9    C     C_R   0.758289 0.608803 0.166312 -0.314071
C10   C     C_R   0.372264 0.444856 0.794670 -0.193142
C11   C     C_2   0.582350 0.883195 0.522615 0.292556
C12   C     C_R   0.421567 0.483712 0.689852 0.777436
C13   C     C_2   0.476207 0.930524 0.514832 0.432887
C14   C     C_2   0.413632 0.116969 0.492063 -0.286129
C15   C     C_2   0.495590 0.067335 0.535470 0.102100
C16   C     C_2   0.922147 0.489820 0.490932 0.201596
C17   C     C_2   0.075696 0.506538 0.511318 0.224845
C18   C     C_R   0.442879 0.255074 0.495504 0.838533
C19   C     C_R   0.576499 0.508991 0.309663 0.855302
C20   C     C_R   0.786222 0.651052 0.068975 0.608444
C21   C     C_R   0.620703 0.520619 0.201071 -0.145773
C22   C     C_R   0.250241 0.329461 0.815533 0.154242
C23   C     C_R   0.239145 0.261795 0.900721 0.211511
C24   C     C_R   0.344247 0.310220 0.966722 -0.318056
Cu1   Cu    Cu3+1 0.362000 0.479240 0.482530 1.002045
Cu2   Cu    Cu3+1 0.638000 0.520760 0.517470 1.002084
H1    H     H_    0.838857 0.655102 0.217335 0.198333
H2    H     H_    0.329551 0.056284 0.447255 0.189366
H3    H     H_    0.112764 0.390490 0.396195 0.176187
H4    H     H_    0.889661 0.614238 0.600955 0.178447
H5    H     H_    0.789336 0.748742 0.895052 0.203873
H6    H     H_    0.342768 0.245408 0.022104 0.158801
H7    H     H_    0.599628 0.676590 0.787693 0.161838
N1    N     N_2   0.845330 0.551960 0.543750 -0.266906
N2    N     N_2   0.154690 0.448120 0.456210 -0.267688
O1    O     O_R   0.426290 0.668220 0.490680 -0.515255
O2    O     O_R   0.659360 0.703290 0.520190 -0.542873
O3    O     O_R   0.326580 0.473880 0.629020 -0.567359
O4    O     O_R   0.559660 0.508940 0.658530 -0.572624
O5    O     O_R   0.340640 0.296710 0.479810 -0.589159
O6    O     O_R   0.573710 0.331780 0.509320 -0.522914
O7    O     O_R   0.440340 0.491060 0.341470 -0.539759
O8    O     O_R   0.673420 0.526120 0.370980 -0.565204
F1    F     F_    0.346424 0.852569 0.483580 -0.686677
F2    F     F_    0.716764 0.961012 0.545991 -0.694559
N3    N     N_3   0.136257 0.587763 0.593951 -0.488107
H8    H     H_    0.138443 0.681030 0.584405 0.253888
H9    H     H_    0.067643 0.551847 0.659701 0.177851
N4    N     N_3   0.858329 0.403242 0.411687 -0.504393
H10   H     H_    0.923803 0.435276 0.344058 0.197454
H11   H     H_    0.856913 0.311070 0.424655 0.198355
F3    F     F_    0.914800 0.747653 0.040623 -0.672289
N5    N     N_3   0.372765 0.377362 0.175820 -0.572845
H12   H     H_    0.365192 0.280916 0.175759 0.214812
H13   H     H_    0.288749 0.392721 0.145381 0.238283
N6    N     N_3   0.144301 0.271655 0.746858 -0.527988
H14   H     H_    0.196482 0.245698 0.679954 0.239919
H15   H     H_    0.097138 0.338536 0.733246 0.236617
N7    N     N_3   0.124952 0.138418 0.916843 -0.527880
H16   H     H_    0.173844 0.069159 0.918779 0.237278
H17   H     H_    0.065820 0.142435 0.987159 0.228540
N8    N     N_3   0.592685 0.144484 0.605346 -0.548713
H18   H     H_    0.576277 0.091166 0.669248 0.239241
H19   H     H_    0.701219 0.167484 0.572207 0.282042

loop_
_geom_bond_atom_site_label_1
_geom_bond_atom_site_label_2
_ccdc_geom_bond_type
Cu1   O7    S    
C8    N5    S    
C2    C4    A    
C23   C24   A    
C24   H6    S    
Cu2   O2    S    
N8    H18   S    
Cu1   O3    S    
C11   C13   D    
H3    N2    S    
C14   C18   S    
C9    C20   A    
C22   N6    S    
C1    C11   S    
C19   O7    A    
C1    O2    A    
C4    C8    A    
C16   N1    D    
C12   O4    A    
C13   C15   S    
C6    H5    S    
N7    H16   S    
C20   F3    S    
C3    C10   A    
Cu2   O6    S    
N5    H12   S    
C10   C22   A    
C23   N7    S    
C7    H7    S    
C9    C21   A    
C6    C7    A    
C10   C12   S    
Cu1   N2    S    
C19   C21   S    
C15   N8    S    
N6    H15   S    
Cu2   O8    S    
C2    C3    A    
C3    C7    A    
N5    H13   S    
Cu1   O5    S    
C12   O3    A    
C5    C6    A    
N3    H9    S    
Cu2   O4    S    
C11   F2    S    
N7    H17   S    
N6    H14   S    
H4    N1    S    
Cu1   O1    S    
C16   N4    S    
C17   N3    S    
C9    H1    S    
N4    H10   S    
C18   O6    A    
C5    C20   A    
C18   O5    A    
N3    H8    S    
C16   C17   S    
N8    H19   S    
C2    C24   A    
C17   N2    D    
C14   H2    S    
Cu1   Cu2   S    
C14   C15   D    
C13   F1    S    
Cu2   N1    S    
C22   C23   A    
C1    O1    A    
C19   O8    A    
C4    C5    A    
N4    H11   S    
C8    C21   A    
