data_mof_unit_54140.cif
_audit_creation_date              2012-12-10T22:11:16-0500
_audit_creation_method            fapswitch 2.2
_symmetry_space_group_name_H-M    P1
_symmetry_Int_Tables_number       1
_space_group_crystal_system       triclinic
_cell_length_a                    12.121455
_cell_length_b                    12.318792
_cell_length_c                    23.022701
_cell_angle_alpha                 91.035757
_cell_angle_beta                  90.576354
_cell_angle_gamma                 90.641707
_cell_volume                      3436.83013226

loop_
_atom_site_label
_atom_site_type_symbol
_atom_type_description
_atom_site_fract_x
_atom_site_fract_y
_atom_site_fract_z
_atom_type_partial_charge
C1    C     C_R   0.656151 0.998278 0.579766 0.867554
C2    C     C_R   0.344354 0.001635 0.420092 0.870179
C3    C     C_R   0.893153 0.810307 0.130277 0.165557
C4    C     C_R   0.100149 0.244995 0.840356 0.170624
C5    C     C_R   0.089522 0.855936 0.191636 -0.175461
C6    C     C_R   0.916324 0.106467 0.830049 -0.157130
C7    C     C_R   0.087005 0.775202 0.149299 -0.207595
C8    C     C_R   0.918563 0.187110 0.872308 -0.209250
C9    C     C_R   0.892511 0.162499 0.191733 0.183796
C10   C     C_R   0.102567 0.875101 0.828500 0.206614
C11   C     C_R   0.899072 0.245774 0.152308 -0.171892
C12   C     C_R   0.099096 0.792564 0.868451 -0.171377
C13   C     C_R   0.114068 0.913691 0.321532 -0.161279
C14   C     C_R   0.847791 0.090250 0.699307 -0.168334
C15   C     C_R   0.195555 0.911028 0.363793 -0.187393
C16   C     C_R   0.767318 0.092151 0.656228 -0.177689
C17   C     C_R   0.884643 0.103067 0.329868 0.205916
C18   C     C_R   0.151283 0.889631 0.689184 0.177442
C19   C     C_R   0.803744 0.097630 0.371654 -0.181813
C20   C     C_R   0.234409 0.897011 0.648625 -0.175918
C21   C     C_3   0.995932 0.010216 0.248390 -0.085570
C22   C     C_3   0.003777 0.991275 0.752113 -0.085125
C23   C     C_R   0.655591 0.001520 0.421371 0.885206
C24   C     C_R   0.344993 0.998194 0.579014 0.886308
C25   C     C_R   0.098708 0.007050 0.287745 0.108847
C26   C     C_R   0.900738 0.992265 0.713065 0.105332
C27   C     C_R   0.262646 0.002208 0.373952 -0.029969
C28   C     C_R   0.738994 0.996799 0.625535 -0.028955
C29   C     C_R   0.903289 0.010861 0.292746 0.097957
C30   C     C_R   0.096611 0.986644 0.707570 0.098992
C31   C     C_R   0.742383 0.002719 0.378901 -0.063522
C32   C     C_R   0.259407 0.995235 0.622262 -0.070114
C33   C     C_R   0.991117 0.106015 0.207173 0.098210
C34   C     C_R   0.006165 0.897963 0.794861 0.096112
C35   C     C_R   0.997601 0.269631 0.124391 -0.067886
C36   C     C_R   0.001768 0.734244 0.877622 -0.060773
C37   C     C_R   0.993000 0.912290 0.206236 0.065893
C38   C     C_R   0.006683 0.090951 0.792982 0.069479
C39   C     C_R   0.989428 0.750933 0.118339 -0.089065
C40   C     C_R   0.010405 0.256148 0.878368 -0.089226
C41   C     C_R   0.992241 0.663538 0.074843 0.878668
C42   C     C_R   0.007680 0.340128 0.923304 0.885853
C43   C     C_R   0.999003 0.352586 0.080872 0.876719
C44   C     C_R   0.000942 0.648512 0.919663 0.884656
C45   C     C_R   0.170701 0.096514 0.297014 -0.145751
C46   C     C_R   0.870731 0.897409 0.681453 -0.161044
C47   C     C_R   0.251421 0.094092 0.339853 -0.160884
C48   C     C_R   0.790088 0.899244 0.638835 -0.179991
C49   C     C_R   0.844755 0.913508 0.303847 -0.196697
C50   C     C_R   0.116069 0.082005 0.675615 -0.190528
C51   C     C_R   0.764360 0.910073 0.345781 -0.169290
C52   C     C_R   0.198488 0.087286 0.634888 -0.178673
C53   C     C_R   0.087196 0.126583 0.174625 -0.191588
C54   C     C_R   0.906898 0.842633 0.808224 -0.207924
C55   C     C_R   0.091422 0.209105 0.135064 -0.179671
C56   C     C_R   0.905298 0.760712 0.848206 -0.159668
C57   C     C_R   0.896165 0.889125 0.173998 -0.185501
C58   C     C_R   0.098378 0.161621 0.799104 -0.176546
H1    H     H_    0.304012 0.164920 0.346853 0.167617
H2    H     H_    0.769726 0.824468 0.615454 0.168775
H3    H     H_    0.861759 0.838057 0.281242 0.158337
H4    H     H_    0.068241 0.154489 0.683142 0.154208
H5    H     H_    0.160493 0.078226 0.180073 0.154959
H6    H     H_    0.828447 0.863445 0.789043 0.159189
H7    H     H_    0.822051 0.933532 0.182412 0.191919
H8    H     H_    0.171419 0.152005 0.773363 0.189099
H9    H     H_    0.168628 0.875149 0.211566 0.157449
H10   H     H_    0.844044 0.054262 0.826894 0.156575
H11   H     H_    0.060694 0.843169 0.315968 0.148386
H12   H     H_    0.871274 0.166940 0.719674 0.150142
H13   H     H_    0.719301 0.834839 0.352125 0.169375
H14   H     H_    0.213233 0.162849 0.612745 0.172401
H15   H     H_    0.167262 0.223476 0.111771 0.174393
H16   H     H_    0.828107 0.718781 0.856353 0.175002
H17   H     H_    0.162830 0.732472 0.140503 0.180025
H18   H     H_    0.848238 0.194577 0.900734 0.180402
H19   H     H_    0.825146 0.290507 0.142054 0.187970
H20   H     H_    0.173379 0.774344 0.892764 0.188999
H21   H     H_    0.203644 0.838932 0.389688 0.164326
H22   H     H_    0.728718 0.168618 0.646357 0.165049
H23   H     H_    0.788459 0.168727 0.398647 0.184257
H24   H     H_    0.278452 0.824090 0.636589 0.188398
H25   H     H_    0.162602 0.171357 0.273914 0.174482
H26   H     H_    0.910379 0.821310 0.689275 0.176992
O1    O     O_R   0.621380 0.090460 0.561410 -0.626382
O2    O     O_R   0.378620 0.909540 0.438590 -0.625491
O3    O     O_R   0.617150 0.909540 0.438590 -0.627626
O4    O     O_R   0.382850 0.090460 0.561410 -0.621400
O5    O     O_R   0.619720 0.093230 0.440890 -0.622095
O6    O     O_R   0.380280 0.906770 0.559110 -0.627121
O7    O     O_R   0.618800 0.906770 0.559110 -0.626276
O8    O     O_R   0.381200 0.093230 0.440890 -0.621277
O9    O     O_R   0.087590 0.627480 0.058790 -0.631730
O10   O     O_R   0.912410 0.372520 0.941210 -0.628345
O11   O     O_R   0.905660 0.383870 0.059980 -0.623362
O12   O     O_R   0.094340 0.616130 0.940020 -0.614512
O13   O     O_R   0.092570 0.390420 0.063230 -0.623539
O14   O     O_R   0.907430 0.609580 0.936770 -0.620799
O15   O     O_R   0.900680 0.620930 0.055550 -0.588079
O16   O     O_R   0.099320 0.379070 0.944450 -0.587249
Zn1   Zn    Zn3+2 0.501730 0.123520 0.501540 0.984683
Zn2   Zn    Zn3+2 0.498270 0.876480 0.498460 0.977109
Zn3   Zn    Zn3+2 0.125690 0.504390 0.002180 1.020976
Zn4   Zn    Zn3+2 0.874310 0.495610 0.997820 1.019832
I1    I     I_    0.724121 0.132489 0.215604 -0.377100
I2    I     I_    0.261457 0.950936 0.823539 -0.354775
I3    I     I_    0.962573 0.259393 0.327512 -0.400136
I4    I     I_    0.118036 0.723358 0.710127 -0.386125
I5    I     I_    0.740738 0.796725 0.083587 -0.308759
I6    I     I_    0.240015 0.351203 0.838153 -0.285974

loop_
_geom_bond_atom_site_label_1
_geom_bond_atom_site_label_2
_ccdc_geom_bond_type
C16   C28   A    
C20   H24   S    
C17   C29   A    
C5    H9    S    
C19   C31   A    
O9    Zn3   S    
O4    Zn1   S    
C39   C41   S    
C29   C49   A    
C13   H11   S    
C52   H14   S    
C5    C37   A    
C17   I3    S    
C21   C33   S    
C9    I1    S    
C22   C38   S    
C8    H18   S    
C45   C47   A    
C32   C52   A    
C21   C25   S    
C11   H19   S    
C38   C58   A    
C15   C27   A    
C58   H8    S    
O6    Zn2   S    
C4    C40   A    
C49   C51   A    
C12   H20   S    
C1    C28   S    
C50   C52   A    
C6    C38   A    
C2    C27   S    
C18   C30   A    
C12   C36   A    
C35   C43   S    
C6    H10   S    
O15   Zn4   S    
C30   C50   A    
O10   Zn4   S    
C1    O7    A    
C23   O3    A    
C9    C33   A    
C14   H12   S    
C13   C25   A    
C45   H25   S    
C51   H13   S    
C48   H2    S    
C46   C48   A    
C53   C55   A    
C33   C53   A    
C22   C34   S    
C54   C56   A    
C47   H1    S    
C56   H16   S    
C35   C55   A    
C49   H3    S    
C31   C51   A    
C5    C7    A    
C7    H17   S    
C21   C29   S    
O16   Zn3   S    
C16   H22   S    
C23   C31   S    
C24   C32   S    
C44   O12   A    
C42   O16   A    
O3    Zn2   S    
C9    C11   A    
C43   O11   A    
C23   O5    A    
C10   C34   A    
C14   C26   A    
C2    O8    A    
C24   O4    A    
O13   Zn3   S    
C10   C12   A    
O8    Zn1   S    
C46   H26   S    
C3    C57   A    
C34   C54   A    
C13   C15   A    
C50   H4    S    
C14   C16   A    
C36   C44   S    
C1    O1    A    
O7    Zn2   S    
O2    Zn2   S    
C25   C45   A    
O1    Zn1   S    
O11   Zn4   S    
C20   C32   A    
C27   C47   A    
C4    I6    S    
C28   C48   A    
C22   C30   S    
O5    Zn1   S    
C42   O10   A    
C43   O13   A    
C57   H7    S    
C24   O6    A    
C41   O15   A    
C6    C8    A    
C15   H21   S    
C41   O9    A    
C11   C35   A    
C53   H5    S    
C54   H6    S    
C3    I5    S    
O14   Zn4   S    
C40   C42   S    
C36   C56   A    
C17   C19   A    
C2    O2    A    
C18   C20   A    
C18   I4    S    
C10   I2    S    
C26   C46   A    
C44   O14   A    
C55   H15   S    
C21   C37   S    
C22   C26   S    
O12   Zn3   S    
C4    C58   A    
C7    C39   A    
C8    C40   A    
C19   H23   S    
C37   C57   A    
C3    C39   A    
