data_mof_unit_47262.cif
_audit_creation_date              2012-12-11T14:58:31-0500
_audit_creation_method            fapswitch 2.2
_symmetry_space_group_name_H-M    P1
_symmetry_Int_Tables_number       1
_space_group_crystal_system       triclinic
_cell_length_a                    11.032927
_cell_length_b                    11.087319
_cell_length_c                    18.790022
_cell_angle_alpha                 90.067646
_cell_angle_beta                  90.203966
_cell_angle_gamma                 59.283041
_cell_volume                      1976.01026594

loop_
_atom_site_label
_atom_site_type_symbol
_atom_type_description
_atom_site_fract_x
_atom_site_fract_y
_atom_site_fract_z
_atom_type_partial_charge
C1    C     C_R   0.360456 0.771844 0.397518 0.648495
C2    C     C_R   0.570730 0.082441 0.203000 0.037780
C3    C     C_R   0.319229 0.285217 0.178912 -0.001038
C4    C     C_R   0.394360 0.187556 0.297586 0.250082
C5    C     C_R   0.419030 0.175363 0.223645 -0.093985
C6    C     C_R   0.110609 0.678576 0.326472 0.441354
C7    C     C_R   0.014886 0.791844 0.369368 -0.035692
C8    C     C_R   0.618034 0.968647 0.156583 -0.139898
C9    C     C_R   0.761404 0.876834 0.144222 -0.160456
C10   C     C_R   0.213600 0.411888 0.210414 0.341222
C11   C     C_R   0.206730 0.431391 0.284152 -0.003975
C12   C     C_R   0.376038 0.350401 0.391875 0.617190
C13   C     C_R   0.896034 0.796772 0.396725 -0.239380
C14   C     C_R   0.860974 0.700738 0.372610 -0.042480
C15   C     C_R   0.948844 0.597380 0.323969 0.255536
C16   C     C_R   0.089129 0.567576 0.313994 0.060475
C17   C     C_R   0.315663 0.322243 0.326775 0.056880
C18   C     C_R   0.917007 0.313223 0.308580 0.318816
C19   C     C_R   0.957864 0.298093 0.237903 -0.002125
C20   C     C_R   0.858973 0.336168 0.183003 0.027666
C21   C     C_R   0.717016 0.389659 0.197855 0.382034
C22   C     C_R   0.673126 0.413220 0.268212 -0.001190
C23   C     C_R   0.718727 0.412327 0.394929 0.576271
C24   C     C_R   0.771764 0.376982 0.323413 0.048168
C25   C     C_R   0.478247 0.764227 0.283570 0.256906
C26   C     C_R   0.465979 0.785155 0.209618 0.184709
C27   C     C_R   0.332734 0.875203 0.181709 -0.020943
C28   C     C_R   0.217441 0.950660 0.227203 0.353803
C29   C     C_R   0.231191 0.932175 0.299795 0.406069
C30   C     C_R   0.357344 0.829042 0.327423 0.026115
C31   C     C_R   0.377916 0.195178 0.690123 0.237314
C32   C     C_R   0.371032 0.181524 0.763342 0.299029
C33   C     C_R   0.294693 0.301405 0.806635 -0.040650
C34   C     C_R   0.344998 0.767261 0.604973 0.589514
C35   C     C_R   0.213167 0.433293 0.775783 0.347350
C36   C     C_R   0.216516 0.448178 0.702727 0.180970
C37   C     C_R   0.310862 0.329982 0.660780 -0.048221
C38   C     C_R   0.834713 0.437381 0.721862 0.155164
C39   C     C_R   0.811304 0.450586 0.794971 0.216632
C40   C     C_R   0.821890 0.335431 0.833059 -0.026498
C41   C     C_R   0.814908 0.229487 0.796013 -0.168456
C42   C     C_R   0.799614 0.237868 0.722113 0.315797
C43   C     C_R   0.811567 0.341312 0.684327 0.041463
C44   C     C_R   0.189674 0.863568 0.710369 0.263707
C45   C     C_R   0.366695 0.350331 0.594556 0.592461
C46   C     C_R   0.179209 0.876559 0.784025 -0.085557
C47   C     C_R   0.297510 0.845411 0.825488 0.017718
C48   C     C_R   0.428021 0.797028 0.793739 -0.082266
C49   C     C_R   0.440607 0.781860 0.720669 -0.166222
C50   C     C_R   0.322114 0.814810 0.678447 0.067561
C51   C     C_R   0.909556 0.316351 0.111060 0.599548
C52   C     C_R   0.305001 0.260980 0.102488 0.564450
C53   C     C_R   0.305834 0.902402 0.106173 0.633555
C54   C     C_R   0.880008 0.311816 0.905373 0.576488
C55   C     C_R   0.290618 0.281682 0.882706 0.618139
C56   C     C_R   0.763933 0.375975 0.610414 0.596151
C57   C     C_R   0.275267 0.894323 0.898188 0.567546
C58   C     C_R   0.861074 0.894360 0.180823 -0.049729
C59   C     C_R   0.817065 0.003156 0.229872 0.293793
C60   C     C_R   0.672975 0.097713 0.239807 0.406965
Cr1   Cr    Cr6+3 0.601770 0.606860 0.505860 1.078012
Cr2   Cr    Cr6+3 0.291380 0.601660 0.495070 1.064924
Cr3   Cr    Cr6+3 0.606880 0.291510 0.499120 1.141878
Cr4   Cr    Cr6+3 0.062440 0.063090 0.008210 1.097645
Cr5   Cr    Cr6+3 0.062880 0.375170 0.998920 1.152539
Cr6   Cr    Cr6+3 0.374700 0.061720 0.992470 1.083292
H1    H     H_    0.824166 0.882991 0.430474 0.164161
H2    H     H_    0.757455 0.719079 0.384714 0.238406
H3    H     H_    0.067483 0.260254 0.225703 0.133286
H4    H     H_    0.561716 0.460824 0.279898 0.193644
H5    H     H_    0.795057 0.789794 0.107794 0.180438
H6    H     H_    0.820290 0.141620 0.824097 0.172299
H7    H     H_    0.029490 0.877741 0.382128 0.240011
H8    H     H_    0.076570 0.918214 0.808366 0.145356
H9    H     H_    0.518464 0.776208 0.825538 0.195785
H10   H     H_    0.544199 0.740786 0.697578 0.166501
H11   H     H_    0.972363 0.821039 0.172808 0.227059
H12   H     H_    0.545384 0.948133 0.131329 0.208604
O1    O     O_R   0.748800 0.497470 0.428000 -0.481991
O2    O     O_R   0.300070 0.471040 0.567100 -0.517328
O3    O     O_R   0.491670 0.258900 0.574910 -0.416789
O4    O     O_R   0.718780 0.304180 0.577850 -0.442509
O5    O     O_3   0.500010 0.500010 0.500020 -0.328838
O6    O     O_R   0.186690 0.923650 0.086970 -0.431930
O7    O     O_R   0.957250 0.194250 0.084630 -0.443867
O8    O     O_R   0.934970 0.407490 0.085330 -0.510063
O9    O     O_R   0.203780 0.365190 0.067090 -0.407753
O10   O     O_R   0.417600 0.174890 0.067840 -0.515297
O11   O     O_R   0.375320 0.946260 0.070860 -0.541209
O12   O     O_R   0.476420 0.724060 0.429470 -0.474874
O13   O     O_R   0.160600 0.919630 0.926660 -0.511505
O14   O     O_R   0.933060 0.190520 0.936020 -0.523221
O15   O     O_R   0.908880 0.403460 0.925020 -0.422181
O16   O     O_R   0.179600 0.361450 0.918490 -0.444384
O17   O     O_R   0.391510 0.170860 0.907530 -0.441216
O18   O     O_R   0.351130 0.942530 0.922260 -0.466128
O19   O     O_3   0.166667 0.166667 0.999870 -0.344487
O20   O     O_R   0.264580 0.744340 0.416750 -0.486592
O21   O     O_R   0.309380 0.472470 0.418200 -0.536744
O22   O     O_R   0.501710 0.260430 0.414300 -0.403423
O23   O     O_R   0.728090 0.305600 0.428960 -0.504899
O24   O     O_R   0.738760 0.495930 0.588610 -0.465282
O25   O     O_R   0.467110 0.722640 0.578360 -0.523212
O26   O     O_R   0.254530 0.742800 0.577360 -0.429552
O27   O     O_3   0.471619 0.075200 0.342916 -0.647709
H13   H     H_    0.515444 0.987275 0.314878 0.322009
O28   O     O_3   0.880881 0.563357 0.274276 -0.687232
H14   H     H_    0.930710 0.545795 0.228537 0.353107
O29   O     O_3   0.019263 0.279773 0.360016 -0.639841
H15   H     H_    0.982070 0.276459 0.407291 0.361700
F1    F     F_    0.621318 0.423532 0.144678 -0.577650
F2    F     F_    0.606059 0.678198 0.312237 -0.656399
O30   O     O_3   0.578369 0.714220 0.163859 -0.655227
H16   H     H_    0.666391 0.663558 0.191895 0.391604
F3    F     F_    0.088915 0.036713 0.199834 -0.598526
F4    F     F_    0.121506 0.010634 0.343343 -0.610007
O31   O     O_3   0.453883 0.079993 0.646386 -0.635667
H17   H     H_    0.500402 0.992983 0.675106 0.379053
F5    F     F_    0.440975 0.051004 0.792234 -0.632591
F6    F     F_    0.131514 0.548228 0.816380 -0.570543
O32   O     O_3   0.132429 0.580665 0.674949 -0.600662
H18   H     H_    0.089713 0.570363 0.630570 0.352814
O33   O     O_3   0.874160 0.520831 0.685992 -0.685130
H19   H     H_    0.920192 0.553498 0.719863 0.374084
O34   O     O_3   0.785775 0.570973 0.830442 -0.642782
H20   H     H_    0.753576 0.649353 0.796164 0.340152
F7    F     F_    0.772916 0.145815 0.688120 -0.592761
O35   O     O_3   0.072620 0.897135 0.669089 -0.608935
H21   H     H_    0.993926 0.912683 0.700488 0.381795
O36   O     O_3   0.916773 0.011195 0.269631 -0.601017
H22   H     H_    0.870491 0.085652 0.305944 0.380954
F8    F     F_    0.632208 0.199101 0.289448 -0.670014
F9    F     F_    0.222033 0.676194 0.295133 -0.628142
F10   F     F_    0.124715 0.523270 0.169103 -0.627130

loop_
_geom_bond_atom_site_label_1
_geom_bond_atom_site_label_2
_ccdc_geom_bond_type
C33   C55   S    
Cr2   O5    S    
C59   O36   S    
C1    O12   A    
C39   O34   S    
C41   C42   A    
O27   H13   S    
C35   C36   A    
C18   O29   S    
Cr3   O23   S    
O35   H21   S    
C60   F8    S    
O33   H19   S    
C7    H7    S    
C26   C27   A    
Cr3   O22   S    
Cr3   O3    S    
C53   O6    A    
C18   C24   A    
Cr6   O19   S    
Cr2   O2    S    
C28   C29   A    
Cr1   O25   S    
C18   C19   A    
C20   C51   S    
Cr6   O10   S    
C38   C39   A    
C2    C60   A    
C15   C16   A    
C9    C58   A    
C15   O28   S    
C31   O31   S    
C54   O15   A    
C58   H11   S    
C33   C35   A    
Cr2   O20   S    
C44   O35   S    
C47   C48   A    
C8    C9    A    
C12   O21   A    
C57   O18   A    
Cr5   O8    S    
C12   C17   S    
C23   C24   S    
C38   O33   S    
C25   F2    S    
Cr5   O15   S    
C36   O32   S    
C59   C60   A    
C13   C14   A    
C8    H12   S    
C48   H9    S    
C51   O7    A    
C35   F6    S    
C55   O16   A    
C51   O8    A    
C21   F1    S    
C44   C46   A    
Cr5   O9    S    
Cr6   O11   S    
Cr2   O26   S    
C2    C8    A    
C34   C50   S    
Cr3   O4    S    
C10   F10   S    
C52   O10   A    
C55   O17   A    
Cr1   O5    S    
C39   C40   A    
C58   C59   A    
C34   O26   A    
C31   C37   A    
Cr3   O5    S    
C56   O24   A    
C54   O14   A    
C29   C30   A    
C28   F3    S    
C47   C57   S    
C11   C16   S    
C31   C32   A    
Cr4   O19   S    
O28   H14   S    
C49   H10   S    
O32   H18   S    
C42   F7    S    
C41   H6    S    
C4    C17   A    
C40   C41   A    
C29   F4    S    
C40   C54   S    
C53   O11   A    
O34   H20   S    
C22   C24   A    
C19   H3    S    
C2    C5    S    
C42   C43   A    
Cr4   O14   S    
C32   F5    S    
C37   C45   S    
Cr4   O7    S    
C46   H8    S    
Cr1   O12   S    
Cr6   O18   S    
O30   H16   S    
C13   H1    S    
C44   C50   A    
C25   C30   A    
C46   C47   A    
C36   C37   A    
C57   O13   A    
C52   O9    A    
C45   O3    A    
C9    H5    S    
C4    C5    A    
C3    C5    A    
C11   C17   A    
C1    O20   A    
C3    C52   S    
C27   C53   S    
C56   O4    A    
C6    C7    A    
C6    F9    S    
C4    O27   S    
C34   O25   A    
Cr4   O6    S    
C32   C33   A    
C19   C20   A    
O36   H22   S    
C25   C26   A    
C26   O30   S    
Cr5   O19   S    
C38   C43   A    
C3    C10   A    
O31   H17   S    
C23   O23   A    
Cr1   O1    S    
C48   C49   A    
C1    C30   S    
Cr5   O16   S    
Cr1   O24   S    
C45   O2    A    
C12   O22   A    
C10   C11   A    
C6    C16   A    
Cr2   O21   S    
C43   C56   S    
C7    C13   A    
C20   C21   A    
C49   C50   A    
O29   H15   S    
C27   C28   A    
C14   H2    S    
C14   C15   A    
Cr4   O13   S    
C23   O1    A    
C21   C22   A    
C22   H4    S    
Cr6   O17   S    
