data_mof_unit_36133.cif
_audit_creation_date              2012-12-10T21:11:38-0500
_audit_creation_method            fapswitch 2.2
_symmetry_space_group_name_H-M    P1
_symmetry_Int_Tables_number       1
_space_group_crystal_system       triclinic
_cell_length_a                    17.413634
_cell_length_b                    16.70434
_cell_length_c                    10.665075
_cell_angle_alpha                 89.79923
_cell_angle_beta                  91.785962
_cell_angle_gamma                 92.10874
_cell_volume                      3098.67629958

loop_
_atom_site_label
_atom_site_type_symbol
_atom_type_description
_atom_site_fract_x
_atom_site_fract_y
_atom_site_fract_z
_atom_type_partial_charge
C1    C     C_R   0.351910 0.498829 0.505427 0.849083
C2    C     C_R   0.438487 0.165402 0.444000 -0.110456
C3    C     C_R   0.468865 0.746117 0.596751 0.018082
C4    C     C_R   0.559928 0.254894 0.555697 -0.040075
C5    C     C_R   0.530932 0.748823 0.402969 -0.014645
C6    C     C_R   0.440297 0.249724 0.446224 0.036867
C7    C     C_R   0.500202 0.875515 0.499988 0.084572
C8    C     C_R   0.500723 0.124249 0.500611 0.078492
C9    C     C_1   0.500661 0.963388 0.500320 0.235099
C10   C     C_1   0.500887 0.036394 0.500567 0.231147
C11   C     C_R   0.480146 0.499686 0.264456 0.957976
C12   C     C_R   0.647403 0.501521 0.494289 0.894691
C13   C     C_R   0.498158 0.499343 0.743426 0.804711
C14   C     C_R   0.428114 0.645424 0.114530 0.004978
C15   C     C_R   0.442788 0.347658 0.881831 -0.049793
C16   C     C_R   0.526111 0.643850 0.911412 0.021839
C17   C     C_R   0.409318 0.358820 0.128670 0.037865
C18   C     C_R   0.452659 0.717502 0.058747 -0.182289
C19   C     C_R   0.443993 0.278282 0.956679 -0.096005
C20   C     C_R   0.504617 0.716772 0.962620 -0.216593
C21   C     C_R   0.423211 0.283687 0.080409 -0.257671
C22   C     C_R   0.488182 0.571004 0.949139 0.000101
C23   C     C_R   0.884607 0.522383 0.404072 0.108263
C24   C     C_R   0.440813 0.427713 0.068838 0.124638
C25   C     C_R   0.453318 0.572098 0.065585 -0.015885
C26   C     C_R   0.456190 0.424499 0.940049 -0.035740
C27   C     C_R   0.484261 0.497255 0.879521 -0.215938
C28   C     C_R   0.451740 0.500214 0.133117 -0.192366
C29   C     C_R   0.854775 0.576337 0.486388 -0.107655
C30   C     C_R   0.145835 0.443486 0.411530 -0.220255
C31   C     C_R   0.154315 0.581825 0.475816 -0.113851
C32   C     C_R   0.838810 0.460627 0.351700 -0.236616
C33   C     C_R   0.778252 0.568587 0.520536 -0.092993
C34   C     C_R   0.113872 0.518006 0.418470 0.095505
C35   C     C_R   0.220286 0.432000 0.457667 0.073852
C36   C     C_R   0.229800 0.572984 0.520799 -0.052546
C37   C     C_R   0.760942 0.453214 0.378660 -0.002736
C38   C     C_R   0.729954 0.506396 0.466766 -0.169506
C39   C     C_R   0.266341 0.499132 0.501552 -0.159405
C40   C     C_2   0.371734 0.646738 0.216242 0.457517
C41   C     C_2   0.395141 0.338272 0.765838 0.548853
C42   C     C_2   0.598456 0.643488 0.842915 0.468900
C43   C     C_2   0.344392 0.364521 0.213244 0.361124
C44   C     C_2   0.751789 0.623257 0.617883 0.471019
C45   C     C_1   0.965285 0.523696 0.390964 -0.028203
C46   C     C_2   0.243009 0.347915 0.464534 0.422560
C47   C     C_2   0.267013 0.639467 0.595756 0.474431
C48   C     C_2   0.715061 0.391074 0.307796 0.409712
C49   C     C_2   0.433339 0.866946 0.711327 0.456202
C50   C     C_2   0.630563 0.135207 0.621430 0.426757
C51   C     C_2   0.565460 0.872756 0.287271 0.429714
C52   C     C_2   0.370001 0.124672 0.382069 0.444699
C53   C     C_1   0.033669 0.522955 0.395526 -0.020913
C54   C     C_R   0.468227 0.830403 0.600509 -0.098884
C55   C     C_R   0.562411 0.170562 0.557916 -0.118640
C56   C     C_R   0.531598 0.833185 0.399054 -0.102341
H1    H     H_    0.444346 0.711025 0.672061 0.113879
H2    H     H_    0.363957 0.388758 0.729459 0.081312
H3    H     H_    0.627404 0.587629 0.832817 0.015265
H4    H     H_    0.316156 0.310195 0.246996 0.024085
H5    H     H_    0.892766 0.622118 0.529261 0.182038
H6    H     H_    0.110561 0.392770 0.377091 0.133245
H7    H     H_    0.125467 0.637299 0.490788 0.186783
H8    H     H_    0.863780 0.418700 0.288505 0.137842
H9    H     H_    0.700677 0.607906 0.667644 0.079998
H10   H     H_    0.220280 0.305091 0.395316 0.046418
H11   H     H_    0.314181 0.627878 0.661406 0.046607
H12   H     H_    0.606228 0.290778 0.599556 0.118060
H13   H     H_    0.740513 0.334531 0.286542 0.058153
H14   H     H_    0.408787 0.828409 0.783067 0.066773
H15   H     H_    0.675496 0.174487 0.662668 0.060888
H16   H     H_    0.588092 0.836252 0.213912 0.070137
H17   H     H_    0.324491 0.160417 0.341984 0.045980
H18   H     H_    0.555144 0.715820 0.327460 0.129819
H19   H     H_    0.392855 0.281554 0.407469 0.113424
H20   H     H_    0.405525 0.229586 0.129738 0.142254
H21   H     H_    0.530185 0.773236 0.931591 0.195242
H22   H     H_    0.441678 0.219275 0.914477 0.198734
H23   H     H_    0.435264 0.774545 0.094153 0.197615
H24   H     H_    0.344325 0.591406 0.248397 0.100548
N1    N     N_R   0.500000 0.707230 0.500000 -0.079691
N2    N     N_R   0.500000 0.292770 0.500000 -0.073531
O1    O     O_R   0.389110 0.566570 0.499990 -0.640194
O2    O     O_2   0.388830 0.273775 0.712222 -0.535138
O3    O     O_2   0.627041 0.705201 0.800052 -0.553304
O4    O     O_2   0.316893 0.428835 0.235654 -0.635506
O5    O     O_2   0.787546 0.685460 0.644666 -0.514551
O6    O     O_2   0.280603 0.323521 0.553543 -0.553963
O7    O     O_2   0.244561 0.707722 0.586724 -0.538467
O8    O     O_2   0.651105 0.404220 0.264561 -0.537242
O9    O     O_2   0.431361 0.939315 0.725108 -0.539463
O10   O     O_2   0.638017 0.062993 0.629201 -0.535944
O11   O     O_2   0.568616 0.945402 0.274407 -0.546561
O12   O     O_R   0.610890 0.433430 0.500010 -0.590546
O13   O     O_2   0.362915 0.051903 0.374256 -0.533114
O14   O     O_R   0.610890 0.566570 0.500010 -0.616323
O15   O     O_R   0.389110 0.433430 0.499990 -0.584635
O16   O     O_R   0.499990 0.566540 0.316770 -0.638075
O17   O     O_R   0.500010 0.433460 0.683230 -0.628357
O18   O     O_R   0.500010 0.566540 0.683230 -0.630958
O19   O     O_R   0.499990 0.433460 0.316770 -0.560471
O20   O     O_2   0.354834 0.709586 0.264682 -0.545442
Zn1   Zn    Zn3+2 0.500000 0.588860 0.500000 0.979702
Zn2   Zn    Zn3+2 0.500000 0.411140 0.500000 1.009428

loop_
_geom_bond_atom_site_label_1
_geom_bond_atom_site_label_2
_ccdc_geom_bond_type
C23   C45   S    
C14   C18   A    
C5    C56   A    
C48   H13   S    
C6    H19   S    
C25   C28   A    
C15   C19   A    
C21   H20   S    
C26   C27   A    
O1    Zn1   S    
C20   H21   S    
C36   C47   S    
C11   O16   A    
C6    N2    A    
C23   C29   A    
C19   C21   A    
C24   C26   A    
C41   H2    S    
C46   H10   S    
C3    C54   A    
C49   C54   S    
C29   C33   A    
C52   O13   D    
C51   C56   S    
C5    H18   S    
C18   H23   S    
C3    H1    S    
C22   C25   A    
C3    N1    A    
C40   H24   S    
C44   O5    D    
C9    C10   T    
C13   C27   S    
O17   Zn2   S    
O12   Zn2   S    
C48   O8    D    
C47   O7    D    
C12   O12   A    
C44   H9    S    
C2    C6    A    
C7    C56   A    
C49   O9    D    
C8    C55   A    
C47   H11   S    
C46   O6    D    
C29   H5    S    
C17   C24   A    
C30   C34   A    
C31   H7    S    
C15   C41   S    
C52   H17   S    
C1    O15   A    
C4    H12   S    
C15   C26   A    
C41   O2    D    
C40   O20   D    
C45   C53   T    
O18   Zn1   S    
C17   C21   A    
C13   O17   A    
C19   H22   S    
C35   C39   A    
C50   H15   S    
C17   C43   S    
C37   C38   A    
C5    N1    A    
C16   C20   A    
C31   C34   A    
C11   O19   A    
C42   O3    D    
C32   C37   A    
C37   C48   S    
C32   H8    S    
C2    C52   S    
C43   H4    S    
C51   O11   D    
C30   C35   A    
C50   O10   D    
O19   Zn2   S    
C22   C27   A    
C30   H6    S    
C4    C55   A    
C51   H16   S    
C16   C42   S    
N1    Zn1   S    
C7    C9    S    
C16   C22   A    
C43   O4    D    
C36   C39   A    
C2    C8    A    
C24   C28   A    
C42   H3    S    
C1    O1    A    
C50   C55   S    
C49   H14   S    
C23   C32   A    
C13   O18   A    
C11   C28   S    
C18   C20   A    
C14   C25   A    
C12   C38   S    
C33   C44   S    
O15   Zn2   S    
C1    C39   S    
C14   C40   S    
C4    N2    A    
C34   C53   S    
C8    C10   S    
O14   Zn1   S    
N2    Zn2   S    
C31   C36   A    
C12   O14   A    
C33   C38   A    
C7    C54   A    
C35   C46   S    
O16   Zn1   S    
