data_mof_unit_32795.cif
_audit_creation_date              2012-12-10T19:11:30-0500
_audit_creation_method            fapswitch 2.2
_symmetry_space_group_name_H-M    P1
_symmetry_Int_Tables_number       1
_space_group_crystal_system       triclinic
_cell_length_a                    10.679773
_cell_length_b                    9.732201
_cell_length_c                    10.530438
_cell_angle_alpha                 89.56168
_cell_angle_beta                  90.131271
_cell_angle_gamma                 90.434538
_cell_volume                      1094.4432459

loop_
_atom_site_label
_atom_site_type_symbol
_atom_type_description
_atom_site_fract_x
_atom_site_fract_y
_atom_site_fract_z
_atom_type_partial_charge
C1    C     C_R   0.257719 0.499729 0.500476 0.851263
C2    C     C_3   0.925022 0.459703 0.374489 -0.508810
C3    C     C_3   0.426777 0.081382 0.388784 -0.261628
C4    C     C_3   0.423876 0.919405 0.390884 -0.271164
C5    C     C_3   0.628432 0.082144 0.484930 -0.328542
C6    C     C_3   0.627757 0.919950 0.481276 -0.326603
C7    C     C_3   0.446487 0.080674 0.617601 0.139136
C8    C     C_3   0.450803 0.916871 0.619541 0.140304
C9    C     C_R   0.497029 0.500577 0.257614 0.906491
C10   C     C_R   0.742337 0.500785 0.505661 0.890977
C11   C     C_R   0.501849 0.499198 0.742883 0.942932
C12   C     C_3   0.496296 0.501741 0.123461 -0.084761
C13   C     C_3   0.458649 0.623657 0.039504 -0.160430
C14   C     C_3   0.419543 0.400981 0.043955 -0.188913
C15   C     C_3   0.382564 0.522361 0.956370 -0.326561
C16   C     C_3   0.501084 0.496937 0.878200 -0.131126
C17   C     C_3   0.576448 0.596671 0.960107 0.406833
C18   C     C_3   0.537656 0.376640 0.964607 0.422135
C19   C     C_3   0.614946 0.476083 0.046890 -0.266296
C20   C     C_3   0.286636 0.171767 0.768054 -0.747882
C21   C     C_3   0.299619 0.828333 0.783188 -0.767019
C22   C     C_3   0.916842 0.867001 0.654490 -0.824830
C23   C     C_3   0.074556 0.643402 0.544141 -0.426434
C24   C     C_3   0.873164 0.283276 0.807156 -0.719037
C25   C     C_3   0.074229 0.392138 0.601050 -0.449325
C26   C     C_3   0.932675 0.651787 0.531774 0.054335
C27   C     C_3   0.930112 0.392374 0.604970 0.037521
C28   C     C_3   0.069177 0.464371 0.370159 -0.425500
C29   C     C_3   0.121455 0.499788 0.503291 0.117219
C30   C     C_3   0.878782 0.502816 0.508645 0.052895
Cl1   Cl    Cl    0.679550 0.728818 0.905533 -0.675717
Cl2   Cl    Cl    0.587599 0.208448 0.925669 -0.708820
H1    H     H_    0.286797 0.536554 0.917904 0.150755
H2    H     H_    0.508098 0.116377 0.695839 0.187570
H3    H     H_    0.519006 0.887330 0.695086 0.167063
H4    H     H_    0.687758 0.117484 0.565448 0.159523
H5    H     H_    0.688459 0.880011 0.557847 0.209806
H6    H     H_    0.426767 0.724952 0.074257 0.157280
H7    H     H_    0.355374 0.320607 0.082364 0.153323
H8    H     H_    0.709523 0.457650 0.087346 0.154259
H9    H     H_    0.115475 0.726239 0.483305 0.164977
H10   H     H_    0.105349 0.287798 0.573655 0.181841
H11   H     H_    0.104104 0.661733 0.643823 0.182953
H12   H     H_    0.886530 0.529270 0.299776 0.177438
H13   H     H_    0.115700 0.413857 0.695958 0.159011
H14   H     H_    0.911741 0.713507 0.444571 0.154294
H15   H     H_    0.897705 0.290050 0.569817 0.155060
H16   H     H_    0.100536 0.543199 0.299714 0.171981
H17   H     H_    0.105109 0.363164 0.338529 0.175136
H18   H     H_    0.249316 0.101372 0.582362 0.197936
H19   H     H_    0.185445 0.150774 0.783269 0.200447
H20   H     H_    0.303077 0.282961 0.782422 0.257639
H21   H     H_    0.340748 0.112924 0.839935 0.268143
H22   H     H_    0.255595 0.872294 0.592991 0.206922
H23   H     H_    0.891850 0.354021 0.351333 0.187019
H24   H     H_    0.229210 0.903401 0.815137 0.225176
H25   H     H_    0.383034 0.833360 0.846085 0.264485
H26   H     H_    0.256857 0.725036 0.792507 0.224154
H27   H     H_    0.870029 0.673070 0.722720 0.279099
H28   H     H_    0.851727 0.918920 0.720361 0.279198
H29   H     H_    0.915776 0.923206 0.562253 0.221712
H30   H     H_    0.012374 0.872325 0.695930 0.239189
H31   H     H_    0.933190 0.482246 0.785787 0.230683
H32   H     H_    0.839874 0.306880 0.904283 0.272116
H33   H     H_    0.965303 0.231721 0.815139 0.214799
H34   H     H_    0.468919 0.117086 0.297686 0.185977
H35   H     H_    0.804889 0.212842 0.761088 0.271875
H36   H     H_    0.460341 0.881332 0.298880 0.176794
H37   H     H_    0.330140 0.122434 0.387773 0.139516
H38   H     H_    0.325803 0.881506 0.395623 0.134560
H39   H     H_    0.673287 0.123555 0.397244 0.184701
H40   H     H_    0.668999 0.884263 0.390467 0.183403
N1    N     N_3   0.499750 0.138610 0.497240 -0.065578
N2    N     N_3   0.499750 0.861390 0.497240 -0.067612
N3    N     N_2   0.321328 0.134684 0.639825 -0.260918
N4    N     N_2   0.330920 0.852483 0.651077 -0.252856
N5    N     N_2   0.877561 0.725025 0.638308 -0.270523
N6    N     N_2   0.884928 0.409423 0.734436 -0.308845
O1    O     O_R   0.314910 0.616040 0.499970 -0.625244
O2    O     O_R   0.314910 0.383960 0.499970 -0.617246
O3    O     O_R   0.500080 0.616020 0.313900 -0.632710
O4    O     O_R   0.500080 0.383980 0.313900 -0.626757
O5    O     O_R   0.685320 0.616040 0.499930 -0.614943
O6    O     O_R   0.685320 0.383960 0.499930 -0.637353
O7    O     O_R   0.500150 0.616060 0.686000 -0.578320
O8    O     O_R   0.500150 0.383940 0.686000 -0.595834
Zn1   Zn    Zn3+2 0.500150 0.654960 0.499940 0.946544
Zn2   Zn    Zn3+2 0.500150 0.345040 0.499940 0.937736

loop_
_geom_bond_atom_site_label_1
_geom_bond_atom_site_label_2
_ccdc_geom_bond_type
O5    Zn1   S    
C14   C18   S    
C27   N6    S    
H27   N5    S    
C4    H38   S    
C7    C8    S    
C7    N1    S    
C6    H40   S    
C21   N4    S    
C23   C29   S    
C28   C29   S    
C3    H37   S    
C20   H19   S    
C2    H23   S    
C22   H28   S    
C5    C6    S    
O8    Zn2   S    
C11   O8    A    
C15   C16   S    
C5    H4    S    
C10   O5    A    
C8    N4    S    
C23   H11   S    
C18   C19   S    
C28   H17   S    
C23   C26   S    
C24   H35   S    
C14   H7    S    
C2    H12   S    
C16   C17   S    
N2    Zn1   S    
C4    N2    S    
C9    O4    A    
C24   H32   S    
O2    Zn2   S    
C27   C30   S    
O1    Zn1   S    
C17   Cl1   S    
C6    N2    S    
O7    Zn1   S    
C25   C29   S    
C26   N5    S    
C4    H36   S    
C7    N3    S    
C20   N3    S    
C8    H3    S    
N1    Zn2   S    
C21   H25   S    
C22   H30   S    
C11   C16   S    
C10   C30   S    
C8    N2    S    
C6    H5    S    
C16   C18   S    
C13   H6    S    
O3    Zn1   S    
C24   H33   S    
H22   N4    S    
C24   N6    S    
C12   C14   S    
C26   C30   S    
C13   C15   S    
C1    O1    A    
C7    H2    S    
C3    H34   S    
C18   Cl2   S    
C3    C4    S    
C25   H13   S    
C27   H15   S    
C28   H16   S    
O6    Zn2   S    
C22   N5    S    
C20   H21   S    
C25   H10   S    
C21   H24   S    
C25   C27   S    
C23   H9    S    
C13   C17   S    
C2    C30   S    
C21   H26   S    
C20   H20   S    
H18   N3    S    
C22   H29   S    
C1    C29   S    
C11   O7    A    
O4    Zn2   S    
C12   C19   S    
C10   O6    A    
C17   C19   S    
C5    N1    S    
C3    N1    S    
C9    C12   S    
C19   H8    S    
C26   H14   S    
C12   C13   S    
C5    H39   S    
C1    O2    A    
C14   C15   S    
C2    C28   S    
C15   H1    S    
C9    O3    A    
H31   N6    S    
