data_mof_unit_60683.cif
_audit_creation_date              2012-12-10T19:21:00-0500
_audit_creation_method            fapswitch 2.2
_symmetry_space_group_name_H-M    P1
_symmetry_Int_Tables_number       1
_space_group_crystal_system       triclinic
_cell_length_a                    25.876465
_cell_length_b                    34.533972
_cell_length_c                    21.590318
_cell_angle_alpha                 90.000372
_cell_angle_beta                  126.815874
_cell_angle_gamma                 89.999667
_cell_volume                      15445.6903133

loop_
_atom_site_label
_atom_site_type_symbol
_atom_type_description
_atom_site_fract_x
_atom_site_fract_y
_atom_site_fract_z
_atom_type_partial_charge
C1    C     C_R   0.000000 0.021418 0.999976 0.118421
C2    C     C_R   0.619399 0.372872 0.955844 -0.117558
C3    C     C_R   0.352989 0.218588 0.664214 -0.183867
C4    C     C_R   0.852494 0.249999 0.704983 0.000115
C5    C     C_R   0.148335 0.749426 0.294718 0.003820
C6    C     C_R   0.147507 0.249995 0.295019 0.000432
C7    C     C_R   0.851666 0.749426 0.705284 0.003889
C8    C     C_R   0.353670 0.749119 0.704823 -0.001903
C9    C     C_R   0.647493 0.250020 0.295021 0.000374
C10   C     C_R   0.646325 0.749116 0.295178 -0.001933
C11   C     C_R   0.352510 0.250015 0.704981 0.000001
C12   C     C_R   0.811276 0.218561 0.664218 -0.188599
C13   C     C_R   0.829549 0.727377 0.280529 -0.147324
C14   C     C_R   0.184480 0.782386 0.335749 -0.193800
C15   C     C_R   0.209838 0.234372 0.335774 -0.187234
C16   C     C_R   0.815578 0.782400 0.664253 -0.193853
C17   C     C_R   0.296220 0.727673 0.663706 -0.194525
C18   C     C_R   0.709815 0.265658 0.335782 -0.187126
C19   C     C_R   0.703729 0.727626 0.336294 -0.194521
C20   C     C_R   0.311282 0.281452 0.664226 -0.188635
C21   C     C_R   0.771354 0.218432 0.583698 -0.177717
C22   C     C_R   0.225083 0.782065 0.416248 -0.193958
C23   C     C_R   0.250289 0.234644 0.416292 -0.178389
C24   C     C_R   0.380678 0.372856 0.044262 -0.116846
C25   C     C_R   0.774973 0.782078 0.583754 -0.193956
C26   C     C_R   0.256231 0.727653 0.583213 -0.194586
C27   C     C_R   0.750255 0.265399 0.416300 -0.178345
C28   C     C_R   0.743717 0.727605 0.416788 -0.194578
C29   C     C_R   0.271372 0.281591 0.583706 -0.177378
C30   C     C_R   0.771323 0.250013 0.542669 0.111568
C31   C     C_R   0.231192 0.748476 0.456941 0.111086
C32   C     C_R   0.228684 0.250015 0.457333 0.112730
C33   C     C_R   0.768803 0.748474 0.543062 0.111104
C34   C     C_R   0.273885 0.748238 0.542374 0.120425
C35   C     C_R   0.858577 0.163327 0.048222 -0.130273
C36   C     C_R   0.728649 0.250023 0.457336 0.112784
C37   C     C_R   0.726106 0.748234 0.457628 0.120425
C38   C     C_R   0.271360 0.250022 0.542667 0.111829
C39   C     C_R   0.050994 0.041922 0.064191 -0.195112
C40   C     C_R   0.942266 0.958249 0.967788 -0.180080
C41   C     C_R   0.949007 0.041925 0.935766 -0.195013
C42   C     C_R   0.057731 0.958248 0.032169 -0.180087
C43   C     C_R   0.557730 0.541750 0.032165 -0.179311
C44   C     C_R   0.449014 0.458074 0.935761 -0.194786
C45   C     C_R   0.442267 0.541749 0.967796 -0.179305
C46   C     C_R   0.308590 0.781375 0.202181 -0.140247
C47   C     C_R   0.550985 0.458077 0.064201 -0.194889
C48   C     C_R   0.051158 0.082201 0.063993 -0.205856
C49   C     C_R   0.942203 0.917957 0.967326 -0.185883
C50   C     C_R   0.948842 0.082204 0.935975 -0.206852
C51   C     C_R   0.057796 0.917956 0.032648 -0.185830
C52   C     C_R   0.557794 0.582042 0.032641 -0.183960
C53   C     C_R   0.448851 0.417795 0.935968 -0.206741
C54   C     C_R   0.442204 0.582041 0.967335 -0.184001
C55   C     C_R   0.551149 0.417798 0.064004 -0.205749
C56   C     C_R   0.000000 0.102558 0.999988 0.002874
C57   C     C_R   0.141446 0.163325 0.951808 -0.129288
C58   C     C_R   1.000000 0.897555 0.999992 -0.001277
C59   C     C_R   0.500000 0.602444 0.999993 -0.001858
C60   C     C_R   0.500000 0.397442 0.999990 0.002768
C61   C     C_R   0.105144 0.249999 0.210292 0.780691
C62   C     C_R   0.894744 0.749902 0.789808 0.781691
C63   C     C_R   0.894856 0.250000 0.789708 0.780830
C64   C     C_R   0.105257 0.749902 0.210193 0.781747
C65   C     C_R   0.604966 0.749850 0.210356 0.785336
C66   C     C_R   0.394859 0.250003 0.789708 0.781418
C67   C     C_R   0.395033 0.749851 0.789644 0.785340
C68   C     C_R   0.691470 0.781533 0.797919 -0.140257
C69   C     C_R   0.605141 0.250004 0.210293 0.781318
C70   C     C_R   0.000000 0.144885 0.999997 0.778164
C71   C     C_R   1.000000 0.855153 0.999999 0.781567
C72   C     C_R   0.500000 0.644847 0.999999 0.783269
C73   C     C_R   0.500000 0.355115 0.999997 0.778307
C74   C     C_R   0.999997 0.355106 0.999997 0.840594
C75   C     C_R   0.999999 0.644900 0.999999 0.833364
C76   C     C_R   0.499999 0.855102 0.999999 0.835558
C77   C     C_R   0.499998 0.144896 0.999998 0.840453
C78   C     C_R   0.973128 0.457956 0.929870 0.448634
C79   C     C_R   0.186257 0.723925 0.793439 -0.138048
C80   C     C_R   0.958711 0.542068 0.011308 0.448407
C81   C     C_R   0.026829 0.457963 0.070081 0.448384
C82   C     C_R   0.041247 0.542065 0.988636 0.448451
C83   C     C_R   0.472678 0.957941 0.929777 0.448319
C84   C     C_R   0.459059 0.042052 0.011877 0.448744
C85   C     C_R   0.527298 0.957945 0.070199 0.448400
C86   C     C_R   0.540913 0.042050 0.988088 0.448857
C87   C     C_R   0.975140 0.417639 0.931422 -0.194117
C88   C     C_R   0.960674 0.582384 0.013196 -0.195616
C89   C     C_R   0.024827 0.417646 0.068544 -0.192942
C90   C     C_R   0.641493 0.336683 0.951833 -0.129650
C91   C     C_R   0.039301 0.582382 0.986772 -0.195637
C92   C     C_R   0.474688 0.917624 0.931310 -0.194700
C93   C     C_R   0.461015 0.082369 0.013737 -0.193062
C94   C     C_R   0.525296 0.917628 0.068675 -0.194692
C95   C     C_R   0.538964 0.082367 0.986236 -0.193911
C96   C     C_R   0.999987 0.397425 0.999988 -0.190173
C97   C     C_R   0.999993 0.602594 0.999991 -0.188413
C98   C     C_R   0.499994 0.897413 0.999995 -0.188361
C99   C     C_R   0.499993 0.102582 0.999991 -0.188643
C100  C     C_R   0.999977 0.478639 0.999972 -0.190756
C101  C     C_R   0.813681 0.723731 0.206456 -0.138024
C102  C     C_R   0.999976 0.521387 0.999967 -0.190471
C103  C     C_R   0.499987 0.978623 0.999986 -0.190516
C104  C     C_R   0.499985 0.021371 0.999982 -0.190676
C105  C     C_R   0.999999 0.978756 0.999975 0.113683
C106  C     C_R   0.358562 0.336669 0.048246 -0.130642
C107  C     C_R   0.795624 0.175617 0.988468 0.136712
C108  C     C_R   0.272725 0.751351 0.149096 0.134652
C109  C     C_R   0.204394 0.175620 0.011562 0.137121
C110  C     C_R   0.727264 0.751459 0.850900 0.134723
C111  C     C_R   0.226563 0.751317 0.851117 0.135980
C112  C     C_R   0.704416 0.324365 0.011619 0.137570
C113  C     C_R   0.773454 0.751189 0.148893 0.136048
C114  C     C_R   0.295626 0.324370 0.988459 0.137136
C115  C     C_R   0.754952 0.150816 0.925485 -0.136024
C116  C     C_R   0.499998 0.521243 0.999977 0.112998
C117  C     C_R   0.248965 0.721276 0.169624 -0.132718
C118  C     C_R   0.245070 0.150826 0.074554 -0.137968
C119  C     C_R   0.750942 0.721386 0.830262 -0.132716
C120  C     C_R   0.250745 0.782407 0.833333 -0.131486
C121  C     C_R   0.745067 0.349128 0.074680 -0.138828
C122  C     C_R   0.749378 0.782281 0.166814 -0.131450
C123  C     C_R   0.254985 0.349151 0.925427 -0.136883
C124  C     C_R   0.777238 0.114610 0.921847 -0.134771
C125  C     C_R   0.259877 0.721700 0.241377 -0.121896
C126  C     C_R   0.222793 0.114618 0.078198 -0.133904
C127  C     C_R   0.499999 0.478581 0.999979 0.118356
C128  C     C_R   0.740018 0.721858 0.758502 -0.121811
C129  C     C_R   0.234936 0.785915 0.759282 -0.126787
C130  C     C_R   0.722789 0.385329 0.078354 -0.137132
C131  C     C_R   0.765223 0.785731 0.240894 -0.126695
C132  C     C_R   0.277285 0.385350 0.921780 -0.137992
C133  C     C_R   0.840039 0.102795 0.981132 -0.096302
C134  C     C_R   0.295038 0.751872 0.293456 -0.096086
C135  C     C_R   0.159998 0.102796 0.018912 -0.095912
C136  C     C_R   0.704928 0.752079 0.706528 -0.096057
C137  C     C_R   0.194367 0.758741 0.702202 -0.120903
C138  C     C_R   0.880680 0.127134 0.044247 -0.116536
C139  C     C_R   0.660021 0.397176 0.019030 -0.096448
C140  C     C_R   0.805718 0.758493 0.297860 -0.120927
C141  C     C_R   0.340067 0.397177 0.981103 -0.096840
C142  C     C_R   0.187802 0.747030 0.931378 -0.243441
C143  C     C_R   0.783293 0.284210 0.010934 -0.246804
C144  C     C_R   0.812193 0.746971 0.068609 -0.243442
C145  C     C_R   0.216726 0.284216 0.989105 -0.246223
C146  C     C_R   0.716729 0.215775 0.989117 -0.246129
C147  C     C_R   0.312442 0.752901 0.069290 -0.245552
C148  C     C_R   0.283280 0.215778 0.010899 -0.246722
C149  C     C_R   0.319482 0.781632 0.273946 -0.142272
C150  C     C_R   0.687561 0.752955 0.930719 -0.245565
C151  C     C_R   0.197298 0.748772 0.002252 -0.043243
C152  C     C_R   0.804941 0.248913 0.002310 -0.046471
C153  C     C_R   0.802697 0.748770 0.997738 -0.043298
C154  C     C_R   0.195069 0.248918 0.997710 -0.046447
C155  C     C_R   0.695075 0.251074 0.997726 -0.046019
C156  C     C_R   0.302912 0.751099 0.998287 -0.043135
C157  C     C_R   0.304934 0.251077 0.002292 -0.046007
C158  C     C_R   0.697091 0.751099 0.001719 -0.043180
C159  C     C_R   0.260157 0.751473 0.072315 0.000657
C160  C     C_R   0.119351 0.127130 0.955790 -0.117277
C161  C     C_R   0.771999 0.214117 0.992205 -0.000650
C162  C     C_R   0.739840 0.751526 0.927685 0.000620
C163  C     C_R   0.228013 0.214121 0.007816 -0.000993
C164  C     C_R   0.728027 0.285867 0.007850 -0.001286
C165  C     C_R   0.239974 0.748821 0.928232 0.001127
C166  C     C_R   0.271995 0.285873 0.992193 -0.000936
C167  C     C_R   0.760028 0.748760 0.071765 0.001074
C168  C     C_R   0.812335 0.281584 0.583710 -0.177225
C169  C     C_R   0.195643 0.715287 0.415397 -0.179546
C170  C     C_R   0.166030 0.265371 0.416305 -0.176703
C171  C     C_R   0.680568 0.781839 0.726148 -0.142322
C172  C     C_R   0.804295 0.715271 0.584608 -0.179543
C173  C     C_R   0.332320 0.768883 0.583776 -0.181071
C174  C     C_R   0.666002 0.234657 0.416303 -0.177110
C175  C     C_R   0.667713 0.768923 0.416226 -0.181066
C176  C     C_R   0.312386 0.218454 0.583698 -0.178131
C177  C     C_R   0.139685 0.249598 0.999213 0.788386
C178  C     C_R   0.859539 0.749604 0.999198 0.787524
C179  C     C_R   0.860318 0.249596 0.000793 0.788735
C180  C     C_R   0.140458 0.749606 0.000795 0.787509
C181  C     C_R   0.640401 0.750341 0.000630 0.787075
C182  C     C_R   0.170422 0.727632 0.719391 -0.147359
C183  C     C_R   0.360315 0.250400 0.000786 0.788123
C184  C     C_R   0.359602 0.750338 0.999376 0.787064
C185  C     C_R   0.639687 0.250399 0.999219 0.787838
C186  C     C_R   0.852948 0.281441 0.664227 -0.183738
C187  C     C_R   0.154024 0.715906 0.334920 -0.198174
C188  C     C_R   0.125942 0.265619 0.335786 -0.185753
C189  C     C_R   0.845919 0.715891 0.665085 -0.198211
C190  C     C_R   0.371569 0.769604 0.664270 -0.186804
C191  C     C_R   0.625924 0.234398 0.335784 -0.185754
C192  C     C_R   0.628466 0.769643 0.335732 -0.186777
H1    H     H_    0.884014 0.306167 0.694566 0.159840
H2    H     H_    0.180490 0.808601 0.305596 0.157412
H3    H     H_    0.799528 0.688674 0.555053 0.133322
H4    H     H_    0.348046 0.784276 0.554081 0.127109
H5    H     H_    0.647626 0.223267 0.446371 0.131911
H6    H     H_    0.652018 0.784351 0.445921 0.127109
H7    H     H_    0.312549 0.193418 0.553631 0.132858
H8    H     H_    0.938174 0.503485 0.862415 0.347853
H9    H     H_    0.912290 0.496539 0.008537 0.348031
H10   H     H_    0.061781 0.503496 0.137524 0.347857
H11   H     H_    0.087647 0.496533 0.991374 0.348053
H12   H     H_    0.437366 0.003474 0.862348 0.348042
H13   H     H_    0.227658 0.222446 0.305435 0.157448
H14   H     H_    0.412921 0.996520 0.009690 0.347973
H15   H     H_    0.562603 0.003481 0.137619 0.348465
H16   H     H_    0.587042 0.996516 0.990261 0.348017
H17   H     H_    0.819616 0.808627 0.694407 0.157353
H18   H     H_    0.281644 0.711334 0.693693 0.170220
H19   H     H_    0.727638 0.277586 0.305446 0.157533
H20   H     H_    0.718270 0.711252 0.306308 0.170220
H21   H     H_    0.310539 0.306171 0.694568 0.155767
H22   H     H_    0.741134 0.193394 0.553626 0.132378
H23   H     H_    0.250840 0.808329 0.446488 0.134028
H24   H     H_    0.298737 0.223262 0.446352 0.131690
H25   H     H_    0.127101 0.689993 0.304086 0.156975
H26   H     H_    0.749263 0.808352 0.553514 0.134026
H27   H     H_    0.211042 0.711983 0.553115 0.129190
H28   H     H_    0.798698 0.276790 0.446365 0.131787
H29   H     H_    0.788873 0.711900 0.446885 0.129172
H30   H     H_    0.241141 0.306627 0.553642 0.132767
H31   H     H_    0.090379 0.026854 0.114967 0.133726
H32   H     H_    0.897272 0.973331 0.943822 0.129869
H33   H     H_    0.909621 0.026859 0.884987 0.133352
H34   H     H_    0.102725 0.973328 0.056130 0.129902
H35   H     H_    0.602723 0.526669 0.056122 0.130337
H36   H     H_    0.077778 0.277535 0.305454 0.157780
H37   H     H_    0.409634 0.473141 0.884976 0.133757
H38   H     H_    0.397274 0.526667 0.943834 0.130311
H39   H     H_    0.590364 0.473146 0.114982 0.134128
H40   H     H_    0.090938 0.097409 0.114211 0.160699
H41   H     H_    0.897095 0.902787 0.942349 0.158809
H42   H     H_    0.909063 0.097416 0.885762 0.159053
H43   H     H_    0.102904 0.902785 0.057630 0.158822
H44   H     H_    0.602901 0.597212 0.057616 0.159412
H45   H     H_    0.409079 0.402584 0.885748 0.159237
H46   H     H_    0.397097 0.597211 0.942365 0.159406
H47   H     H_    0.872797 0.689967 0.695921 0.156916
H48   H     H_    0.590922 0.402590 0.114228 0.160887
H49   H     H_    0.955262 0.401985 0.878030 0.185006
H50   H     H_    0.929671 0.598045 0.022683 0.185534
H51   H     H_    0.044708 0.401997 0.121941 0.186977
H52   H     H_    0.070310 0.598042 0.977292 0.185534
H53   H     H_    0.454452 0.901966 0.877835 0.185193
H54   H     H_    0.430269 0.098025 0.023646 0.184408
H55   H     H_    0.545534 0.901972 0.122153 0.185227
H56   H     H_    0.569712 0.098022 0.976330 0.184413
H57   H     H_    0.857160 0.074750 0.978239 0.135605
H58   H     H_    0.416179 0.785928 0.694692 0.160051
H59   H     H_    0.303410 0.752162 0.348954 0.136114
H60   H     H_    0.142884 0.074749 0.021809 0.135470
H61   H     H_    0.696547 0.752406 0.651025 0.136082
H62   H     H_    0.181570 0.761751 0.644653 0.135994
H63   H     H_    0.642908 0.425219 0.021950 0.135693
H64   H     H_    0.818546 0.761456 0.355432 0.135951
H65   H     H_    0.357197 0.425217 0.978204 0.135842
H66   H     H_    0.929312 0.117937 0.090122 0.123163
H67   H     H_    0.346750 0.804972 0.314379 0.128856
H68   H     H_    0.070723 0.117928 0.909915 0.122714
H69   H     H_    0.577765 0.222474 0.305449 0.157768
H70   H     H_    0.653357 0.805216 0.685797 0.128850
H71   H     H_    0.139235 0.706512 0.675167 0.130909
H72   H     H_    0.570790 0.382092 0.909942 0.122797
H73   H     H_    0.860674 0.706207 0.324663 0.130922
H74   H     H_    0.429296 0.382061 0.090164 0.123241
H75   H     H_    0.890470 0.181776 0.097760 0.101211
H76   H     H_    0.327386 0.804792 0.187601 0.130661
H77   H     H_    0.109549 0.181769 0.902265 0.102525
H78   H     H_    0.672738 0.804950 0.812584 0.130647
H79   H     H_    0.166899 0.699832 0.805736 0.131296
H80   H     H_    0.583891 0.786003 0.305312 0.160085
H81   H     H_    0.609616 0.318259 0.902246 0.102601
H82   H     H_    0.832954 0.699634 0.194049 0.131311
H83   H     H_    0.390432 0.318231 0.097812 0.101293
H84   H     H_    0.706265 0.159670 0.878945 0.131068
H85   H     H_    0.221864 0.697604 0.129993 0.104952
H86   H     H_    0.293753 0.159685 0.121094 0.129836
H87   H     H_    0.777989 0.697679 0.869812 0.104914
H88   H     H_    0.280940 0.804254 0.876367 0.106732
H89   H     H_    0.793728 0.340248 0.121249 0.129989
H90   H     H_    0.719244 0.804175 0.123872 0.106705
H91   H     H_    0.384067 0.193865 0.694544 0.160163
H92   H     H_    0.206315 0.340286 0.878858 0.131246
H93   H     H_    0.745812 0.095711 0.873011 0.133273
H94   H     H_    0.241005 0.698657 0.256584 0.122652
H95   H     H_    0.254223 0.095723 0.127039 0.133264
H96   H     H_    0.758826 0.698815 0.743210 0.122638
H97   H     H_    0.253614 0.809924 0.745915 0.128834
H98   H     H_    0.754198 0.404200 0.127248 0.133092
H99   H     H_    0.746633 0.809744 0.254370 0.128860
H100  H     H_    0.245884 0.404234 0.872908 0.133117
H101  H     H_    0.139114 0.746109 0.877947 0.155724
H102  H     H_    0.810550 0.193831 0.694553 0.155604
H103  H     H_    0.808245 0.310844 0.017151 0.160992
H104  H     H_    0.860880 0.746005 0.122037 0.155814
H105  H     H_    0.191780 0.310851 0.982899 0.160759
H106  H     H_    0.691778 0.189141 0.982909 0.159897
H107  H     H_    0.361058 0.754163 0.122776 0.154238
H108  H     H_    0.308227 0.189144 0.017101 0.160109
H109  H     H_    0.638946 0.754261 0.877237 0.154300
H110  H     H_    0.812482 0.306629 0.553649 0.133429
H111  H     H_    0.200361 0.688701 0.444954 0.133338
H112  H     H_    0.147655 0.276758 0.446376 0.132003
O1    O     O_3   1.000000 0.250000 0.000000 -0.479206
O2    O     O_R   0.406930 0.227260 0.045480 -0.648752
O3    O     O_R   0.406930 0.772740 0.045480 -0.645485
O4    O     O_R   0.593070 0.227260 0.954520 -0.646406
O5    O     O_R   0.117100 0.227270 0.173460 -0.646170
O6    O     O_R   0.882900 0.772730 0.826540 -0.635554
O7    O     O_R   0.882900 0.227270 0.826540 -0.645416
O8    O     O_R   0.117100 0.772730 0.173460 -0.635556
O9    O     O_R   0.617100 0.727270 0.173460 -0.637506
O10   O     O_R   0.382900 0.272730 0.826540 -0.645594
O11   O     O_R   0.382900 0.727270 0.826540 -0.637508
O12   O     O_3   1.000000 0.750000 0.000000 -0.480047
O13   O     O_R   0.617100 0.272730 0.173460 -0.646356
O14   O     O_R   0.053120 0.163270 0.045480 -0.638138
O15   O     O_R   0.946880 0.836730 0.954520 -0.645571
O16   O     O_R   0.946880 0.163270 0.954520 -0.639736
O17   O     O_R   0.053120 0.836730 0.045480 -0.645564
O18   O     O_R   0.553120 0.663270 0.045480 -0.644753
O19   O     O_R   0.446880 0.336730 0.954520 -0.639605
O20   O     O_R   0.446880 0.663270 0.954520 -0.644764
O21   O     O_R   0.553120 0.336730 0.045480 -0.638007
O22   O     O_R   0.007620 0.336730 0.954520 -0.642470
O23   O     O_3   0.500000 0.750000 0.000000 -0.479078
O24   O     O_R   0.992380 0.663270 0.045480 -0.642633
O25   O     O_R   0.992380 0.336730 0.045480 -0.640703
O26   O     O_R   0.007620 0.663270 0.954520 -0.642652
O27   O     O_R   0.507620 0.836730 0.954520 -0.641492
O28   O     O_R   0.492380 0.163270 0.045480 -0.640366
O29   O     O_R   0.492380 0.836730 0.045480 -0.641487
O30   O     O_R   0.507620 0.163270 0.954520 -0.642603
O31   O     O_R   0.056370 0.272740 0.173460 -0.645350
O32   O     O_R   0.943630 0.727260 0.826540 -0.644937
O33   O     O_R   0.943630 0.272740 0.826540 -0.645943
O34   O     O_3   0.500000 0.250000 0.000000 -0.479296
O35   O     O_R   0.056370 0.727260 0.173460 -0.644948
O36   O     O_R   0.556370 0.772740 0.173460 -0.649738
O37   O     O_R   0.443630 0.227260 0.826540 -0.644377
O38   O     O_R   0.443630 0.772740 0.826540 -0.649747
O39   O     O_R   0.556370 0.227260 0.173460 -0.643682
O40   O     O_R   0.138550 0.227260 0.045470 -0.630365
O41   O     O_R   0.861450 0.772740 0.954530 -0.629236
O42   O     O_R   0.861450 0.227260 0.954530 -0.628065
O43   O     O_R   0.138550 0.772740 0.045470 -0.629231
O44   O     O_R   0.638550 0.727260 0.045470 -0.630810
O45   O     O_R   0.093070 0.272740 0.954520 -0.644712
O46   O     O_R   0.361450 0.272740 0.954530 -0.627715
O47   O     O_R   0.361450 0.727260 0.954530 -0.630796
O48   O     O_R   0.638550 0.272740 0.045470 -0.630007
O49   O     O_3   0.944576 0.475596 0.858824 -0.747273
O50   O     O_3   0.915901 0.524426 0.020777 -0.747223
O51   O     O_3   0.055377 0.475608 0.141121 -0.746271
O52   O     O_3   0.084052 0.524422 0.979158 -0.747276
O53   O     O_3   0.443672 0.975582 0.858644 -0.747191
O54   O     O_3   0.416588 0.024411 0.021921 -0.747488
O55   O     O_3   0.556301 0.975589 0.141328 -0.746742
O56   O     O_R   0.906930 0.727260 0.045480 -0.645224
O57   O     O_3   0.583380 0.024408 0.978038 -0.747618
O58   O     O_R   0.906930 0.272740 0.045480 -0.647040
O59   O     O_R   0.093070 0.727260 0.954520 -0.645215
O60   O     O_R   0.593070 0.772740 0.954520 -0.645494
Zn1   Zn    Zn3+2 0.989110 0.282490 0.064980 0.967343
Zn2   Zn    Zn3+2 0.924120 0.782490 0.935020 0.976084
Zn3   Zn    Zn3+2 0.924120 0.217510 0.935020 0.972878
Zn4   Zn    Zn3+2 0.075880 0.782490 0.064980 0.976105
Zn5   Zn    Zn3+2 0.575880 0.717510 0.064980 0.976881
Zn6   Zn    Zn3+2 0.424120 0.282490 0.935020 0.973088
Zn7   Zn    Zn3+2 0.424120 0.717510 0.935020 0.976876
Zn8   Zn    Zn3+2 0.575880 0.282490 0.064980 0.972475
Zn9   Zn    Zn3+2 0.010890 0.717510 0.935020 0.964697
Zn10  Zn    Zn3+2 0.010890 0.282490 0.935020 0.967380
Zn11  Zn    Zn3+2 0.989110 0.717510 0.064980 0.964712
Zn12  Zn    Zn3+2 0.489110 0.782490 0.064980 0.964553
Zn13  Zn    Zn3+2 0.510890 0.217510 0.935020 0.967237
Zn14  Zn    Zn3+2 0.510890 0.782490 0.935020 0.964529
Zn15  Zn    Zn3+2 0.489110 0.217510 0.064980 0.967424
Zn16  Zn    Zn3+2 0.075880 0.217510 0.064980 0.972219

loop_
_geom_bond_atom_site_label_1
_geom_bond_atom_site_label_2
_ccdc_geom_bond_type
C72   O20   A    
O27   Zn14  S    
C101  C113  A    
C143  C164  A    
C186  H1    S    
C135  H60   S    
O29   Zn12  S    
C44   C127  A    
C181  O60   A    
O23   Zn12  S    
C179  O58   A    
C191  H69   S    
H11   O52   S    
O19   Zn6   S    
C119  H87   S    
C95   C99   A    
C87   H49   S    
C76   C98   S    
C6    C188  A    
C190  H58   S    
C51   H43   S    
C4    C186  A    
C2    C90   A    
O30   Zn13  S    
C180  O43   A    
C131  C140  A    
C83   O53   S    
C44   C53   A    
C57   C109  A    
C113  C122  A    
C8    C190  A    
O38   Zn14  S    
C185  O4    A    
C89   H51   S    
C115  C124  A    
C4    C12   A    
C94   H55   S    
O34   Zn13  S    
C88   C97   A    
C85   C103  A    
C174  C191  A    
C119  C128  A    
C146  H106  S    
C14   H2    S    
C76   O27   A    
C27   H28   S    
C168  H110  S    
C25   H26   S    
C109  C118  A    
C145  C166  A    
C73   O19   A    
C29   H30   S    
C112  C164  S    
C146  C161  A    
C11   C20   A    
C19   H20   S    
C35   C107  A    
C54   H46   S    
C17   H18   S    
C109  C163  S    
C118  H86   S    
C79   H79   S    
C82   C91   A    
C5    C64   S    
C142  C151  A    
C7    C62   S    
C37   C175  A    
O4    Zn13  S    
C38   C176  A    
O1    Zn10  S    
C136  C171  A    
C57   H77   S    
C24   C141  A    
O36   Zn12  S    
O13   Zn8   S    
O23   Zn7   S    
C68   C110  A    
H15   O55   S    
C124  C133  A    
C1    C41   A    
C148  H108  S    
H8    O49   S    
C128  H96   S    
C27   C36   A    
C183  O2    A    
C176  H7    S    
C189  H47   S    
C52   H44   S    
O1    Zn1   S    
C16   C25   A    
O26   Zn9   S    
C106  H83   S    
O60   Zn14  S    
C30   C36   S    
C8    C17   A    
C79   C182  A    
C131  H99   S    
C89   C96   A    
C70   O16   A    
C80   C88   A    
O1    Zn16  S    
C143  H103  S    
C181  O44   A    
O33   Zn10  S    
O24   Zn11  S    
C145  H105  S    
C84   C93   A    
C120  H88   S    
C3    C11   A    
C86   C95   A    
C1    C39   A    
O20   Zn7   S    
C3    C176  A    
C129  C137  A    
C76   O29   A    
C154  C177  S    
C24   H74   S    
C35   H75   S    
C9    C191  A    
O34   Zn6   S    
O8    Zn4   S    
C1    C105  S    
C73   O21   A    
C78   C87   A    
C138  H66   S    
C64   O35   A    
C123  C132  A    
C60   C73   S    
O23   Zn14  S    
C121  C130  A    
C86   C104  A    
C110  C162  S    
C4    C63   S    
C83   C103  A    
C6    C61   S    
C16   H17   S    
C144  H104  S    
C68   C171  A    
C65   O9    A    
C43   C52   A    
C86   O57   S    
C69   O13   A    
C40   C49   A    
C150  H109  S    
O23   Zn5   S    
O35   Zn11  S    
C177  O45   A    
C80   O50   S    
O47   Zn7   S    
C67   O38   A    
C46   C108  A    
C29   C38   A    
C184  O47   A    
C111  C165  S    
H14   O54   S    
C152  C161  A    
O1    Zn3   S    
C22   H23   S    
C121  H89   S    
C53   C60   A    
C54   C59   A    
C42   H34   S    
C179  O42   A    
C2    H72   S    
C71   O17   A    
C168  C186  A    
O31   Zn1   S    
C144  C167  A    
C120  C129  A    
C77   O28   A    
C74   C96   S    
C136  H61   S    
O12   Zn2   S    
C70   O14   A    
C155  C185  S    
C53   H45   S    
C175  C192  A    
C134  C149  A    
C50   C56   A    
C180  O59   A    
C80   C102  A    
C151  C159  A    
C44   H37   S    
O12   Zn4   S    
C43   C116  A    
C173  H4    S    
O3    Zn12  S    
C82   C102  A    
C31   C34   S    
C178  O56   A    
C19   C28   A    
C63   O33   A    
C183  O46   A    
C114  C123  A    
C147  H107  S    
H9    O50   S    
C84   C104  A    
C101  H82   S    
C24   C106  A    
C45   H38   S    
C145  C154  A    
C133  H57   S    
C122  C131  A    
O44   Zn5   S    
C62   O32   A    
C132  C141  A    
O32   Zn9   S    
C174  H5    S    
O7    Zn3   S    
C26   H27   S    
O28   Zn15  S    
C108  C117  A    
O2    Zn15  S    
C188  H36   S    
C110  C119  A    
C47   C127  A    
C62   O6    A    
C192  H80   S    
C85   O55   S    
C14   C22   A    
C18   H19   S    
C169  H111  S    
C112  C121  A    
C170  H112  S    
C124  H93   S    
C33   C172  A    
C45   C116  A    
C28   C37   A    
C182  H71   S    
C77   C99   S    
C148  C157  A    
C158  C181  S    
C9    C18   A    
C46   C149  A    
C91   H52   S    
C8    C67   S    
C46   H76   S    
O45   Zn10  S    
C170  C188  A    
C141  H65   S    
O48   Zn8   S    
C75   O24   A    
C117  C125  A    
C25   C33   A    
C125  C134  A    
O21   Zn8   S    
C36   C174  A    
O18   Zn5   S    
O40   Zn16  S    
O14   Zn16  S    
C156  C184  S    
C108  C159  S    
C2    C139  A    
O42   Zn3   S    
C9    C69   S    
C123  H92   S    
C128  C136  A    
C88   H50   S    
C58   C71   S    
C94   C98   A    
C173  C190  A    
C75   C97   S    
O6    Zn2   S    
C50   H42   S    
C149  H67   S    
C82   O52   S    
C115  H84   S    
C146  C155  A    
C107  C161  S    
C116  C127  S    
C158  C167  A    
O37   Zn13  S    
C55   H48   S    
C93   C99   A    
C137  H62   S    
C11   C66   S    
C59   C72   S    
O56   Zn11  S    
C81   C89   A    
C133  C138  A    
C55   C60   A    
C12   H102  S    
C39   H31   S    
C134  H59   S    
C130  C139  A    
C23   H24   S    
C66   O10   A    
O46   Zn6   S    
C150  C162  A    
C41   H33   S    
C13   C140  A    
O9    Zn5   S    
C31   C169  A    
O41   Zn2   S    
C33   C37   S    
C185  O48   A    
O43   Zn4   S    
C139  H63   S    
O17   Zn4   S    
C74   O25   A    
C84   O54   S    
C10   C19   A    
C66   O37   A    
O12   Zn9   S    
C51   C58   A    
C91   C97   A    
C147  C156  A    
C122  H90   S    
C177  O40   A    
C169  C187  A    
C5    C14   A    
C15   H13   S    
C7    C16   A    
C57   C160  A    
C40   H32   S    
C126  C135  A    
C78   C100  A    
C5    C187  A    
C41   C50   A    
C125  H94   S    
C135  C160  A    
C150  C158  A    
H16   O57   S    
C13   H73   S    
C113  C167  S    
C92   H53   S    
C81   C100  A    
C172  C189  A    
C21   C30   A    
C178  O41   A    
C153  C162  A    
C23   C32   A    
C152  C179  S    
C30   C168  A    
C34   C173  A    
O39   Zn15  S    
C151  C180  S    
C156  C165  A    
C42   C105  A    
C10   C192  A    
C93   H54   S    
C103  C104  S    
C7    C189  A    
C172  H3    S    
C81   O51   S    
C74   O22   A    
C157  C183  S    
C39   C48   A    
O58   Zn1   S    
H10   O51   S    
C90   C112  A    
C147  C159  A    
C78   O49   S    
C92   C98   A    
C175  H6    S    
C142  H101  S    
C83   C92   A    
C106  C114  A    
C17   C26   A    
C35   C138  A    
C47   H39   S    
O15   Zn2   S    
C160  H68   S    
O12   Zn11  S    
C144  C153  A    
C117  H85   S    
C6    C15   A    
C26   C34   A    
C28   H29   S    
C49   H41   S    
C132  H100  S    
C140  H64   S    
C32   C38   S    
C42   C51   A    
C71   O15   A    
C15   C23   A    
C129  H97   S    
C126  H95   S    
C61   O31   A    
C43   H35   S    
C114  C166  S    
C20   C29   A    
C72   O18   A    
C22   C31   A    
C154  C163  A    
O16   Zn3   S    
C137  C182  A    
C12   C21   A    
C49   C58   A    
C111  C120  A    
C184  O3    A    
C171  H70   S    
C68   H78   S    
C52   C59   A    
C95   H56   S    
C85   C94   A    
C61   O5    A    
C87   C96   A    
C130  H98   S    
C100  C102  S    
C77   O30   A    
C107  C115  A    
O11   Zn7   S    
C45   C54   A    
C56   C70   S    
C63   O7    A    
C13   C101  A    
C64   O8    A    
O34   Zn15  S    
C47   C55   A    
C187  H25   S    
C10   C65   S    
C48   C56   A    
C32   C170  A    
C153  C178  S    
C143  C152  A    
C148  C163  A    
C75   O26   A    
C18   C27   A    
C67   O11   A    
O5    Zn16  S    
C157  C166  A    
O25   Zn1   S    
C155  C164  A    
C69   O39   A    
C79   C111  A    
C20   H21   S    
O34   Zn8   S    
C142  C165  A    
O22   Zn10  S    
C3    H91   S    
C90   H81   S    
C48   H40   S    
H12   O53   S    
O10   Zn6   S    
C21   H22   S    
C65   O36   A    
C118  C126  A    
O59   Zn9   S    
C40   C105  A    
