data_mof_unit_64301.cif
_audit_creation_date              2013-03-05T15:43:24-0500
_audit_creation_method            fapswitch 2.2
_symmetry_space_group_name_H-M    P1
_symmetry_Int_Tables_number       1
_space_group_crystal_system       triclinic
_cell_length_a                    9.741853
_cell_length_b                    10.939057
_cell_length_c                    13.898322
_cell_angle_alpha                 90.499044
_cell_angle_beta                  85.268459
_cell_angle_gamma                 90.311532
_cell_volume                      1475.9781794

loop_
_atom_site_label
_atom_site_type_symbol
_atom_site_description
_atom_site_fract_x
_atom_site_fract_y
_atom_site_fract_z
_atom_type_partial_charge
O1    O     O_R   0.382960 0.678040 0.499980 -0.574383
O2    O     O_R   0.617100 0.678080 0.500020 -0.553554
C1    C     C_R   0.499887 0.734225 0.503485 0.847815
O3    O     O_R   0.366380 0.499950 0.637830 -0.571202
O4    O     O_R   0.600520 0.499990 0.637860 -0.510952
C2    C     C_R   0.478109 0.500410 0.682696 0.806628
Cu1   Cu    Cu3+1 0.361370 0.499980 0.499980 1.081822
Cu2   Cu    Cu3+1 0.638630 0.500020 0.500020 1.051704
O5    O     O_R   0.382900 0.321920 0.499980 -0.508997
O6    O     O_R   0.617040 0.321960 0.500020 -0.587670
O7    O     O_R   0.399480 0.500010 0.362140 -0.549768
O8    O     O_R   0.633620 0.500050 0.362170 -0.579538
C3    C     C_R   0.499978 0.265671 0.495961 0.845389
C4    C     C_R   0.521980 0.499227 0.317286 0.805903
C5    C     C_1   0.535200 0.493013 0.214444 -0.108944
C6    C     C_2   0.563765 0.475338 0.024407 0.343260
C7    C     C_2   0.453702 0.500941 0.975709 -0.276020
C8    C     C_1   0.458930 0.501267 0.872231 0.134735
C9    C     C_1   0.548090 0.485635 0.127935 -0.031512
C10   C     C_1   0.466225 0.501108 0.785577 -0.056031
H1    H     H_    0.356804 0.526832 0.014810 0.158581
C11   C     C_2   0.603575 0.066770 0.507295 -0.181727
C12   C     C_2   0.499059 0.134862 0.479240 0.016888
H2    H     H_    0.689447 0.110322 0.539503 0.191586
C13   C     C_2   0.609875 0.933869 0.496673 -0.126065
C14   C     C_2   0.497357 0.865322 0.515672 -0.302064
H3    H     H_    0.709438 0.892352 0.477080 0.195855
H4    H     H_    0.400370 0.905646 0.542766 0.161096
C15   C     C_2   0.070914 0.572395 0.554239 0.181666
N1    N     N_2   0.152970 0.501340 0.501040 -0.064374
C16   C     C_2   0.915376 0.556530 0.565432 0.391989
N2    N     N_2   0.846830 0.501370 0.501060 -0.314287
H5    H     H_    0.899365 0.480885 0.435772 0.206644
N3    N     N_R   0.695795 0.439511 0.977999 0.163167
O9    O     O_R   0.804732 0.444801 0.026210 -0.310466
O10   O     O_R   0.706347 0.388924 0.892626 -0.295813
N4    N     N_3   0.392781 0.087200 0.422949 -0.538534
H6    H     H_    0.310213 0.055407 0.468765 0.247273
H7    H     H_    0.430882 0.018444 0.375473 0.242897
N5    N     N_3   0.130568 0.671650 0.604545 -0.527232
H8    H     H_    0.084448 0.752675 0.584695 0.218552
H9    H     H_    0.107609 0.659519 0.678613 0.255480
N6    N     N_R   0.102848 0.385750 0.479057 0.199665
O11   O     O_R   0.137485 0.338052 0.394582 -0.316233
O12   O     O_R   0.051493 0.314794 0.547874 -0.339899
N7    N     N_R   0.843075 0.609670 0.649134 0.138222
O13   O     O_R   0.791870 0.718753 0.644335 -0.365486
O14   O     O_R   0.856820 0.562512 0.733360 -0.296069

loop_
_geom_bond_atom_site_label_1
_geom_bond_atom_site_label_2
_geom_bond_distance
_ccdc_geom_bond_type
O4    Cu2   1.921091 S    
Cu1   O7    1.921090 S    
N6    O11   1.300156 A    
C15   N1    1.299654 D    
C13   H3    1.086378 S    
C2    C10   1.424958 S    
C14   H4    1.082607 S    
C16   N2    1.301993 D    
Cu2   O8    1.920527 S    
N2    H5    1.027902 S    
N5    H9    1.044719 S    
C7    C8    1.434908 S    
Cu1   Cu2   2.701069 S    
C15   C16   1.519519 S    
Cu1   N1    2.029175 S    
O1    Cu1   1.957993 S    
C5    C9    1.200588 T    
N6    O12   1.302815 A    
N4    H6    1.043909 S    
O3    Cu1   1.920527 S    
C15   N5    1.432603 S    
Cu2   O6    1.957993 S    
N5    H8    1.045280 S    
C11   C13   1.461117 S    
O8    C4    1.297602 A    
O2    C1    1.296703 A    
N3    O10   1.301431 A    
C11   C12   1.349939 D    
C6    C9    1.437862 S    
O4    C2    1.299165 A    
N4    H7    1.045388 S    
O7    C4    1.300047 A    
C11   H2    1.086701 S    
N1    N6    1.393471 S    
Cu2   N2    2.029470 S    
N7    O14   1.300567 A    
C3    C12   1.447773 S    
C8    C10   1.200551 T    
O3    C2    1.298246 A    
N3    O9    1.301743 A    
N7    O13   1.300196 A    
Cu1   O5    1.960202 S    
O5    C3    1.295803 A    
C4    C5    1.425561 S    
C6    N3    1.445060 S    
C13   C14   1.334269 D    
C12   N4    1.441003 S    
O6    C3    1.298160 A    
C1    C14   1.442678 S    
O2    Cu2   1.960202 S    
C6    C7    1.346279 D    
O1    C1    1.295634 A    
C16   N7    1.429981 S    
C7    H1    1.087290 S    
