data_mof_unit_9242.cif
_audit_creation_date              2012-12-11T14:22:58-0500
_audit_creation_method            fapswitch 2.2
_symmetry_space_group_name_H-M    P1
_symmetry_Int_Tables_number       1
_space_group_crystal_system       triclinic
_cell_length_a                    11.01996
_cell_length_b                    10.953748
_cell_length_c                    18.836072
_cell_angle_alpha                 90.016087
_cell_angle_beta                  90.421358
_cell_angle_gamma                 59.679198
_cell_volume                      1962.6170082

loop_
_atom_site_label
_atom_site_type_symbol
_atom_type_description
_atom_site_fract_x
_atom_site_fract_y
_atom_site_fract_z
_atom_type_partial_charge
C1    C     C_R   0.236543 0.645062 0.609921 0.549038
C2    C     C_3   0.712849 0.510418 0.807170 -0.239042
C3    C     C_3   0.688445 0.661566 0.816820 0.042505
C4    C     C_3   0.651328 0.619823 0.683634 0.036422
C5    C     C_3   0.780237 0.641751 0.691129 -0.100636
C6    C     C_3   0.680024 0.490495 0.729776 -0.260533
C7    C     C_R   0.719360 0.088089 0.812918 -0.005040
C8    C     C_R   0.818209 0.113058 0.776478 0.021035
C9    C     C_R   0.809684 0.123728 0.701082 0.019902
C10   C     C_R   0.600768 0.103429 0.701820 -0.129360
C11   C     C_R   0.615826 0.079115 0.773470 -0.164356
C12   C     C_R   0.630646 0.589414 0.609070 0.564205
C13   C     C_R   0.922123 0.132259 0.810941 -0.118247
C14   C     C_R   0.022111 0.145523 0.772044 -0.164438
C15   C     C_R   0.023169 0.137250 0.698497 -0.148744
C16   C     C_R   0.919498 0.124038 0.663212 -0.093598
C17   C     C_R   0.689182 0.137992 0.665936 0.021094
C18   C     C_R   0.180627 0.668735 0.834560 -0.009009
C19   C     C_R   0.208170 0.542870 0.800159 0.017656
C20   C     C_R   0.201970 0.540009 0.724657 0.018768
C21   C     C_R   0.174682 0.774744 0.721432 -0.162094
C22   C     C_R   0.173111 0.779343 0.794408 -0.160224
C23   C     C_R   0.632764 0.220992 0.600292 0.545999
C24   C     C_R   0.243595 0.419346 0.839385 -0.079059
C25   C     C_R   0.261410 0.298739 0.805651 -0.124883
C26   C     C_R   0.241297 0.299988 0.732791 -0.140596
C27   C     C_R   0.208428 0.419859 0.692723 -0.090120
C28   C     C_R   0.191246 0.656541 0.684796 -0.003074
C29   C     C_R   0.730416 0.696819 0.181906 -0.001578
C30   C     C_R   0.800234 0.557493 0.211720 0.039664
C31   C     C_R   0.744002 0.536042 0.272783 0.023434
C32   C     C_R   0.628210 0.788584 0.297040 -0.150130
C33   C     C_R   0.651862 0.811948 0.226689 -0.161034
C34   C     C_R   0.287001 0.622339 0.392796 0.561667
C35   C     C_R   0.919930 0.437153 0.182113 -0.090244
C36   C     C_R   0.966826 0.301433 0.206234 -0.148417
C37   C     C_R   0.897548 0.281517 0.260800 -0.117602
C38   C     C_R   0.777676 0.396492 0.288225 -0.072848
C39   C     C_R   0.664183 0.652054 0.318688 0.006694
C40   C     C_R   0.661631 0.146693 0.179060 -0.000905
C41   C     C_R   0.528499 0.209446 0.209713 0.011869
C42   C     C_R   0.519633 0.191137 0.282671 0.035449
C43   C     C_R   0.770718 0.090196 0.296523 -0.183004
C44   C     C_R   0.782630 0.080954 0.223064 -0.152842
C45   C     C_R   0.641626 0.621849 0.391586 0.542172
C46   C     C_R   0.405464 0.271881 0.168027 -0.079764
C47   C     C_R   0.285111 0.279247 0.193508 -0.121261
C48   C     C_R   0.278354 0.244869 0.263765 -0.158909
C49   C     C_R   0.394333 0.200790 0.308126 -0.096543
C50   C     C_R   0.638682 0.158401 0.326384 -0.001790
C51   C     C_R   0.179220 0.652621 0.175204 -0.001256
C52   C     C_R   0.265607 0.705705 0.197334 0.027313
C53   C     C_R   0.280920 0.719353 0.270586 0.010463
C54   C     C_R   0.173145 0.575986 0.293633 -0.127265
C55   C     C_R   0.131911 0.591174 0.223854 -0.150882
C56   C     C_R   0.616941 0.223922 0.396554 0.533034
C57   C     C_R   0.317986 0.765062 0.148243 -0.073938
C58   C     C_R   0.348579 0.867183 0.170316 -0.102537
C59   C     C_R   0.338932 0.900839 0.241668 -0.143859
C60   C     C_R   0.316225 0.821506 0.291910 -0.112626
C61   C     C_R   0.247467 0.639656 0.318255 0.002880
C62   C     C_R   0.725001 0.051388 0.888766 0.557800
C63   C     C_R   0.718714 0.684130 0.890556 0.549037
C64   C     C_R   0.119568 0.705102 0.906075 0.527893
C65   C     C_R   0.677756 0.103678 0.104977 0.535410
C66   C     C_R   0.738625 0.717124 0.105132 0.570454
C67   C     C_3   0.535114 0.767564 0.793468 -0.246549
C68   C     C_R   0.099868 0.704969 0.110075 0.524656
C69   C     C_3   0.517846 0.751411 0.713471 -0.235118
C70   C     C_3   0.791906 0.680477 0.768417 -0.226383
Cr1   Cr    Cr6+3 0.392940 0.397950 0.502230 1.001595
Cr2   Cr    Cr6+3 0.398400 0.708500 0.501260 0.996129
Cr3   Cr    Cr6+3 0.708640 0.393530 0.496460 0.997107
Cr4   Cr    Cr6+3 0.937880 0.938320 0.007620 0.994535
Cr5   Cr    Cr6+3 0.625560 0.937220 0.994510 0.984998
Cr6   Cr    Cr6+3 0.938080 0.625010 0.001190 0.979060
H1    H     H_    0.506085 0.878095 0.804523 0.119646
H2    H     H_    0.770855 0.393974 0.708244 0.156433
H3    H     H_    0.902476 0.611369 0.786833 0.139448
H4    H     H_    0.877739 0.540378 0.678722 0.126007
H5    H     H_    0.513240 0.103488 0.675275 0.144061
H6    H     H_    0.928042 0.141774 0.867362 0.155324
H7    H     H_    0.541468 0.056867 0.798468 0.133719
H8    H     H_    0.101577 0.157900 0.799511 0.111802
H9    H     H_    0.104781 0.139473 0.668218 0.105160
H10   H     H_    0.927584 0.112152 0.606192 0.144887
H11   H     H_    0.171442 0.862208 0.693502 0.154145
H12   H     H_    0.461077 0.746802 0.823838 0.123267
H13   H     H_    0.262476 0.413462 0.896064 0.129242
H14   H     H_    0.161109 0.873323 0.819591 0.152549
H15   H     H_    0.290047 0.204253 0.836278 0.101595
H16   H     H_    0.254458 0.206253 0.706923 0.092191
H17   H     H_    0.185233 0.416491 0.637337 0.145713
H18   H     H_    0.573539 0.877258 0.332721 0.119225
H19   H     H_    0.984420 0.444741 0.142150 0.146440
H20   H     H_    0.607571 0.918817 0.207038 0.139183
H21   H     H_    0.057960 0.211649 0.183258 0.113790
H22   H     H_    0.940840 0.177110 0.282395 0.118544
H23   H     H_    0.425222 0.739347 0.704621 0.134359
H24   H     H_    0.713544 0.377571 0.322924 0.166376
H25   H     H_    0.863518 0.047279 0.330123 0.127802
H26   H     H_    0.404518 0.304625 0.113696 0.131241
H27   H     H_    0.887135 0.021910 0.200916 0.162244
H28   H     H_    0.200039 0.308770 0.157147 0.096549
H29   H     H_    0.185128 0.249249 0.284271 0.121585
H30   H     H_    0.386974 0.164146 0.360274 0.140196
H31   H     H_    0.137058 0.523458 0.329215 0.153826
H32   H     H_    0.322143 0.742879 0.091976 0.126819
H33   H     H_    0.056976 0.561192 0.208865 0.125782
H34   H     H_    0.498045 0.849093 0.685218 0.135815
H35   H     H_    0.375886 0.922893 0.132109 0.140158
H36   H     H_    0.358963 0.982349 0.258882 0.121486
H37   H     H_    0.319562 0.849788 0.346048 0.165633
H38   H     H_    0.769737 0.791103 0.772598 0.124450
H39   H     H_    0.824041 0.430857 0.819946 0.151109
H40   H     H_    0.644976 0.491952 0.843873 0.123552
H41   H     H_    0.587622 0.474980 0.728178 0.120029
O1    O     O_R   0.507340 0.255690 0.581430 -0.518786
O2    O     O_R   0.524510 0.695820 0.424050 -0.527103
O3    O     O_R   0.736370 0.504260 0.414810 -0.516830
O4    O     O_R   0.691220 0.277270 0.422180 -0.522343
O5    O     O_3   0.499990 0.499990 0.499980 -0.283027
O6    O     O_R   0.089570 0.825450 0.930590 -0.534187
O7    O     O_R   0.818700 0.054260 0.929860 -0.511830
O8    O     O_R   0.606310 0.077010 0.915520 -0.526776
O9    O     O_R   0.646730 0.806540 0.917560 -0.517128
O10   O     O_R   0.837290 0.593240 0.915240 -0.520911
O11   O     O_R   0.065320 0.635310 0.931580 -0.510361
O12   O     O_R   0.280360 0.527380 0.578910 -0.506721
O13   O     O_R   0.068470 0.828620 0.091850 -0.524060
O14   O     O_R   0.799150 0.057200 0.079350 -0.497245
O15   O     O_R   0.585220 0.080180 0.076770 -0.537082
O16   O     O_R   0.627170 0.809480 0.067050 -0.503857
O17   O     O_R   0.816200 0.596410 0.076500 -0.532319
O18   O     O_R   0.045770 0.638240 0.081070 -0.540945
O19   O     O_3   0.833840 0.833520 0.001110 -0.276076
O20   O     O_R   0.260600 0.739610 0.584580 -0.531477
O21   O     O_R   0.532370 0.695050 0.573830 -0.496914
O22   O     O_R   0.744850 0.503430 0.576380 -0.517461
O23   O     O_R   0.699080 0.276500 0.571950 -0.528648
O24   O     O_R   0.498860 0.256520 0.419860 -0.535137
O25   O     O_R   0.272490 0.528150 0.429140 -0.496541
O26   O     O_R   0.252110 0.740440 0.423010 -0.533091
C71   C     C_1   0.774747 0.748352 0.641148 0.204049
N1    N     N_1   0.771226 0.830765 0.601508 -0.298177

loop_
_geom_bond_atom_site_label_1
_geom_bond_atom_site_label_2
_ccdc_geom_bond_type
Cr2   O26   S    
Cr4   O7    S    
C21   H11   S    
C8    C13   A    
C41   C42   A    
C54   C55   A    
Cr1   O5    S    
C32   H18   S    
C35   C36   A    
C67   H1    S    
C14   H8    S    
C24   H13   S    
C23   O1    A    
C62   O7    A    
Cr6   O19   S    
C7    C8    A    
C70   H38   S    
C7    C11   A    
C46   H26   S    
C26   C27   A    
C17   C23   S    
C54   H31   S    
C36   C37   A    
C9    C16   A    
C1    O12   A    
C30   C31   A    
C6    H2    S    
C10   C17   A    
C26   H16   S    
C15   C16   A    
C29   C33   A    
Cr6   O18   S    
C18   C19   A    
C2    H39   S    
C32   C39   A    
C37   H22   S    
C66   O17   A    
C53   C61   A    
C44   H27   S    
C34   O25   A    
C19   C20   A    
C8    C9    A    
C64   O11   A    
Cr4   O19   S    
C1    C28   S    
C41   C46   A    
C36   H21   S    
C4    C12   S    
C6    H41   S    
C39   C45   S    
C45   O2    A    
Cr2   O21   S    
Cr4   O6    S    
C59   C60   A    
Cr3   O3    S    
C13   C14   A    
C55   H33   S    
C16   H10   S    
C60   H37   S    
C2    C6    S    
C2    H40   S    
C4    C69   S    
C65   O14   A    
C53   C60   A    
C54   C61   A    
Cr1   O24   S    
Cr4   O14   S    
C34   O26   A    
C25   H15   S    
C58   H35   S    
C23   O23   A    
C3    C70   S    
C24   C25   A    
C4    C6    S    
C10   C11   A    
Cr6   O17   S    
Cr5   O19   S    
C71   N1    T    
C5    C71   S    
C20   C28   A    
C11   H7    S    
C58   C59   A    
C13   H6    S    
C34   C61   S    
C50   C56   S    
C51   C52   A    
Cr5   O8    S    
C37   C38   A    
C43   C44   A    
C43   H25   S    
C7    C62   S    
C29   C30   A    
Cr1   O12   S    
C66   O16   A    
C69   H34   S    
C47   C48   A    
C59   H36   S    
C22   H14   S    
C12   O22   A    
Cr3   O22   S    
C52   C53   A    
C5    H4    S    
C68   O13   A    
C42   C50   A    
Cr1   O25   S    
C56   O24   A    
C69   H23   S    
C45   O3    A    
C9    C17   A    
C40   C41   A    
Cr3   O23   S    
C21   C28   A    
Cr3   O4    S    
C40   C65   S    
Cr4   O13   S    
Cr6   O11   S    
C12   O21   A    
C27   H17   S    
C33   H20   S    
C65   O15   A    
C1    O20   A    
Cr5   O15   S    
C67   C69   S    
C46   C47   A    
Cr2   O20   S    
C47   H28   S    
Cr1   O1    S    
Cr2   O5    S    
C70   H3    S    
C18   C22   A    
C68   O18   A    
C3    C67   S    
C4    C5    S    
C5    C70   S    
C62   O8    A    
Cr5   O16   S    
C43   C50   A    
C67   H12   S    
C49   H30   S    
C20   C27   A    
C3    C63   S    
C64   O6    A    
C30   C35   A    
C10   H5    S    
C31   C38   A    
C15   H9    S    
Cr5   O9    S    
C32   C33   A    
C19   C24   A    
C25   C26   A    
C56   O4    A    
C38   H24   S    
C18   C64   S    
C57   C58   A    
C48   C49   A    
Cr2   O2    S    
C31   C39   A    
C2    C3    S    
C51   C55   A    
C51   C68   S    
C63   O9    A    
C52   C57   A    
C42   C49   A    
C29   C66   S    
C40   C44   A    
C57   H32   S    
Cr3   O5    S    
Cr6   O10   S    
C14   C15   A    
C48   H29   S    
C21   C22   A    
C63   O10   A    
C35   H19   S    
