data_mof_unit_52680.cif
_audit_creation_date              2012-12-11T14:58:21-0500
_audit_creation_method            fapswitch 2.2
_symmetry_space_group_name_H-M    P1
_symmetry_Int_Tables_number       1
_space_group_crystal_system       triclinic
_cell_length_a                    10.951982
_cell_length_b                    10.990139
_cell_length_c                    18.782679
_cell_angle_alpha                 90.288789
_cell_angle_beta                  90.401891
_cell_angle_gamma                 60.040609
_cell_volume                      1958.62041201

loop_
_atom_site_label
_atom_site_type_symbol
_atom_type_description
_atom_site_fract_x
_atom_site_fract_y
_atom_site_fract_z
_atom_type_partial_charge
C1    C     C_R   0.357179 0.775533 0.398388 0.533454
C2    C     C_R   0.587083 0.077295 0.174543 0.007006
C3    C     C_R   0.370528 0.325136 0.161889 0.007985
C4    C     C_R   0.462001 0.224073 0.277074 -0.156855
C5    C     C_R   0.475845 0.214533 0.203860 -0.030573
C6    C     C_R   0.119012 0.731499 0.266046 -0.107346
C7    C     C_R   0.004952 0.858100 0.289440 -0.099655
C8    C     C_R   0.581733 0.957073 0.192654 -0.099886
C9    C     C_R   0.649303 0.837739 0.150642 -0.145026
C10   C     C_R   0.278277 0.452601 0.194103 -0.109313
C11   C     C_R   0.267401 0.466278 0.268580 0.006245
C12   C     C_R   0.386211 0.356353 0.387022 0.519408
C13   C     C_R   0.920696 0.858574 0.344891 -0.106077
C14   C     C_R   0.949235 0.732191 0.376328 -0.119176
C15   C     C_R   0.062213 0.605244 0.352389 -0.030951
C16   C     C_R   0.151882 0.602776 0.298135 0.068703
C17   C     C_R   0.361180 0.347196 0.310767 -0.005643
C18   C     C_R   0.698987 0.350694 0.272436 -0.175693
C19   C     C_R   0.741683 0.332322 0.202169 -0.194063
C20   C     C_R   0.860622 0.339829 0.183982 0.026280
C21   C     C_R   0.931545 0.374928 0.235798 0.233757
C22   C     C_R   0.894834 0.382321 0.306358 -0.108602
C23   C     C_R   0.720633 0.411035 0.394770 0.547423
C24   C     C_R   0.775632 0.375556 0.324143 -0.010312
C25   C     C_R   0.419566 0.733785 0.272946 -0.139162
C26   C     C_R   0.397744 0.776534 0.202366 -0.152012
C27   C     C_R   0.308994 0.918148 0.185920 0.025309
C28   C     C_R   0.239232 0.016089 0.240354 -0.157032
C29   C     C_R   0.256857 0.972235 0.311192 -0.143497
C30   C     C_R   0.346801 0.830554 0.327240 0.043390
C31   C     C_R   0.397502 0.199596 0.695057 -0.119087
C32   C     C_R   0.389602 0.188316 0.767210 -0.114612
C33   C     C_R   0.299898 0.306445 0.808479 0.032935
C34   C     C_R   0.344083 0.769279 0.604615 0.575454
C35   C     C_R   0.211524 0.435117 0.775754 -0.148331
C36   C     C_R   0.222477 0.447436 0.702778 -0.144880
C37   C     C_R   0.320432 0.330363 0.663039 0.019898
C38   C     C_R   0.755099 0.475439 0.733582 0.260566
C39   C     C_R   0.755771 0.462321 0.806566 -0.109567
C40   C     C_R   0.809994 0.330219 0.837259 -0.016776
C41   C     C_R   0.837255 0.214057 0.794509 -0.142859
C42   C     C_R   0.820395 0.229625 0.720770 -0.180909
C43   C     C_R   0.784016 0.359155 0.689425 0.021800
C44   C     C_R   0.210515 0.811700 0.715337 -0.197030
C45   C     C_R   0.368492 0.350394 0.595068 0.550546
C46   C     C_R   0.204240 0.822829 0.788584 -0.167555
C47   C     C_R   0.304555 0.841905 0.825437 -0.030577
C48   C     C_R   0.412827 0.846922 0.788096 -0.091788
C49   C     C_R   0.415741 0.841538 0.714535 0.386409
C50   C     C_R   0.318042 0.818232 0.677828 0.042906
C51   C     C_R   0.910626 0.316344 0.111672 0.551003
C52   C     C_R   0.331318 0.293809 0.091887 0.544576
C53   C     C_R   0.272881 0.961075 0.112296 0.561137
C54   C     C_R   0.877964 0.310619 0.906391 0.546034
C55   C     C_R   0.292877 0.284702 0.883864 0.547130
C56   C     C_R   0.755056 0.381835 0.612930 0.560234
C57   C     C_R   0.276392 0.893109 0.898141 0.545332
C58   C     C_R   0.737378 0.829714 0.095636 -0.108066
C59   C     C_R   0.763077 0.941304 0.083673 0.288509
C60   C     C_R   0.681448 0.067371 0.120796 -0.019118
Cr1   Cr    Cr6+3 0.601770 0.606860 0.505860 1.063611
Cr2   Cr    Cr6+3 0.291380 0.601660 0.495070 1.008683
Cr3   Cr    Cr6+3 0.606880 0.291510 0.499120 1.016348
Cr4   Cr    Cr6+3 0.062440 0.063090 0.008210 1.042781
Cr5   Cr    Cr6+3 0.062880 0.375170 0.998920 0.995093
Cr6   Cr    Cr6+3 0.374700 0.061720 0.992470 1.030652
H1    H     H_    0.537477 0.134830 0.308224 0.140290
H2    H     H_    0.832227 0.956648 0.362839 0.123528
H3    H     H_    0.882291 0.732151 0.418434 0.108053
H4    H     H_    0.079108 0.508507 0.375921 0.111667
H5    H     H_    0.601933 0.354915 0.286150 0.128530
H6    H     H_    0.675731 0.325170 0.161803 0.105446
H7    H     H_    0.951349 0.406404 0.346102 0.133871
H8    H     H_    0.486005 0.623636 0.285055 0.108156
H9    H     H_    0.446824 0.698954 0.160545 0.117600
H10   H     H_    0.168906 0.125094 0.227589 0.139715
H11   H     H_    0.632050 0.751112 0.160178 0.110949
H12   H     H_    0.198854 0.047292 0.352842 0.118334
H13   H     H_    0.472866 0.108357 0.665337 0.196616
H14   H     H_    0.456625 0.086309 0.790620 0.155431
H15   H     H_    0.138886 0.526007 0.806601 0.111008
H16   H     H_    0.161532 0.549976 0.678558 0.121331
H17   H     H_    0.730684 0.553782 0.838977 0.138307
H18   H     H_    0.879672 0.110300 0.817357 0.149979
H19   H     H_    0.840897 0.139785 0.688226 0.136158
H20   H     H_    0.132909 0.794009 0.688477 0.137411
H21   H     H_    0.981303 0.955818 0.264103 0.131983
H22   H     H_    0.118273 0.821222 0.815934 0.138076
H23   H     H_    0.491221 0.862539 0.815504 0.142665
H24   H     H_    0.785956 0.735710 0.063294 0.100286
H25   H     H_    0.684681 0.158508 0.103169 0.115035
H26   H     H_    0.179575 0.734149 0.221661 0.119431
H27   H     H_    0.515078 0.959838 0.235430 0.131454
H28   H     H_    0.207359 0.538105 0.160049 0.101561
O1    O     O_R   0.748800 0.497470 0.428000 -0.534416
O2    O     O_R   0.300070 0.471040 0.567100 -0.508952
O3    O     O_R   0.491670 0.258900 0.574910 -0.513652
O4    O     O_R   0.718780 0.304180 0.577850 -0.508066
O5    O     O_3   0.500010 0.500010 0.500020 -0.281289
O6    O     O_R   0.186690 0.923650 0.086970 -0.527043
O7    O     O_R   0.957250 0.194250 0.084630 -0.503449
O8    O     O_R   0.934970 0.407490 0.085330 -0.508533
O9    O     O_R   0.203780 0.365190 0.067090 -0.490425
O10   O     O_R   0.417600 0.174890 0.067840 -0.514461
O11   O     O_R   0.375320 0.946260 0.070860 -0.493256
O12   O     O_R   0.476420 0.724060 0.429470 -0.520401
O13   O     O_R   0.160600 0.919630 0.926660 -0.531049
O14   O     O_R   0.933060 0.190520 0.936020 -0.479987
O15   O     O_R   0.908880 0.403460 0.925020 -0.535340
O16   O     O_R   0.179600 0.361450 0.918490 -0.510408
O17   O     O_R   0.391510 0.170860 0.907530 -0.524751
O18   O     O_R   0.351130 0.942530 0.922260 -0.511339
O19   O     O_3   0.166667 0.166667 0.999870 -0.269095
O20   O     O_R   0.264580 0.744340 0.416750 -0.497797
O21   O     O_R   0.309380 0.472470 0.418200 -0.506949
O22   O     O_R   0.501710 0.260430 0.414300 -0.532280
O23   O     O_R   0.728090 0.305600 0.428960 -0.496826
O24   O     O_R   0.738760 0.495930 0.588610 -0.456850
O25   O     O_R   0.467110 0.722640 0.578360 -0.418453
O26   O     O_R   0.254530 0.742800 0.577360 -0.548178
O27   O     O_3   0.018717 0.426030 0.216816 -0.561768
C61   C     C_3   0.929680 0.571674 0.205895 -0.085169
H29   H     H_    0.876465 0.627596 0.255591 0.117824
H30   H     H_    0.848723 0.590213 0.166201 0.134045
H31   H     H_    0.988266 0.619712 0.183834 0.126311
O28   O     O_3   0.720689 0.605004 0.706104 -0.488222
C62   C     C_3   0.841830 0.619105 0.707956 -0.065197
H32   H     H_    0.929606 0.533773 0.677200 0.111269
H33   H     H_    0.875893 0.621602 0.763626 0.090358
H34   H     H_    0.815991 0.720236 0.682665 0.168763
F1    F     F_    0.513522 0.859187 0.679346 -0.635193
O29   O     O_3   0.855597 0.937083 0.032047 -0.569056
C63   C     C_3   0.976523 0.802115 0.027291 -0.089939
H35   H     H_    0.954959 0.731864 0.993323 0.094981
H36   H     H_    0.017690 0.754529 0.080588 0.086773
H37   H     H_    0.061466 0.811202 0.001241 0.186025

loop_
_geom_bond_atom_site_label_1
_geom_bond_atom_site_label_2
_ccdc_geom_bond_type
C33   C55   S    
Cr3   O4    S    
C52   O9    A    
C40   C41   A    
O28   C62   S    
Cr6   O19   S    
Cr2   O2    S    
Cr1   O25   S    
C41   C42   A    
C35   C36   A    
C56   O4    A    
C35   H15   S    
C51   O8    A    
C49   F1    S    
C26   C27   A    
C18   C24   A    
C28   C29   A    
C18   C19   A    
C20   C51   S    
C38   C39   A    
Cr3   O23   S    
C2    C60   A    
C57   O18   A    
C47   C57   S    
C10   H28   S    
C15   C16   A    
C34   O25   A    
Cr2   O21   S    
C25   H8    S    
Cr3   O5    S    
C7    H21   S    
C29   H12   S    
C31   C32   A    
C36   H16   S    
O29   C63   S    
C12   C17   S    
C63   H37   S    
C23   C24   S    
Cr6   O17   S    
Cr2   O26   S    
C1    O12   A    
C12   O21   A    
C59   C60   A    
C21   C22   A    
C19   H6    S    
Cr1   O5    S    
Cr5   O19   S    
Cr5   O8    S    
C44   H20   S    
C38   O28   S    
C44   C46   A    
Cr4   O14   S    
C46   H22   S    
C53   O6    A    
C34   O26   A    
Cr4   O7    S    
C59   O29   S    
C34   C50   S    
Cr6   O10   S    
C39   C40   A    
C8    C9    A    
C58   C59   A    
C41   H18   S    
C31   C37   A    
C54   O15   A    
C62   H33   S    
C29   C30   A    
C18   H5    S    
C32   H14   S    
C11   C16   S    
C47   C48   A    
C7    C13   A    
C27   C53   S    
C26   H9    S    
C42   H19   S    
C9    H11   S    
C31   H13   S    
Cr1   O12   S    
C58   H24   S    
Cr5   O15   S    
O27   C61   S    
Cr3   O22   S    
C48   C49   A    
C57   O13   A    
C40   C54   S    
C48   H23   S    
C55   O16   A    
C52   O10   A    
C63   H35   S    
C14   H3    S    
C22   C24   A    
C2    C5    S    
C1    O20   A    
C4    C17   A    
Cr6   O11   S    
C61   H30   S    
C62   H32   S    
C28   H10   S    
Cr4   O13   S    
C60   H25   S    
C44   C50   A    
C25   C30   A    
C15   H4    S    
C46   C47   A    
C9    C58   A    
Cr4   O19   S    
C55   O17   A    
Cr1   O24   S    
C56   O24   A    
C2    C8    A    
C8    H27   S    
C4    C5    A    
C3    C5    A    
C11   C17   A    
C23   O23   A    
C4    H1    S    
C3    C52   S    
Cr1   O1    S    
Cr2   O20   S    
C6    C7    A    
C51   O7    A    
C54   O14   A    
C32   C33   A    
C19   C20   A    
C25   C26   A    
C62   H34   S    
C39   H17   S    
C38   C43   A    
Cr3   O3    S    
C3    C10   A    
C45   O3    A    
C61   H31   S    
C6    H26   S    
C1    C30   S    
C33   C35   A    
C23   O1    A    
C21   O27   S    
Cr5   O16   S    
C10   C11   A    
C6    C16   A    
Cr2   O5    S    
C53   O11   A    
C43   C56   S    
Cr4   O6    S    
C20   C21   A    
C36   C37   A    
C49   C50   A    
C42   C43   A    
C27   C28   A    
C63   H36   S    
Cr5   O9    S    
C14   C15   A    
C22   H7    S    
Cr6   O18   S    
C61   H29   S    
C13   C14   A    
C45   O2    A    
C37   C45   S    
C12   O22   A    
C13   H2    S    
