data_mof_unit_51769.cif
_audit_creation_date              2012-12-11T18:13:29-0500
_audit_creation_method            fapswitch 2.2
_symmetry_space_group_name_H-M    P1
_symmetry_Int_Tables_number       1
_space_group_crystal_system       triclinic
_cell_length_a                    8.170373
_cell_length_b                    12.662883
_cell_length_c                    18.715076
_cell_angle_alpha                 99.5077
_cell_angle_beta                  91.224449
_cell_angle_gamma                 98.543031
_cell_volume                      1886.39123156

loop_
_atom_site_label
_atom_site_type_symbol
_atom_type_description
_atom_site_fract_x
_atom_site_fract_y
_atom_site_fract_z
_atom_type_partial_charge
Ba1   Ba    Ba6+2 0.852780 0.548340 0.465070 1.634397
Ba2   Ba    Ba6+2 0.337060 0.451750 0.534940 1.633053
C1    C     C_3   0.580235 0.900228 0.252813 -0.415584
C2    C     C_R   0.891183 0.394417 0.095215 0.033180
C3    C     C_R   0.727886 0.348055 0.072079 -0.083893
C4    C     C_3   0.128939 0.761198 0.265045 0.365727
C5    C     C_R   0.666307 0.353665 0.002730 -0.088332
C6    C     C_R   0.767656 0.404170 0.954599 0.031912
C7    C     C_R   0.931470 0.451575 0.977119 0.013611
C8    C     C_R   0.708042 0.406141 0.884093 -0.109482
C9    C     C_R   0.811147 0.451968 0.833985 -0.043345
C10   C     C_R   0.974661 0.502711 0.856930 -0.004160
C11   C     C_R   0.033775 0.502515 0.928888 -0.007549
C12   C     C_3   0.632235 0.820233 0.297858 0.342859
C13   C     C_R   0.757273 0.446212 0.761032 -0.008503
C14   C     C_R   0.866477 0.486688 0.711872 -0.303582
C15   C     C_R   0.024235 0.543378 0.733967 0.039228
C16   C     C_3   0.108736 0.785525 0.188709 -0.365148
C17   C     C_R   0.079446 0.552960 0.808115 -0.046097
C18   C     C_R   0.155904 0.495602 0.071145 -0.008072
C19   C     C_R   0.215368 0.495101 0.142990 -0.005606
C20   C     C_R   0.110529 0.445144 0.191860 -0.043931
C21   C     C_R   0.952564 0.389738 0.165207 -0.040953
C22   C     C_R   0.237085 0.608424 0.834896 -0.038233
C23   C     C_3   0.460237 0.275214 0.313925 0.310698
C24   C     C_R   0.298577 0.603469 0.904809 0.033206
C25   C     C_R   0.196780 0.550570 0.952114 0.008457
C26   C     C_R   0.258219 0.546435 0.022895 0.014200
C27   C     C_R   0.462295 0.648959 0.927748 -0.092136
C28   C     C_3   0.235935 0.787391 0.619780 0.276245
C29   C     C_R   0.523950 0.643263 0.997023 -0.088380
C30   C     C_R   0.422335 0.593317 0.045264 0.032150
C31   C     C_R   0.379304 0.545290 0.165780 -0.044818
C32   C     C_R   0.482272 0.591017 0.115631 -0.109105
C33   C     C_R   0.434045 0.550180 0.238536 -0.001278
C34   C     C_3   0.434642 0.237885 0.232440 -0.401528
C35   C     C_R   0.325871 0.508377 0.287536 -0.298836
C36   C     C_R   0.166493 0.454379 0.265826 0.043740
C37   C     C_R   0.765445 0.182421 0.528462 -0.278384
C38   C     C_R   0.428178 0.807401 0.469708 -0.286727
C39   C     C_R   0.401986 0.984371 0.444246 -0.105639
C40   C     C_3   0.250872 0.909925 0.635794 -0.351270
C41   C     C_R   0.337292 0.875912 0.440365 -0.011687
C42   C     C_R   0.577949 0.848191 0.509008 0.067691
C43   C     C_R   0.642860 0.960266 0.516545 -0.058791
C44   C     C_R   0.554144 0.028339 0.482297 -0.062121
C45   C     C_3   0.061156 0.238456 0.735221 0.366198
C46   C     C_R   0.618023 0.139338 0.488501 0.044635
C47   C     C_R   0.857326 0.116215 0.559314 -0.012730
C48   C     C_R   0.794205 0.006476 0.555812 -0.094123
C49   C     C_3   0.960520 0.212191 0.380595 0.277988
C50   C     C_3   0.947455 0.089736 0.364173 -0.349318
C51   C     C_3   0.730653 0.708472 0.683157 0.307266
C52   C     C_3   0.782003 0.750817 0.763328 -0.139954
C53   C     C_3   0.080824 0.214694 0.811737 -0.365322
C54   C     C_3   0.557871 0.178778 0.700697 0.354203
C55   C     C_3   0.614016 0.100395 0.745888 -0.428175
C56   C     C_R   0.992835 0.447566 0.047948 0.007151
H1    H     H_    0.723759 0.864091 0.341409 0.077384
H2    H     H_    0.834210 0.672975 0.656555 -0.008479
H3    H     H_    0.620441 0.644823 0.679446 0.055500
H4    H     H_    0.526857 0.964762 0.288056 0.104428
H5    H     H_    0.908965 0.798076 0.767665 0.116491
H6    H     H_    0.785290 0.681433 0.792257 0.053309
H7    H     H_    0.520713 0.785788 0.324023 -0.050438
H8    H     H_    0.485825 0.857426 0.210203 0.114332
H9    H     H_    0.343231 0.298979 0.335444 0.018436
H10   H     H_    0.560415 0.346252 0.324109 0.059678
H11   H     H_    0.330078 0.169721 0.220556 0.129488
H12   H     H_    0.338960 0.942294 0.682738 0.112959
H13   H     H_    0.406031 0.305471 0.205815 0.056541
H14   H     H_    0.548897 0.210477 0.209974 0.118197
H15   H     H_    0.688594 0.937561 0.226007 0.131010
H16   H     H_    0.148624 0.720406 0.148812 0.071124
H17   H     H_    0.140965 0.316298 0.731928 0.094681
H18   H     H_    0.929928 0.246565 0.724845 -0.074438
H19   H     H_    0.212978 0.212250 0.825324 0.150172
H20   H     H_    0.037438 0.278802 0.851248 0.070742
H21   H     H_    0.006549 0.135338 0.816125 0.113230
H22   H     H_    0.667800 0.213857 0.673714 -0.052376
H23   H     H_    0.296670 0.945189 0.588362 0.082979
H24   H     H_    0.466309 0.133449 0.657650 0.079773
H25   H     H_    0.707805 0.144679 0.788299 0.116815
H26   H     H_    0.669438 0.037068 0.710460 0.085114
H27   H     H_    0.047378 0.684081 0.268471 0.094521
H28   H     H_    0.507412 0.061635 0.773022 0.130570
H29   H     H_    0.647069 0.308106 0.107858 0.061920
H30   H     H_    0.824890 0.478273 0.655672 0.074377
H31   H     H_    0.581524 0.369554 0.868659 0.107688
H32   H     H_    0.873273 0.344950 0.198917 0.096894
H33   H     H_    0.316233 0.652892 0.801141 0.090211
H34   H     H_    0.128057 0.933694 0.648734 0.142187
H35   H     H_    0.543655 0.687948 0.891838 0.093290
H36   H     H_    0.651036 0.678852 0.013095 0.074969
H37   H     H_    0.609216 0.626828 0.130813 0.108485
H38   H     H_    0.368580 0.514893 0.343440 0.072688
H39   H     H_    0.328738 0.033449 0.419009 0.101518
H40   H     H_    0.866607 0.958863 0.582711 0.104317
H41   H     H_    0.814138 0.267490 0.531910 0.064560
H42   H     H_    0.376934 0.722669 0.465693 0.071216
H43   H     H_    0.977045 0.790340 0.175907 0.150639
H44   H     H_    0.185646 0.863896 0.184065 0.111420
H45   H     H_    0.839969 0.234445 0.396793 0.002788
H46   H     H_    0.357753 0.764613 0.605854 0.005941
H47   H     H_    0.145041 0.756976 0.573380 0.078464
H48   H     H_    0.687474 0.893777 0.781459 0.211228
H49   H     H_    0.545910 0.783141 0.783721 0.184924
H50   H     H_    0.539592 0.317408 0.986463 0.071556
H51   H     H_    0.259659 0.751335 0.274688 -0.075164
H52   H     H_    0.054558 0.243122 0.425600 0.081751
H53   H     H_    0.854515 0.056662 0.319112 0.115198
H54   H     H_    0.908884 0.054165 0.412425 0.086698
H55   H     H_    0.069387 0.066995 0.348345 0.141589
N1    N     N_3   0.667877 0.819039 0.799113 -0.497437
O1    O     O_2   0.873090 0.425890 0.325140 -0.466907
O2    O     O_2   0.198203 0.121537 0.552413 -0.482824
O3    O     O_3   0.108660 0.153621 0.685729 -0.597949
O4    O     O_3   0.122420 0.434370 0.414380 -0.494596
O5    O     O_3   0.578370 0.633800 0.536380 -0.487034
O6    O     O_2   0.341510 0.231850 0.465510 -0.467919
O7    O     O_3   0.503722 0.189780 0.345581 -0.650687
O8    O     O_2   0.415253 0.452591 0.756632 -0.498357
O9    O     O_3   0.481609 0.255759 0.745821 -0.595756
O10   O     O_3   0.659500 0.627100 0.368810 -0.472328
O11   O     O_2   0.776295 0.546906 0.243793 -0.496650
O12   O     O_3   0.694114 0.794217 0.650301 -0.648953
O13   O     O_3   0.003343 0.253131 0.317604 -0.640015
O14   O     O_3   0.706890 0.742444 0.252720 -0.597940
O15   O     O_2   0.848200 0.768190 0.534530 -0.469812
O16   O     O_3   0.081160 0.685950 0.404810 -0.486971
O17   O     O_2   0.999053 0.879179 0.449501 -0.485538
O18   O     O_3   0.084806 0.846703 0.315071 -0.598983
O19   O     O_2   0.316610 0.574140 0.674900 -0.470746
O20   O     O_3   0.067290 0.565720 0.585630 -0.492822
O21   O     O_3   0.530210 0.372990 0.631200 -0.465062
O22   O     O_3   0.185797 0.746946 0.682174 -0.646455
O23   O     O_3   0.611340 0.366290 0.463630 -0.477377
O24   O     O_3   0.108550 0.314140 0.595200 -0.483700
P1    P     P_3+3 0.041040 0.394770 0.336330 0.971988
P2    P     P_3+3 0.672880 0.754030 0.556100 0.971105
P3    P     P_3+3 0.126178 0.823766 0.402926 0.949449
P4    P     P_3+3 0.148670 0.605320 0.663680 0.966458
P5    P     P_3+3 0.067158 0.175141 0.597566 0.951870
P6    P     P_3+3 0.643682 0.614163 0.274919 0.950205
P7    P     P_3+3 0.522235 0.230193 0.439784 0.933667
P8    P     P_3+3 0.546478 0.384557 0.724918 0.949981

loop_
_geom_bond_atom_site_label_1
_geom_bond_atom_site_label_2
_ccdc_geom_bond_type
C23   H9    S    
O10   P6    S    
C28   H46   S    
Ba2   O4    S    
C5    C6    A    
C51   C52   S    
C54   C55   S    
C12   H1    S    
C40   H23   S    
O12   P2    S    
O19   P4    D    
Ba2   O20   S    
C4    H27   S    
H48   N1    S    
O5    P2    S    
O23   P7    S    
O3    P5    S    
C22   C24   A    
C45   H18   S    
C7    C56   A    
Ba1   O15   S    
O24   P5    S    
Ba1   O5    S    
C53   H19   S    
C19   C31   A    
C52   H5    S    
C50   H54   S    
O11   P6    D    
C49   H45   S    
C13   C14   A    
C20   C36   A    
C52   N1    S    
C40   H12   S    
C12   O14   S    
C55   H28   S    
Ba1   Ba2   S    
C16   H44   S    
O16   P3    S    
C7    C11   A    
O22   P4    S    
C31   C33   A    
C51   H3    S    
C38   C41   A    
C8    H31   S    
C6    C7    A    
C36   P1    S    
C55   H25   S    
C40   H34   S    
O17   P3    D    
C34   H13   S    
C33   P6    S    
O6    P7    D    
C16   H16   S    
C19   C20   A    
C39   C41   A    
C23   H10   S    
O13   P1    S    
C51   H2    S    
C4    C16   S    
C44   C46   A    
C48   H40   S    
Ba2   O19   S    
C49   C50   S    
Ba2   O24   S    
C54   O9    S    
C26   C30   A    
C32   H37   S    
C4    O18   S    
Ba1   O16   S    
C8    C9    A    
C3    C5    A    
C2    C21   A    
Ba2   O6    S    
C14   C15   A    
C18   C26   A    
C50   H53   S    
C43   C44   A    
C35   H38   S    
C15   P4    S    
C16   H43   S    
C30   C32   A    
H49   N1    S    
C35   C36   A    
O20   P4    S    
O2    P5    D    
C53   H21   S    
C37   H41   S    
C29   C30   A    
O9    P8    S    
C45   O3    S    
C39   C44   A    
O21   P8    S    
C46   P7    S    
C31   C32   A    
C24   C25   A    
C21   H32   S    
C10   C11   A    
O14   P6    S    
Ba1   P2    S    
C37   C47   A    
O1    P1    D    
C49   H52   S    
C9    C13   A    
C28   H47   S    
Ba2   P4    S    
C4    H51   S    
C39   H39   S    
C41   P3    S    
C1    H8    S    
C18   C56   A    
O4    P1    S    
C22   H33   S    
Ba1   O23   S    
C42   C43   A    
C45   C53   S    
C1    H4    S    
O18   P3    S    
C53   H20   S    
C55   H26   S    
C33   C35   A    
C5    H50   S    
Ba2   O23   S    
C28   C40   S    
C2    C3    A    
Ba1   P1    S    
C38   H42   S    
C13   P8    S    
Ba2   O5    S    
C54   H24   S    
C1    C12   S    
C29   H36   S    
C28   O22   S    
Ba2   O21   S    
C54   H22   S    
C49   O13   S    
C17   C22   A    
Ba1   O10   S    
C45   H17   S    
C27   C29   A    
C27   H35   S    
O15   P2    D    
C52   H6    S    
C43   C48   A    
C50   H55   S    
C47   P5    S    
C10   C17   A    
C15   C17   A    
C12   H7    S    
C42   P2    S    
O7    P7    S    
Ba1   O4    S    
O8    P8    D    
C34   H11   S    
C1    H15   S    
C51   O12   S    
C23   C34   S    
C3    H29   S    
C34   H14   S    
C38   C42   A    
C18   C19   A    
C24   C27   A    
C6    C8    A    
C47   C48   A    
C2    C56   A    
C25   C26   A    
C14   H30   S    
C20   C21   A    
C11   C25   A    
Ba1   O1    S    
C23   O7    S    
Ba1   O20   S    
C9    C10   A    
C37   C46   A    
