data_mof_unit_67539.cif
_audit_creation_date              2013-03-05T15:41:21-0500
_audit_creation_method            fapswitch 2.2
_symmetry_space_group_name_H-M    P1
_symmetry_Int_Tables_number       1
_space_group_crystal_system       triclinic
_cell_length_a                    10.835922
_cell_length_b                    9.005321
_cell_length_c                    7.700292
_cell_angle_alpha                 102.213558
_cell_angle_beta                  91.969904
_cell_angle_gamma                 97.415014
_cell_volume                      726.776945313

loop_
_atom_site_label
_atom_site_type_symbol
_atom_site_description
_atom_site_fract_x
_atom_site_fract_y
_atom_site_fract_z
_atom_type_partial_charge
O1    O     O_R   0.509190 0.286130 0.619780 -0.521164
O2    O     O_R   0.490810 0.713870 0.380220 -0.520346
O3    O     O_R   0.485310 0.256770 0.308360 -0.635023
O4    O     O_R   0.514690 0.743230 0.691640 -0.574160
C1    C     C_R   0.499553 0.202459 0.454692 0.756253
C2    C     C_R   0.510784 0.799435 0.544772 0.778492
O5    O     O_R   0.328790 0.514640 0.655680 -0.540753
O6    O     O_R   0.671210 0.485360 0.344320 -0.573381
O7    O     O_R   0.304910 0.485280 0.344260 -0.632948
O8    O     O_R   0.695090 0.514720 0.655740 -0.629635
C3    C     C_R   0.258672 0.487009 0.502238 0.784571
C4    C     C_R   0.740135 0.514632 0.497638 0.758435
Cu1   Cu    Cu3+1 0.514140 0.517380 0.684380 1.026524
Cu2   Cu    Cu3+1 0.485860 0.482620 0.315620 0.993994
N1    N     N_2   0.464560 0.456420 0.038510 0.093211
N2    N     N_2   0.535440 0.543580 0.961490 0.116225
C5    C     C_3   0.017973 0.419644 0.614530 0.530541
C6    C     C_3   0.978146 0.591615 0.382976 0.488748
C7    C     C_3   0.930450 0.368974 0.448571 -0.066448
C8    C     C_3   0.067614 0.641560 0.552249 -0.100591
C9    C     C_3   0.878098 0.521723 0.492033 -0.122279
C10   C     C_3   0.118666 0.486791 0.506973 -0.145445
C11   C     C_3   0.966827 0.575596 0.662278 -0.364599
C12   C     C_3   0.029647 0.435146 0.336689 -0.330271
H1    H     H_    0.939915 0.642223 0.789783 0.162865
H2    H     H_    0.063889 0.355647 0.227792 0.146071
C13   C     C_2   0.503784 0.036436 0.429459 0.198888
C14   C     C_2   0.526542 0.968842 0.567997 0.190472
C15   C     C_1   0.850696 0.220156 0.398555 0.199750
N3    N     N_1   0.785695 0.104298 0.361266 -0.342480
C16   C     C_1   0.163662 0.774731 0.605868 0.149849
N4    N     N_1   0.244893 0.874237 0.635143 -0.357176
O9    O     O_3   0.032456 0.315810 0.723330 -0.606816
C17   C     C_3   0.010923 0.386001 0.897816 0.068505
H3    H     H_    0.988672 0.294705 0.969912 0.140408
H4    H     H_    0.923607 0.438944 0.908775 0.149135
C18   C     C_3   0.125651 0.500909 0.979280 -0.760507
H5    H     H_    0.175786 0.547846 0.877006 0.266361
H6    H     H_    0.098910 0.598727 0.071455 0.243693
H7    H     H_    0.191888 0.448562 0.049254 0.268589
O10   O     O_3   0.946860 0.682314 0.261848 -0.636655
C19   C     C_3   0.024996 0.825271 0.300777 0.047245
H8    H     H_    0.122446 0.805273 0.302276 0.156068
H9    H     H_    0.002877 0.896777 0.429468 0.186752
C20   C     C_3   0.015793 0.916114 0.158118 -0.906677
H10   H     H_    0.936112 0.979197 0.179078 0.268526
H11   H     H_    0.098440 0.005100 0.172850 0.203082
H12   H     H_    0.010565 0.841172 0.023369 0.257473
O11   O     O_3   0.382389 0.355310 0.922135 -0.470596
C21   C     C_3   0.341744 0.231099 0.997893 0.162877
H13   H     H_    0.315484 0.267055 0.135009 0.164924
H14   H     H_    0.414632 0.154805 0.989892 0.217766
C22   C     C_3   0.223685 0.142503 0.898848 -0.784458
H15   H     H_    0.219746 0.149610 0.756599 0.312912
H16   H     H_    0.214231 0.024394 0.915863 0.216773
H17   H     H_    0.143114 0.183307 0.963717 0.213359
O12   O     O_3   0.585652 0.674054 0.074231 -0.467282
C23   C     C_3   0.711105 0.708911 0.040851 0.245412
H18   H     H_    0.756627 0.606889 0.984775 0.125642
H19   H     H_    0.758984 0.763721 0.171999 0.210057
C24   C     C_3   0.724742 0.828225 0.928317 -0.766396
H20   H     H_    0.647546 0.897497 0.953377 0.314914
H21   H     H_    0.812289 0.906412 0.958162 0.179531
H22   H     H_    0.726764 0.776089 0.786147 0.228798
O13   O     O_3   0.487544 0.951297 0.256364 -0.548633
C25   C     C_3   0.358542 0.913334 0.213391 0.046323
H23   H     H_    0.311845 0.017508 0.225713 0.102689
H24   H     H_    0.316885 0.841461 0.301905 0.164346
C26   C     C_3   0.335874 0.820711 0.024633 -0.645559
H25   H     H_    0.362440 0.705765 0.016171 0.283305
H26   H     H_    0.235377 0.805509 0.984774 0.166944
H27   H     H_    0.389954 0.879757 0.933501 0.287592
O14   O     O_3   0.550139 0.055635 0.740298 -0.595291
C27   C     C_3   0.677417 0.120554 0.768139 0.070632
H28   H     H_    0.702599 0.204019 0.683895 0.178363
H29   H     H_    0.739885 0.031631 0.734525 0.129925
C28   C     C_3   0.703033 0.205483 0.962400 -0.701005
H30   H     H_    0.637472 0.156192 0.049537 0.285488
H31   H     H_    0.798335 0.195952 0.010238 0.179721
H32   H     H_    0.693027 0.328330 0.976609 0.227556

loop_
_geom_bond_atom_site_label_1
_geom_bond_atom_site_label_2
_geom_bond_distance
_ccdc_geom_bond_type
C25   H24   1.104366 S    
C24   H22   1.098284 S    
C17   C18   1.532798 S    
O14   C27   1.417174 S    
C28   H30   1.108751 S    
O5    C3    1.341773 A    
C5    C11   1.552772 S    
C5    O9    1.400410 S    
O1    C1    1.326628 A    
C7    C9    1.531538 S    
C18   H5    1.097727 S    
C12   H2    1.090552 S    
C18   H7    1.093583 S    
C26   H25   1.099216 S    
C22   H17   1.087150 S    
C25   C26   1.509404 S    
C23   H19   1.104369 S    
N1    N2    1.276868 D    
C6    C9    1.544914 S    
C26   H26   1.104347 S    
C17   H3    1.092441 S    
O10   C19   1.414913 S    
C20   H11   1.107414 S    
O4    Cu1   2.021993 S    
C24   H21   1.092090 S    
C1    C13   1.473274 S    
C2    C14   1.484490 S    
C27   C28   1.527148 S    
C21   H14   1.106851 S    
C6    C12   1.558214 S    
C17   H4    1.111097 S    
C23   C24   1.512929 S    
C28   H31   1.104359 S    
C25   H23   1.110531 S    
Cu1   Cu2   2.791832 S    
O2    C2    1.330829 A    
C19   H9    1.113676 S    
C14   O14   1.386697 S    
O8    C4    1.327002 A    
C21   H13   1.095614 S    
C22   H16   1.091184 S    
C21   C22   1.505585 S    
C27   H28   1.107140 S    
O4    C2    1.334695 A    
C6    O10   1.422705 S    
C20   H12   1.106841 S    
C23   H18   1.112482 S    
C22   H15   1.110359 S    
C4    C9    1.490569 S    
C19   C20   1.509859 S    
C26   H27   1.106485 S    
O7    Cu2   1.983282 S    
C15   N3    1.156192 T    
C13   O13   1.382768 S    
C16   N4    1.151465 T    
C8    C11   1.540307 S    
O6    C4    1.333413 A    
O9    C17   1.399821 S    
O7    C3    1.329280 A    
O3    Cu2   2.021993 S    
C27   H29   1.109366 S    
C8    C10   1.541671 S    
O13   C25   1.406182 S    
C9    C11   1.549897 S    
C10   C12   1.550910 S    
O1    Cu1   2.029304 S    
C19   H8    1.093963 S    
C7    C15   1.466625 S    
C28   H32   1.108213 S    
O6    Cu2   2.009394 S    
O3    C1    1.331696 A    
O8    Cu1   1.983282 S    
C3    C10   1.518545 S    
C5    C10   1.531604 S    
C7    C12   1.538917 S    
C18   H6    1.085893 S    
O12   C23   1.400211 S    
C5    C7    1.516262 S    
C6    C8    1.547146 S    
N2    O12   1.342076 S    
N1    O11   1.347426 S    
C24   H20   1.104966 S    
O2    Cu2   2.029306 S    
C20   H10   1.091629 S    
O5    Cu1   2.009392 S    
C11   H1    1.106626 S    
O11   C21   1.397161 S    
Cu1   N2    2.097910 S    
C13   C14   1.365560 D    
Cu2   N1    2.097910 S    
C8    C16   1.459679 S    
