data_mof_unit_33561.cif
_audit_creation_date              2012-12-10T16:51:28-0500
_audit_creation_method            fapswitch 2.2
_symmetry_space_group_name_H-M    P1
_symmetry_Int_Tables_number       1
_space_group_crystal_system       triclinic
_cell_length_a                    7.821189
_cell_length_b                    8.580415
_cell_length_c                    12.106728
_cell_angle_alpha                 92.307136
_cell_angle_beta                  101.148447
_cell_angle_gamma                 94.192421
_cell_volume                      793.777078124

loop_
_atom_site_label
_atom_site_type_symbol
_atom_type_description
_atom_site_fract_x
_atom_site_fract_y
_atom_site_fract_z
_atom_type_partial_charge
C1    C     C_R   0.041804 0.794050 0.492134 0.970710
C2    C     C_R   0.158842 0.503989 0.832121 -0.122520
C3    C     C_2   0.061380 0.957688 0.487581 -0.440672
C4    C     C_R   0.105946 0.503679 0.710335 0.855258
C5    C     C_2   0.920158 0.041502 0.477725 0.034311
C6    C     C_R   0.952911 0.205158 0.497605 0.875532
C7    C     C_R   0.892361 0.488180 0.289688 0.855209
C8    C     C_R   0.809451 0.286265 0.003765 -0.190330
C9    C     C_R   0.829688 0.456210 0.170217 -0.068710
C10   C     C_R   0.072906 0.594869 0.899752 -0.179644
C11   C     C_R   0.144033 0.624840 0.013383 -0.129178
C12   C     C_R   0.395636 0.483253 0.990210 0.081553
C13   C     C_R   0.305796 0.572705 0.058354 -0.201771
C14   C     C_3   0.692410 0.942162 0.320829 -0.745074
C15   C     C_R   0.310000 0.433007 0.880249 0.079251
C16   C     C_R   0.568030 0.442683 0.027205 0.081924
C17   C     C_R   0.640830 0.331606 0.963455 0.167660
C18   C     C_R   0.542945 0.265775 0.861794 -0.247175
C19   C     C_R   0.379423 0.316168 0.820259 -0.205473
C20   C     C_R   0.671308 0.512464 0.125296 -0.274055
C21   C     C_R   0.902308 0.345659 0.108829 -0.184693
H1    H     H_    0.025863 0.300600 0.143978 0.157680
H2    H     H_    0.307044 0.261606 0.741221 0.165737
H3    H     H_    0.195185 0.010635 0.505261 0.153140
H4    H     H_    0.651762 0.033173 0.473854 0.226914
H5    H     H_    0.558639 0.881958 0.300751 0.228130
H6    H     H_    0.782945 0.864215 0.290453 0.235011
H7    H     H_    0.692595 0.052879 0.276161 0.222300
H8    H     H_    0.469904 0.375001 0.416553 0.187190
H9    H     H_    0.530111 0.625008 0.583435 0.194070
H10   H     H_    0.594020 0.177610 0.813349 0.146831
H11   H     H_    0.865814 0.200496 0.956499 0.135965
H12   H     H_    0.627613 0.606515 0.171951 0.147042
H13   H     H_    0.954025 0.647109 0.864007 0.156463
H14   H     H_    0.355304 0.600675 0.146998 0.138956
H15   H     H_    0.076872 0.693632 0.065877 0.142603
N1    N     N_2   0.434800 0.456690 0.470850 -0.173975
N2    N     N_2   0.565200 0.543310 0.529150 -0.163946
N3    N     N_2   0.743642 0.975240 0.441339 -0.266136
O1    O     O_R   0.893060 0.738880 0.507150 -0.568841
O2    O     O_R   0.172250 0.711130 0.488470 -0.627984
O3    O     O_R   0.944700 0.520730 0.667600 -0.612233
O4    O     O_R   0.223890 0.492980 0.648920 -0.614349
O5    O     O_R   0.827750 0.288870 0.511530 -0.629194
O6    O     O_R   0.106940 0.261120 0.492850 -0.630159
O7    O     O_R   0.776110 0.507020 0.351080 -0.614893
O8    O     O_R   0.055300 0.479270 0.332400 -0.618642
Zn1   Zn    Zn3+2 0.813580 0.518530 0.512470 0.943971
Zn2   Zn    Zn3+2 0.186420 0.481470 0.487530 0.926236

loop_
_geom_bond_atom_site_label_1
_geom_bond_atom_site_label_2
_ccdc_geom_bond_type
C1    O2    A    
C2    C4    S    
C13   H14   S    
N1    N2    D    
C6    O6    A    
C14   H6    S    
N1    Zn2   S    
C9    C20   A    
N2    Zn1   S    
C8    C17   A    
C12   C15   A    
O6    Zn2   S    
C16   C20   A    
C3    C5    D    
C17   C18   A    
O8    Zn2   S    
O3    Zn1   S    
C21   H1    S    
H4    N3    S    
C15   C19   A    
C2    C15   A    
C11   C13   A    
C9    C21   A    
C3    H3    S    
C4    O3    A    
C20   H12   S    
O2    Zn2   S    
C11   H15   S    
C4    O4    A    
C8    C21   A    
C5    N3    S    
C5    C6    S    
O7    Zn1   S    
C10   C11   A    
C8    H11   S    
C7    O7    A    
O5    Zn1   S    
C12   C13   A    
H9    N2    S    
C10   H13   S    
C18   C19   A    
H8    N1    S    
C7    C9    S    
O1    Zn1   S    
C19   H2    S    
O4    Zn2   S    
C6    O5    A    
C18   H10   S    
C1    O1    A    
C14   H7    S    
C14   N3    S    
C14   H5    S    
C12   C16   A    
C7    O8    A    
C16   C17   A    
C1    C3    S    
C2    C10   A    
