data_mof_unit_11902.cif
_audit_creation_date              2012-12-10T16:58:23-0500
_audit_creation_method            fapswitch 2.2
_symmetry_space_group_name_H-M    P1
_symmetry_Int_Tables_number       1
_space_group_crystal_system       triclinic
_cell_length_a                    7.732676
_cell_length_b                    8.567689
_cell_length_c                    23.445392
_cell_angle_alpha                 90.941645
_cell_angle_beta                  86.135439
_cell_angle_gamma                 93.676476
_cell_volume                      1546.44878019

loop_
_atom_site_label
_atom_site_type_symbol
_atom_type_description
_atom_site_fract_x
_atom_site_fract_y
_atom_site_fract_z
_atom_type_partial_charge
C1    C     C_R   0.545926 0.794876 0.498531 0.956016
C2    C     C_R   0.332839 0.482379 0.300190 0.387670
C3    C     C_R   0.664657 0.512762 0.759351 0.558342
C4    C     C_R   0.335349 0.487296 0.240648 0.558326
C5    C     C_R   0.506420 0.500151 0.791848 -0.052216
C6    C     C_R   0.493588 0.499922 0.208152 -0.052203
C7    C     C_2   0.570220 0.958292 0.497681 -0.364558
C8    C     C_2   0.429780 0.041708 0.502320 -0.364556
C9    C     C_R   0.503003 0.501107 0.610713 0.976641
C10   C     C_R   0.496997 0.498896 0.389287 0.976644
C11   C     C_R   0.532841 0.366394 0.117926 0.623811
C12   C     C_R   0.454074 0.205124 0.501469 0.956024
C13   C     C_R   0.467171 0.633684 0.882074 0.623824
C14   C     C_R   0.458760 0.633560 0.120874 0.641144
C15   C     C_R   0.541253 0.366518 0.879126 0.641135
C16   C     C_R   0.459497 0.636372 0.061361 -0.040764
C17   C     C_R   0.540517 0.363707 0.938640 -0.040760
C18   C     C_R   0.498917 0.500018 0.029961 -0.008390
C19   C     C_R   0.501097 0.500061 0.970039 -0.008391
C20   C     C_R   0.536175 0.363621 0.058343 -0.035130
C21   C     C_R   0.463839 0.636457 0.941658 -0.035135
C22   C     C_R   0.422162 0.771506 0.032702 -0.140374
C23   C     C_R   0.349517 0.488891 0.765563 0.681945
C24   C     C_R   0.577853 0.228573 0.967298 -0.140374
C25   C     C_R   0.424328 0.771553 0.973308 -0.144772
C26   C     C_R   0.575687 0.228526 0.026692 -0.144774
C27   C     C_3   0.885061 0.688086 0.666020 -0.198065
C28   C     C_3   0.114931 0.311939 0.333963 -0.198059
C29   C     C_R   0.650489 0.511176 0.234438 0.681942
C30   C     C_R   0.350324 0.489436 0.706489 -0.364407
C31   C     C_R   0.649680 0.510605 0.293513 -0.364416
C32   C     C_R   0.508216 0.502398 0.673002 -0.347050
C33   C     C_R   0.491787 0.497625 0.326998 -0.347039
C34   C     C_R   0.667165 0.517654 0.699809 0.387672
F1    F     F_    0.196260 0.475747 0.797424 -0.565223
F2    F     F_    0.803748 0.524334 0.202579 -0.565228
F3    F     F_    0.816068 0.521581 0.785731 -0.569449
F4    F     F_    0.183940 0.478488 0.214267 -0.569460
H1    H     H_    0.390906 0.877302 0.056027 0.195715
H2    H     H_    0.986224 0.620358 0.541697 0.194639
H3    H     H_    0.902084 0.738935 0.709421 0.211820
H4    H     H_    0.796218 0.757715 0.642745 0.129524
H5    H     H_    0.014309 0.696998 0.642331 0.170568
H6    H     H_    0.985695 0.303018 0.357662 0.170561
H7    H     H_    0.203781 0.242277 0.357223 0.129526
H8    H     H_    0.097873 0.261134 0.290558 0.211852
H9    H     H_    0.609109 0.122777 0.943973 0.195716
H10   H     H_    0.394631 0.877379 0.952343 0.193251
H11   H     H_    0.605383 0.122700 0.047657 0.193252
H12   H     H_    0.226871 0.478524 0.687052 0.251796
H13   H     H_    0.773133 0.521513 0.312950 0.251792
H14   H     H_    0.702823 0.009416 0.493248 0.179777
H15   H     H_    0.297177 0.990584 0.506752 0.179776
H16   H     H_    0.013776 0.379643 0.458302 0.194642
N1    N     N_R   0.494962 0.499999 0.147531 -0.310802
N2    N     N_R   0.505050 0.500079 0.852469 -0.310802
N3    N     N_2   0.950330 0.457950 0.484560 -0.157343
N4    N     N_2   0.049670 0.542050 0.515440 -0.157343
O1    O     O_R   0.389250 0.738570 0.503790 -0.619150
O2    O     O_2   0.433520 0.763094 0.853746 -0.511477
O3    O     O_2   0.422999 0.762879 0.152010 -0.500893
O4    O     O_2   0.577013 0.237199 0.847991 -0.500895
O5    O     O_3   0.825079 0.529157 0.668280 -0.556242
O6    O     O_3   0.174926 0.470866 0.331719 -0.556254
O7    O     O_R   0.610750 0.261430 0.496210 -0.619149
O8    O     O_R   0.678390 0.711620 0.493890 -0.635678
O9    O     O_R   0.321610 0.288380 0.506110 -0.635675
O10   O     O_R   0.355400 0.513520 0.588790 -0.626547
O11   O     O_R   0.644600 0.486480 0.411210 -0.626550
O12   O     O_R   0.644550 0.486570 0.578900 -0.576408
O13   O     O_R   0.355450 0.513430 0.421100 -0.576403
O14   O     O_2   0.566491 0.236983 0.146254 -0.511486
Zn1   Zn    Zn3+2 0.306930 0.518000 0.506610 0.972275
Zn2   Zn    Zn3+2 0.693070 0.482000 0.493390 0.972271

loop_
_geom_bond_atom_site_label_1
_geom_bond_atom_site_label_2
_ccdc_geom_bond_type
N3    Zn2   S    
O12   Zn2   S    
C11   O14   S    
C2    C4    A    
C31   C33   A    
C27   H4    S    
O9    Zn1   S    
C12   O7    A    
O1    Zn1   S    
C5    N2    S    
C23   F1    S    
C5    C23   A    
C6    N1    S    
C8    C12   S    
C13   N2    A    
H16   N3    S    
C15   N2    A    
C14   N1    A    
C30   H12   S    
C8    H15   S    
C13   C21   A    
O11   Zn2   S    
C29   C31   A    
C13   O2    S    
C10   O13   A    
C30   C32   A    
C14   O3    S    
C29   F2    S    
C28   H8    S    
N3    N4    D    
C3    C34   A    
C20   C26   A    
C2    O6    S    
C22   H1    S    
C28   O6    S    
C2    C33   A    
C4    C6    A    
C34   O5    S    
C17   C19   A    
C15   O4    S    
C24   C26   A    
C7    H14   S    
C1    O8    A    
C10   C33   S    
C18   C20   A    
C1    O1    A    
C28   H7    S    
C12   O9    A    
C14   C16   A    
C11   C20   A    
C9    O10   A    
C17   C24   A    
H2    N4    S    
C15   C17   A    
O8    Zn2   S    
C23   C30   A    
C27   H5    S    
C7    C8    D    
C6    C29   A    
C11   N1    A    
C9    O12   A    
C3    F3    S    
C16   C18   A    
C18   C19   A    
C26   H11   S    
O13   Zn1   S    
C21   C25   A    
C10   O11   A    
C27   O5    S    
C4    F4    S    
C16   C22   A    
C9    C32   S    
C19   C21   A    
O10   Zn1   S    
C1    C7    S    
C24   H9    S    
C25   H10   S    
C28   H6    S    
O7    Zn2   S    
N4    Zn1   S    
C31   H13   S    
C27   H3    S    
C3    C5    A    
C22   C25   A    
C32   C34   A    
