data_mof_unit_47925.cif
_audit_creation_date              2012-12-11T14:44:28-0500
_audit_creation_method            fapswitch 2.2
_symmetry_space_group_name_H-M    P1
_symmetry_Int_Tables_number       1
_space_group_crystal_system       triclinic
_cell_length_a                    24.901506
_cell_length_b                    16.747435
_cell_length_c                    15.60251
_cell_angle_alpha                 89.998801
_cell_angle_beta                  49.894783
_cell_angle_gamma                 89.989068
_cell_volume                      4976.81940151

loop_
_atom_site_label
_atom_site_type_symbol
_atom_type_description
_atom_site_fract_x
_atom_site_fract_y
_atom_site_fract_z
_atom_type_partial_charge
C1    C     C_R   0.333457 0.110907 0.802634 -0.088300
C2    C     C_3   0.732589 0.746586 0.564503 0.051022
C3    C     C_2   0.255218 0.796799 0.369805 0.451512
C4    C     C_2   0.702516 0.627686 0.364663 0.501257
C5    C     C_2   0.294856 0.370698 0.639357 0.498976
C6    C     C_2   0.301227 0.625431 0.629405 0.503604
C7    C     C_2   0.702044 0.372518 0.365448 0.501278
C8    C     C_3   0.732861 0.253262 0.564179 0.051059
C9    C     C_3   0.265758 0.747324 0.438067 0.051104
C10   C     C_3   0.713396 0.670612 0.436442 0.016738
C11   C     C_3   0.285371 0.328502 0.565457 0.017395
C12   C     C_3   0.288343 0.669415 0.560759 0.016269
C13   C     C_3   0.713195 0.329465 0.436825 0.016818
C14   C     C_2   0.696854 0.148166 0.013388 -0.212664
C15   C     C_2   0.303144 0.851839 0.986615 -0.213058
C16   C     C_2   0.303135 0.148127 0.986640 -0.212196
C17   C     C_R   0.666545 0.889090 0.197367 -0.089210
C18   C     C_2   0.696870 0.851885 0.013345 -0.212592
C19   C     C_2   0.137409 0.767433 0.156866 -0.210328
C20   C     C_2   0.862529 0.232633 0.843305 -0.210684
C21   C     C_2   0.862601 0.767464 0.843110 -0.210272
C22   C     C_2   0.137459 0.232603 0.156718 -0.210584
C23   C     C_2   0.766352 0.140457 0.952354 -0.114191
C24   C     C_2   0.233645 0.859523 0.047650 -0.114679
C25   C     C_2   0.233643 0.140395 0.047676 -0.113872
C26   C     C_2   0.766364 0.859596 0.952302 -0.114278
C27   C     C_2   0.187199 0.809415 0.146155 -0.079703
C28   C     C_R   0.666535 0.110912 0.197386 -0.089476
C29   C     C_2   0.812802 0.190601 0.853898 -0.079984
C30   C     C_2   0.812825 0.809477 0.853794 -0.079937
C31   C     C_2   0.187182 0.190550 0.146131 -0.080470
C32   C     C_R   0.585688 0.149407 0.593575 -0.159438
C33   C     C_R   0.414285 0.850651 0.406370 -0.158700
C34   C     C_R   0.414392 0.149520 0.406514 -0.160209
C35   C     C_R   0.585650 0.850550 0.593544 -0.159500
C36   C     C_R   0.113174 0.611587 0.593077 -0.143223
C37   C     C_R   0.886915 0.388098 0.406933 -0.144531
C38   C     C_R   0.886915 0.611926 0.406938 -0.144585
C39   C     C_R   0.333466 0.889080 0.802607 -0.090757
C40   C     C_R   0.113008 0.387790 0.593047 -0.146359
C41   C     C_R   0.660827 0.149126 0.406916 -0.113157
C42   C     C_R   0.339124 0.850900 0.593052 -0.114230
C43   C     C_R   0.339278 0.149203 0.593132 -0.112313
C44   C     C_R   0.660785 0.850832 0.406898 -0.112987
C45   C     C_R   0.188923 0.608933 0.406657 -0.064548
C46   C     C_R   0.811140 0.390839 0.593360 -0.065838
C47   C     C_R   0.811134 0.609176 0.593363 -0.065955
C48   C     C_R   0.188809 0.390619 0.406619 -0.066286
C49   C     C_R   0.578287 0.107282 0.195623 -0.143647
C50   C     C_R   0.853472 0.648203 0.753267 -0.094990
C51   C     C_R   0.421710 0.892720 0.804379 -0.143232
C52   C     C_R   0.421711 0.107280 0.804379 -0.143502
C53   C     C_R   0.578295 0.892728 0.195612 -0.143118
C54   C     C_R   0.057890 0.644815 0.244133 -0.132919
C55   C     C_R   0.942073 0.355222 0.755962 -0.132961
C56   C     C_R   0.942119 0.644819 0.755843 -0.132540
C57   C     C_R   0.057919 0.355220 0.244060 -0.132507
C58   C     C_R   0.351626 0.127061 0.867632 0.151360
C59   C     C_R   0.648379 0.872942 0.132361 0.151566
C60   C     C_R   0.648366 0.127071 0.132384 0.151557
C61   C     C_R   0.146565 0.351830 0.246634 -0.095832
C62   C     C_R   0.351633 0.872925 0.867614 0.151686
C63   C     C_R   0.886295 0.690937 0.783965 0.147186
C64   C     C_R   0.113758 0.309117 0.215892 0.147195
C65   C     C_R   0.113701 0.690925 0.216037 0.147098
C66   C     C_R   0.886247 0.309126 0.784102 0.147086
C67   C     C_R   0.635157 0.194256 0.500454 0.131015
C68   C     C_R   0.364742 0.805850 0.499463 0.131627
C69   C     C_R   0.365026 0.194455 0.499671 0.130834
C70   C     C_R   0.635088 0.805668 0.500413 0.131350
C71   C     C_R   0.179789 0.630953 0.499806 0.083993
C72   C     C_R   0.146514 0.648193 0.246764 -0.094265
C73   C     C_R   0.820350 0.368529 0.500227 0.084998
C74   C     C_R   0.820345 0.631505 0.500235 0.085059
C75   C     C_R   0.179531 0.368018 0.499726 0.085600
C76   C     C_3   0.338650 0.288022 0.393665 -0.268659
C77   C     C_3   0.661781 0.713206 0.606750 -0.268251
C78   C     C_3   0.661914 0.286505 0.606842 -0.268155
C79   C     C_3   0.337523 0.715026 0.392743 -0.266747
C80   C     C_3   0.784427 0.703507 0.394562 -0.257293
C81   C     C_3   0.215072 0.294830 0.605146 -0.257707
C82   C     C_3   0.216306 0.701205 0.605758 -0.256828
C83   C     C_R   0.853450 0.351839 0.753331 -0.094845
C84   C     C_3   0.784370 0.296708 0.394525 -0.257259
C85   C     C_3   0.748325 0.781550 0.460006 -0.228710
C86   C     C_3   0.252409 0.217697 0.537976 -0.227670
C87   C     C_3   0.250637 0.780501 0.542892 -0.232256
C88   C     C_3   0.748518 0.218507 0.459641 -0.229057
C89   C     C_3   0.300864 0.366102 0.460778 -0.235188
C90   C     C_3   0.698312 0.634237 0.541391 -0.235967
C91   C     C_3   0.698189 0.365627 0.541815 -0.236221
C92   C     C_3   0.302787 0.634831 0.455494 -0.237219
C93   C     C_3   0.677647 0.747772 0.501221 0.173157
C94   C     C_3   0.268541 0.253874 0.433746 0.051106
C95   C     C_3   0.322362 0.252242 0.498950 0.172896
C96   C     C_3   0.322315 0.747814 0.498550 0.173997
C97   C     C_3   0.677698 0.252152 0.501276 0.173326
C98   C     C_3   0.231441 0.330342 0.499726 0.157982
C99   C     C_3   0.768471 0.669234 0.500232 0.157966
C100  C     C_3   0.768495 0.330766 0.500231 0.158040
C101  C     C_3   0.231618 0.668754 0.499795 0.158397
C102  C     C_2   0.261172 0.206289 0.360409 0.449728
C103  C     C_2   0.741295 0.794888 0.635787 0.450375
C104  C     C_2   0.741828 0.204829 0.635068 0.450460
H1    H     H_    0.281131 0.108713 0.829917 0.070677
H2    H     H_    0.441953 0.835956 0.319594 0.098505
H3    H     H_    0.441948 0.164294 0.319790 0.098710
H4    H     H_    0.558050 0.835813 0.680289 0.098597
H5    H     H_    0.092110 0.611256 0.679073 0.082295
H6    H     H_    0.907933 0.388405 0.320960 0.082457
H7    H     H_    0.907931 0.611610 0.320966 0.082459
H8    H     H_    0.092035 0.388079 0.678998 0.082799
H9    H     H_    0.703592 0.164380 0.320573 0.110658
H10   H     H_    0.296385 0.835609 0.679393 0.109779
H11   H     H_    0.296492 0.164438 0.679479 0.111441
H12   H     H_    0.718869 0.891278 0.170092 0.070758
H13   H     H_    0.703552 0.835567 0.320553 0.110768
H14   H     H_    0.237471 0.607778 0.320780 0.082280
H15   H     H_    0.762575 0.392026 0.679219 0.082536
H16   H     H_    0.762565 0.607978 0.679216 0.082598
H17   H     H_    0.237395 0.391860 0.320784 0.083310
H18   H     H_    0.550305 0.102090 0.164322 0.086579
H19   H     H_    0.449686 0.897920 0.835689 0.086496
H20   H     H_    0.449695 0.102075 0.835677 0.086581
H21   H     H_    0.550317 0.897944 0.164306 0.086484
H22   H     H_    0.021820 0.660421 0.230550 0.099757
H23   H     H_    0.718857 0.108730 0.170121 0.070815
H24   H     H_    0.978118 0.339635 0.769601 0.099580
H25   H     H_    0.978218 0.660424 0.769362 0.099836
H26   H     H_    0.021847 0.339633 0.230481 0.099659
H27   H     H_    0.768781 0.842657 0.426861 0.125892
H28   H     H_    0.232611 0.156138 0.569401 0.126136
H29   H     H_    0.229262 0.840925 0.578521 0.125461
H30   H     H_    0.769106 0.157480 0.426171 0.125832
H31   H     H_    0.319165 0.427921 0.429737 0.116989
H32   H     H_    0.679335 0.572887 0.574241 0.117310
H33   H     H_    0.679072 0.426893 0.575002 0.117374
H34   H     H_    0.281145 0.891258 0.829865 0.070952
H35   H     H_    0.322672 0.574160 0.420111 0.117692
H36   H     H_    0.389769 0.285395 0.307051 0.123864
H37   H     H_    0.611067 0.716958 0.693717 0.123363
H38   H     H_    0.611282 0.282556 0.693872 0.123238
H39   H     H_    0.387615 0.720375 0.305338 0.122532
H40   H     H_    0.834952 0.699706 0.307399 0.118364
H41   H     H_    0.164156 0.297408 0.691995 0.118605
H42   H     H_    0.166377 0.695660 0.693289 0.118044
H43   H     H_    0.834817 0.300724 0.307306 0.118306
H44   H     H_    0.211812 0.889279 0.014374 0.124981
H45   H     H_    0.807220 0.664228 0.764782 0.114196
H46   H     H_    0.788180 0.110660 0.985612 0.124864
H47   H     H_    0.788187 0.889361 0.985580 0.124870
H48   H     H_    0.211825 0.110592 0.014415 0.124802
H49   H     H_    0.796299 0.206227 0.806454 0.171705
H50   H     H_    0.203747 0.793767 0.193533 0.170767
H51   H     H_    0.203695 0.206189 0.193547 0.173141
H52   H     H_    0.796282 0.793826 0.806419 0.171827
H53   H     H_    0.324301 0.821748 0.020959 0.133082
H54   H     H_    0.675705 0.178301 0.979060 0.133193
H55   H     H_    0.675727 0.821784 0.978996 0.133303
H56   H     H_    0.192838 0.335819 0.235061 0.115064
H57   H     H_    0.324272 0.178269 0.020975 0.133631
H58   H     H_    0.878273 0.217017 0.891976 0.128953
H59   H     H_    0.121619 0.783080 0.108268 0.128784
H60   H     H_    0.121703 0.216985 0.108067 0.129133
H61   H     H_    0.878388 0.783104 0.891711 0.128953
H62   H     H_    0.299672 0.160610 0.306007 -0.000071
H63   H     H_    0.703761 0.841687 0.688864 0.000446
H64   H     H_    0.704555 0.157742 0.687737 0.000611
H65   H     H_    0.290673 0.845991 0.320341 0.001609
H66   H     H_    0.732341 0.574036 0.320500 -0.015831
H67   H     H_    0.192747 0.664207 0.235299 0.113695
H68   H     H_    0.263937 0.423458 0.685034 -0.015844
H69   H     H_    0.272788 0.570727 0.671629 -0.015645
H70   H     H_    0.731678 0.426301 0.321533 -0.015642
H71   H     H_    0.807197 0.335835 0.764854 0.114048
H72   H     H_    0.558086 0.164130 0.680328 0.098613
N1    N     N_R   0.389620 0.081040 0.705440 -0.042562
N2    N     N_R   0.417680 0.920160 0.443370 -0.044889
N3    N     N_R   0.417680 0.079840 0.443370 -0.044842
N4    N     N_R   0.582320 0.920160 0.556630 -0.044871
N5    N     N_R   0.082320 0.579840 0.556630 -0.037510
N6    N     N_R   0.917680 0.420160 0.443370 -0.037594
N7    N     N_R   0.917680 0.579840 0.443370 -0.037546
N8    N     N_R   0.082320 0.420160 0.556630 -0.037597
N9    N     N_R   0.627920 0.078930 0.443400 -0.054318
N10   N     N_R   0.372080 0.921070 0.556600 -0.054037
N11   N     N_R   0.372080 0.078930 0.556600 -0.054580
N12   N     N_R   0.610380 0.918960 0.294560 -0.042399
N13   N     N_R   0.627920 0.921070 0.443400 -0.054379
N14   N     N_R   0.127920 0.578930 0.443400 -0.045208
N15   N     N_R   0.872080 0.421070 0.556600 -0.045384
N16   N     N_R   0.872080 0.578930 0.556600 -0.045375
N17   N     N_R   0.127920 0.421070 0.443400 -0.045697
N18   N     N_R   0.555090 0.077730 0.294590 -0.035724
N19   N     N_R   0.444910 0.922270 0.705410 -0.035671
N20   N     N_R   0.444910 0.077730 0.705410 -0.035782
N21   N     N_R   0.555090 0.922270 0.294590 -0.035737
N22   N     N_R   0.055090 0.577730 0.294590 -0.045488
N23   N     N_R   0.610380 0.081040 0.294560 -0.042424
N24   N     N_R   0.944910 0.422270 0.705410 -0.045427
N25   N     N_R   0.944910 0.577730 0.705410 -0.045530
N26   N     N_R   0.055090 0.422270 0.294590 -0.045482
N27   N     N_R   0.389620 0.918960 0.705440 -0.042213
N28   N     N_R   0.889620 0.581040 0.705440 -0.052885
N29   N     N_R   0.110380 0.418960 0.294560 -0.052871
N30   N     N_R   0.110380 0.581040 0.294560 -0.052929
N31   N     N_R   0.889620 0.418960 0.705440 -0.052890
N32   N     N_R   0.582320 0.079840 0.556630 -0.044838
Ni1   Ni    Ni4+2 0.382970 0.000000 0.629840 0.213887
Ni2   Ni    Ni4+2 0.617030 0.000000 0.370160 0.213899
Ni3   Ni    Ni4+2 0.882970 0.500000 0.629840 0.217573
Ni4   Ni    Ni4+2 0.117030 0.500000 0.370160 0.217531
Ni5   Ni    Ni4+2 0.514540 0.000000 0.629840 0.214056
Ni6   Ni    Ni4+2 0.485460 0.000000 0.370160 0.214019
Ni7   Ni    Ni4+2 0.014540 0.500000 0.629840 0.211448
Ni8   Ni    Ni4+2 0.985460 0.500000 0.370160 0.211447
O1    O     O_2   0.211772 0.217010 0.362835 -0.598431
O2    O     O_2   0.790671 0.783420 0.633228 -0.597120
O3    O     O_2   0.791114 0.216533 0.632665 -0.597079
O4    O     O_2   0.206756 0.783457 0.370616 -0.596757
O5    O     O_2   0.660555 0.652687 0.355163 -0.560987
O6    O     O_2   0.336870 0.346071 0.648941 -0.561805
O7    O     O_2   0.343313 0.650718 0.638454 -0.560299
O8    O     O_2   0.660075 0.347475 0.356003 -0.561346

loop_
_geom_bond_atom_site_label_1
_geom_bond_atom_site_label_2
_ccdc_geom_bond_type
C45   H14   S    
C25   C31   S    
C73   C100  S    
C8    C78   S    
C33   H2    S    
C103  H63   S    
N32   Ni5   S    
C89   H31   S    
N1    N20   A    
C83   H71   S    
C48   N17   A    
C45   C71   A    
C51   H19   S    
C87   H29   S    
C17   H12   S    
C52   N20   A    
C24   C27   S    
C46   N15   A    
N22   Ni8   S    
N7    N16   A    
N12   N21   A    
C53   C59   A    
C41   C67   A    
C54   C65   A    
C85   H27   S    
C11   C81   S    
C32   H72   S    
C13   C84   S    
C68   C96   S    
C49   C60   A    
C4    H66   S    
C14   H54   S    
C25   H48   S    
C34   H3    S    
C23   C29   S    
C20   C66   S    
N4    Ni5   S    
N4    N13   A    
N15   Ni3   S    
C15   H53   S    
C39   N27   A    
N13   Ni2   S    
C78   H38   S    
C76   C95   S    
C6    C12   S    
N19   N27   A    
C81   C98   S    
N29   Ni4   S    
C17   N12   A    
N8    N17   A    
C7    H70   S    
C16   C25   D    
N24   Ni7   S    
C21   H61   S    
N28   Ni3   S    
C2    C85   S    
C48   C75   A    
C9    C79   S    
N1    Ni1   S    
C47   N16   A    
N31   Ni3   S    
N14   Ni4   S    
N25   Ni7   S    
C83   N31   A    
C18   H55   S    
C86   C94   S    
C102  O1    D    
C43   H11   S    
C66   C83   A    
C91   H33   S    
N12   Ni2   S    
C42   H10   S    
C79   H39   S    
N11   Ni1   S    
C35   C70   A    
C3    O4    D    
C80   H40   S    
N26   N29   A    
C18   C26   D    
C57   N26   A    
C46   H15   S    
C44   C70   A    
C35   H4    S    
C91   C100  S    
C32   N32   A    
C19   C27   D    
C104  O3    D    
C56   H25   S    
C28   H23   S    
C76   C89   S    
C53   H21   S    
C76   C94   S    
C42   N10   A    
C27   H50   S    
C30   H52   S    
C5    O6    D    
C71   C101  S    
C39   H34   S    
C43   C69   A    
C13   C91   S    
N6    Ni8   S    
C50   C63   A    
N9    N32   A    
C34   N3    A    
C51   C62   A    
C85   C93   S    
C82   H42   S    
C20   C29   D    
C28   C60   A    
C77   C90   S    
C28   N23   A    
C21   C63   S    
C22   C31   D    
N2    Ni6   S    
C41   N9    A    
C84   C100  S    
C72   H67   S    
C57   H26   S    
C70   C93   S    
C40   H8    S    
C5    H68   S    
C24   H44   S    
C61   H56   S    
C48   H17   S    
C10   C80   S    
C3    H65   S    
N8    Ni7   S    
C72   N30   A    
C56   N25   A    
C10   C93   S    
C19   H59   S    
C75   C98   S    
C7    O8    D    
C38   N7    A    
C2    C103  S    
C8    C88   S    
C14   C23   D    
C61   C64   A    
N16   Ni3   S    
C80   C85   S    
C3    C9    S    
C44   N13   A    
C104  H64   S    
C54   H22   S    
N5    N14   A    
C11   C89   S    
C55   N24   A    
C43   N11   A    
C20   H58   S    
C87   C96   S    
C78   C97   S    
C82   C87   S    
C79   C92   S    
C56   C63   A    
C12   C82   S    
N5    Ni7   S    
C16   C58   S    
C8    C104  S    
C34   C69   A    
C94   C102  S    
C37   H6    S    
C52   C58   A    
C92   C101  S    
C17   C59   A    
C32   C67   A    
C9    C101  S    
C15   C24   D    
C23   H46   S    
C2    C99   S    
C26   C30   S    
N24   N31   A    
C81   H41   S    
C80   C99   S    
C16   H57   S    
N25   N28   A    
N6    N15   A    
C76   H36   S    
C4    C10   S    
N17   Ni4   S    
C90   C99   S    
C55   C66   A    
C57   C64   A    
C29   H49   S    
C6    O7    D    
C38   C74   A    
C84   H43   S    
C11   C95   S    
N7    Ni8   S    
C39   C62   A    
C37   C73   A    
C47   H16   S    
C33   N2    A    
C49   H18   S    
C82   C101  S    
C12   C92   S    
C12   C96   S    
C26   H47   S    
C84   C88   S    
C47   C74   A    
C41   H9    S    
C69   C95   S    
N18   Ni6   S    
C31   H51   S    
C36   C71   A    
C5    C11   S    
C74   C99   S    
C6    H69   S    
C50   N28   A    
C78   C91   S    
C65   C72   A    
C14   C60   S    
C21   C30   D    
C35   N4    A    
C54   N22   A    
C40   C75   A    
C89   C98   S    
C81   C86   S    
N23   Ni2   S    
C53   N21   A    
C22   H60   S    
C8    C100  S    
C88   C97   S    
C88   H30   S    
C79   C96   S    
C2    C77   S    
C51   N19   A    
C1    C58   A    
C9    C87   S    
N20   Ni5   S    
C52   H20   S    
C50   H45   S    
C86   H28   S    
C44   H13   S    
C37   N6    A    
N3    Ni6   S    
C77   C93   S    
C15   C62   S    
C90   H32   S    
C19   C65   S    
C42   C68   A    
C13   C97   S    
C77   H37   S    
N19   Ni5   S    
C86   C95   S    
C67   C97   S    
C103  O2    D    
C22   C64   S    
N2    N10   A    
N18   N23   A    
N30   Ni4   S    
C18   C59   S    
C7    C13   S    
N3    N11   A    
C55   H24   S    
C10   C90   S    
C102  H62   S    
C49   N18   A    
N10   Ni1   S    
C61   N29   A    
C36   H5    S    
N22   N30   A    
C94   C98   S    
N9    Ni2   S    
N27   Ni1   S    
C36   N5    A    
N26   Ni8   S    
C38   H7    S    
C92   H35   S    
C1    N1    A    
C46   C73   A    
C45   N14   A    
N21   Ni6   S    
C4    O5    D    
C33   C68   A    
C1    H1    S    
C40   N8    A    
