data_mof_unit_45652.cif
_audit_creation_date              2013-03-05T15:42:51-0500
_audit_creation_method            fapswitch 2.2
_symmetry_space_group_name_H-M    P1
_symmetry_Int_Tables_number       1
_space_group_crystal_system       triclinic
_cell_length_a                    28.162261
_cell_length_b                    17.264309
_cell_length_c                    18.144323
_cell_angle_alpha                 90.163191
_cell_angle_beta                  137.670786
_cell_angle_gamma                 89.936346
_cell_volume                      5940.48118695

loop_
_atom_site_label
_atom_site_type_symbol
_atom_site_description
_atom_site_fract_x
_atom_site_fract_y
_atom_site_fract_z
_atom_type_partial_charge
C1    C     C_R   0.686435 0.899256 0.801601 -0.212850
C2    C     C_R   0.327152 0.085581 0.183991 -0.191153
C3    C     C_R   0.329477 0.916281 0.183865 -0.194158
C4    C     C_R   0.686128 0.100091 0.803113 -0.189988
C5    C     C_R   0.186434 0.399258 0.801603 -0.212899
C6    C     C_R   0.827155 0.585580 0.183989 -0.191104
C7    C     C_R   0.829463 0.416307 0.183874 -0.194569
C8    C     C_R   0.186191 0.600217 0.802905 -0.190373
H1    H     H_    0.736662 0.928708 0.855953 0.126029
H2    H     H_    0.274759 0.061654 0.121653 0.124255
H3    H     H_    0.277437 0.940571 0.120180 0.118128
H4    H     H_    0.736344 0.070800 0.857089 0.121789
H5    H     H_    0.236659 0.428717 0.855962 0.126058
H6    H     H_    0.774759 0.561660 0.121649 0.124308
H7    H     H_    0.777412 0.440579 0.120247 0.118226
H8    H     H_    0.236394 0.570903 0.856856 0.121857
N1    N     N_R   0.625380 0.928280 0.709340 -0.059260
N2    N     N_R   0.374620 0.071720 0.290660 -0.061814
N3    N     N_R   0.374620 0.928280 0.290660 -0.061301
N4    N     N_R   0.625380 0.071720 0.709340 -0.062027
N5    N     N_R   0.125380 0.428280 0.709340 -0.059276
N6    N     N_R   0.874620 0.571720 0.290660 -0.061813
N7    N     N_R   0.874620 0.428280 0.290660 -0.061320
N8    N     N_R   0.125380 0.571720 0.709340 -0.061975
C9    C     C_R   0.350491 0.084247 0.474564 -0.119187
C10   C     C_R   0.674160 0.896628 0.594773 -0.097848
C11   C     C_R   0.674104 0.103569 0.594597 -0.101211
C12   C     C_R   0.350905 0.916406 0.475376 -0.125800
C13   C     C_R   0.850560 0.584181 0.474700 -0.119239
C14   C     C_R   0.174170 0.396629 0.594815 -0.097653
C15   C     C_R   0.174101 0.603570 0.594584 -0.101098
C16   C     C_R   0.850875 0.416369 0.475317 -0.125959
H9    H     H_    0.300559 0.059596 0.432343 0.098243
H10   H     H_    0.724514 0.925663 0.656157 0.088596
H11   H     H_    0.724524 0.074841 0.655975 0.090235
H12   H     H_    0.301089 0.941098 0.433489 0.097426
H13   H     H_    0.800631 0.559538 0.432503 0.098291
H14   H     H_    0.224519 0.425673 0.656204 0.088568
H15   H     H_    0.224522 0.574843 0.655948 0.090237
H16   H     H_    0.801043 0.441038 0.433391 0.097444
N9    N     N_R   0.386100 0.070250 0.452470 -0.048535
N10   N     N_R   0.613900 0.929750 0.547530 -0.051007
N11   N     N_R   0.613900 0.070250 0.547530 -0.051177
N12   N     N_R   0.386100 0.929750 0.452470 -0.049615
N13   N     N_R   0.886100 0.570250 0.452470 -0.048573
N14   N     N_R   0.113900 0.429750 0.547530 -0.050999
N15   N     N_R   0.113900 0.570250 0.547530 -0.051183
N16   N     N_R   0.886100 0.429750 0.452470 -0.049614
C17   C     C_R   0.439716 0.831174 0.573397 -0.052367
C18   C     C_R   0.592857 0.196621 0.507753 -0.049772
C19   C     C_R   0.593045 0.803323 0.508256 -0.053086
C20   C     C_R   0.439245 0.169769 0.572538 -0.042772
C21   C     C_R   0.939702 0.331156 0.573369 -0.052469
C22   C     C_R   0.092860 0.696627 0.507779 -0.049863
C23   C     C_R   0.093065 0.303320 0.508316 -0.052932
C24   C     C_R   0.939376 0.669627 0.572772 -0.041819
H17   H     H_    0.478312 0.788492 0.632076 0.140072
H18   H     H_    0.569668 0.252360 0.491275 0.183523
H19   H     H_    0.569998 0.747542 0.492207 0.184171
H20   H     H_    0.477589 0.212974 0.630776 0.141080
H21   H     H_    0.978303 0.288481 0.632058 0.140080
H22   H     H_    0.069689 0.752363 0.491398 0.183397
H23   H     H_    0.070034 0.247539 0.492303 0.184244
H24   H     H_    0.977837 0.712703 0.631201 0.140420
N17   N     N_R   0.437800 0.869550 0.507970 -0.034207
N18   N     N_R   0.562200 0.130450 0.492030 -0.063006
N19   N     N_R   0.562200 0.869550 0.492030 -0.064050
N20   N     N_R   0.437800 0.130450 0.507970 -0.035959
N21   N     N_R   0.937800 0.369550 0.507970 -0.034225
N22   N     N_R   0.062200 0.630450 0.492030 -0.063069
N23   N     N_R   0.062200 0.369550 0.492030 -0.064006
N24   N     N_R   0.937800 0.630450 0.507970 -0.035734
C25   C     C_R   0.604658 0.193661 0.713074 0.316808
C26   C     C_R   0.415617 0.828567 0.273645 0.352412
C27   C     C_R   0.413728 0.172715 0.273016 0.359065
C28   C     C_R   0.604671 0.805987 0.711397 0.312508
C29   C     C_R   0.104738 0.693792 0.712762 0.316860
C30   C     C_R   0.915623 0.328625 0.273613 0.352532
C31   C     C_R   0.913739 0.672695 0.273009 0.359232
C32   C     C_R   0.104671 0.305985 0.711391 0.312487
N25   N     N_R   0.573690 0.128980 0.653840 -0.101394
N26   N     N_R   0.426310 0.871020 0.346160 -0.088427
N27   N     N_R   0.426310 0.128980 0.346160 -0.091473
N28   N     N_R   0.573690 0.871020 0.653840 -0.101176
N29   N     N_R   0.073690 0.628980 0.653840 -0.101515
N30   N     N_R   0.926310 0.371020 0.346160 -0.088445
N31   N     N_R   0.926310 0.628980 0.346160 -0.091408
N32   N     N_R   0.073690 0.371020 0.653840 -0.101182
C33   C     C_R   0.674581 0.822905 0.804059 -0.022365
C34   C     C_R   0.352928 0.145160 0.171151 -0.017162
C35   C     C_R   0.356228 0.857329 0.171581 -0.043619
C36   C     C_R   0.674314 0.176241 0.806692 -0.000482
C37   C     C_R   0.174581 0.322905 0.804055 -0.022348
C38   C     C_R   0.852937 0.645143 0.171144 -0.017269
C39   C     C_R   0.856196 0.357372 0.171558 -0.043101
C40   C     C_R   0.174452 0.676454 0.806304 -0.000703
C41   C     C_R   0.387120 0.140482 0.557121 0.015082
C42   C     C_R   0.663326 0.817197 0.575821 0.023697
C43   C     C_R   0.663119 0.182939 0.575177 0.016455
C44   C     C_R   0.387745 0.860756 0.558261 0.018565
C45   C     C_R   0.887260 0.640331 0.557376 0.014710
C46   C     C_R   0.163349 0.317196 0.575914 0.023610
C47   C     C_R   0.163118 0.682943 0.575174 0.016563
C48   C     C_R   0.887712 0.360715 0.558198 0.018617
Ni1   Ni    Ni4+2 0.616560 1.000000 0.627280 0.186521
Ni2   Ni    Ni4+2 0.383440 0.000000 0.372720 0.212838
Ni3   Ni    Ni4+2 0.116560 0.500000 0.627280 0.186515
Ni4   Ni    Ni4+2 0.883440 0.500000 0.372720 0.212820
Ni5   Ni    Ni4+2 0.497990 0.870580 0.500000 0.311277
Ni6   Ni    Ni4+2 0.502010 0.129420 0.500000 0.312124
Ni7   Ni    Ni4+2 0.997990 0.370580 0.500000 0.311236
Ni8   Ni    Ni4+2 0.002010 0.629420 0.500000 0.312258
C49   C     C_3   0.712595 0.261000 0.957610 0.742742
C50   C     C_3   0.328276 0.781401 0.011905 0.736840
C51   C     C_3   0.325947 0.217473 0.012238 0.738847
C52   C     C_3   0.710251 0.743211 0.955920 0.738972
C53   C     C_3   0.212482 0.761516 0.956859 0.742183
C54   C     C_3   0.827886 0.281678 0.011451 0.737551
C55   C     C_3   0.825941 0.717441 0.012199 0.738875
C56   C     C_3   0.210228 0.243197 0.955890 0.738928
C57   C     C_3   0.285376 0.735524 0.065600 -0.323681
C58   C     C_3   0.753454 0.305662 0.900100 -0.325913
C59   C     C_3   0.751626 0.692641 0.901422 -0.330614
C60   C     C_3   0.283794 0.268125 0.065434 -0.344009
C61   C     C_3   0.785722 0.235281 0.066111 -0.323765
C62   C     C_3   0.254086 0.805652 0.900321 -0.324437
C63   C     C_3   0.251647 0.192658 0.901448 -0.330479
C64   C     C_3   0.783830 0.768123 0.065450 -0.344039
H25   H     H_    0.297463 0.707514 0.133001 0.193538
H26   H     H_    0.739195 0.331612 0.829851 0.178317
H27   H     H_    0.737771 0.663762 0.832717 0.180094
H28   H     H_    0.297341 0.297444 0.133646 0.192945
H29   H     H_    0.798171 0.207154 0.133779 0.193874
H30   H     H_    0.240273 0.831514 0.830419 0.178527
H31   H     H_    0.237815 0.163785 0.832760 0.180142
H32   H     H_    0.797400 0.797450 0.133676 0.192972
C65   C     C_3   0.313263 0.814528 0.071051 -0.063000
C66   C     C_3   0.726558 0.227169 0.897411 -0.021425
C67   C     C_3   0.725577 0.772994 0.896149 -0.037828
C68   C     C_3   0.309932 0.187858 0.071138 -0.026226
C69   C     C_3   0.813150 0.314500 0.071085 -0.062833
C70   C     C_3   0.226713 0.727371 0.897132 -0.020554
C71   C     C_3   0.225572 0.272998 0.896150 -0.037893
C72   C     C_3   0.809944 0.687843 0.071130 -0.026197
C73   C     C_3   0.738807 0.340178 0.961218 -0.281372
C74   C     C_3   0.300934 0.701838 0.006215 -0.236320
C75   C     C_3   0.300290 0.298571 0.005948 -0.297448
C76   C     C_3   0.735666 0.662551 0.961935 -0.210912
C77   C     C_3   0.239163 0.840488 0.960946 -0.281117
C78   C     C_3   0.801001 0.201905 0.006224 -0.235738
C79   C     C_3   0.800308 0.798550 0.005932 -0.297507
C80   C     C_3   0.235668 0.162548 0.961930 -0.210870
H33   H     H_    0.713672 0.397139 0.942978 0.171577
H34   H     H_    0.326574 0.645425 0.023767 0.171672
H35   H     H_    0.326841 0.354045 0.022838 0.171713
H36   H     H_    0.709054 0.606988 0.944566 0.170116
H37   H     H_    0.214231 0.897612 0.942667 0.171446
H38   H     H_    0.826777 0.145643 0.023613 0.171571
H39   H     H_    0.826868 0.854015 0.022812 0.171691
H40   H     H_    0.209067 0.106974 0.944557 0.170059
C81   C     C_R   0.717024 0.756961 0.627437 0.114455
C82   C     C_R   0.375898 0.163425 0.621132 0.129391
C83   C     C_R   0.376429 0.838125 0.622136 0.121460
C84   C     C_R   0.716629 0.243456 0.626199 0.103557
C85   C     C_R   0.217056 0.256964 0.627583 0.114379
C86   C     C_R   0.876046 0.663256 0.621403 0.129580
C87   C     C_R   0.876394 0.338079 0.622067 0.121474
C88   C     C_R   0.216625 0.743462 0.626186 0.103468
C89   C     C_R   0.386846 0.261962 0.728315 -0.227846
C90   C     C_R   0.739244 0.629219 0.603037 -0.213239
C91   C     C_R   0.738578 0.371179 0.601732 -0.214480
C92   C     C_R   0.386956 0.739610 0.728338 -0.198681
C93   C     C_R   0.886914 0.761856 0.728444 -0.227913
C94   C     C_R   0.239258 0.129250 0.603098 -0.213065
C95   C     C_R   0.238573 0.871190 0.601723 -0.214588
C96   C     C_R   0.886940 0.239579 0.728301 -0.198673
C97   C     C_R   0.410498 0.228860 0.690365 -0.146453
C98   C     C_R   0.696865 0.678931 0.595047 -0.143521
C99   C     C_R   0.696231 0.321304 0.593510 -0.142795
C100  C     C_R   0.411075 0.772997 0.691381 -0.165558
C101  C     C_R   0.910635 0.728697 0.690624 -0.146753
C102  C     C_R   0.196906 0.178932 0.595205 -0.143529
C103  C     C_R   0.196222 0.821308 0.593483 -0.142092
C104  C     C_R   0.911042 0.272952 0.691314 -0.165640
C105  C     C_R   0.326846 0.123445 0.607890 -0.255742
C106  C     C_R   0.786466 0.778794 0.691883 -0.299488
C107  C     C_R   0.786162 0.222035 0.690829 -0.240534
C108  C     C_R   0.326875 0.877692 0.608115 -0.253783
C109  C     C_R   0.826942 0.623318 0.608074 -0.255771
C110  C     C_R   0.286486 0.278812 0.691986 -0.299445
C111  C     C_R   0.286160 0.722046 0.690821 -0.240962
C112  C     C_R   0.826850 0.377655 0.608063 -0.253866
C113  C     C_R   0.300177 0.158633 0.640293 0.178202
C114  C     C_R   0.827054 0.731390 0.693537 0.181139
C115  C     C_R   0.826769 0.269624 0.692795 0.174902
C116  C     C_R   0.299817 0.842249 0.639621 0.172788
C117  C     C_R   0.800207 0.658563 0.640340 0.178214
C118  C     C_R   0.327035 0.231450 0.693521 0.181052
C119  C     C_R   0.326774 0.769644 0.692806 0.174832
C120  C     C_R   0.799810 0.342228 0.639605 0.172846
H41   H     H_    0.804768 0.836941 0.724438 0.122930
H42   H     H_    0.302835 0.070526 0.560347 0.111756
H43   H     H_    0.302788 0.930404 0.560568 0.112110
H44   H     H_    0.804554 0.164008 0.723309 0.119215
H45   H     H_    0.304787 0.336957 0.724553 0.122926
H46   H     H_    0.802935 0.570398 0.560534 0.111749
H47   H     H_    0.802758 0.430361 0.560503 0.112106
H48   H     H_    0.304554 0.664020 0.723304 0.119336
H49   H     H_    0.645575 0.657890 0.552493 0.156893
H50   H     H_    0.451796 0.258905 0.708492 0.145688
H51   H     H_    0.452752 0.743326 0.710157 0.153677
H52   H     H_    0.644858 0.342102 0.550756 0.157051
H53   H     H_    0.145633 0.157875 0.552707 0.156924
H54   H     H_    0.951962 0.758713 0.708803 0.145244
H55   H     H_    0.952710 0.243271 0.710070 0.153659
H56   H     H_    0.144843 0.842101 0.550709 0.157222
H57   H     H_    0.909541 0.816383 0.772526 0.133890
H58   H     H_    0.219427 0.072276 0.566060 0.132612
H59   H     H_    0.218613 0.927984 0.564623 0.132792
H60   H     H_    0.909630 0.185223 0.772332 0.141228
H61   H     H_    0.409480 0.316481 0.772416 0.134031
H62   H     H_    0.719415 0.572242 0.566009 0.132605
H63   H     H_    0.718619 0.427974 0.564635 0.132751
H64   H     H_    0.409646 0.685253 0.772366 0.141263
N33   N     N_R   0.575707 0.269620 0.668580 0.214227
O1    O     O_R   0.520335 0.278296 0.563755 -0.390744
O2    O     O_R   0.599546 0.329336 0.731831 -0.386701
N34   N     N_R   0.444551 0.753191 0.295279 0.212728
O3    O     O_R   0.465874 0.732325 0.254575 -0.375288
O4    O     O_R   0.441307 0.702014 0.343859 -0.363107
N35   N     N_R   0.443407 0.247788 0.295647 0.212368
O5    O     O_R   0.463872 0.268685 0.253759 -0.378809
O6    O     O_R   0.441124 0.298944 0.345670 -0.363917
N36   N     N_R   0.574657 0.730286 0.666013 0.216880
O7    O     O_R   0.599507 0.670033 0.728343 -0.380462
O8    O     O_R   0.518283 0.722089 0.561362 -0.389278
N37   N     N_R   0.075708 0.769686 0.667862 0.214723
O9    O     O_R   0.100784 0.829994 0.730641 -0.386673
O10   O     O_R   0.019701 0.777994 0.563179 -0.390623
N38   N     N_R   0.944663 0.253323 0.295219 0.212573
O11   O     O_R   0.965748 0.232540 0.254134 -0.375398
O12   O     O_R   0.941587 0.202069 0.343937 -0.363575
N39   N     N_R   0.943464 0.747736 0.295632 0.212382
O13   O     O_R   0.963964 0.768545 0.253770 -0.378764
O14   O     O_R   0.941158 0.798964 0.345564 -0.363781
N40   N     N_R   0.074656 0.230284 0.665995 0.216895
O15   O     O_R   0.099544 0.170015 0.728311 -0.380436
O16   O     O_R   0.018265 0.222095 0.561349 -0.389345
O17   O     O_3   0.649414 0.246011 0.923741 -0.613230
C121  C     C_3   0.648741 0.289394 0.988799 -0.208696
H65   H     H_    0.646826 0.352561 0.975062 0.140067
H66   H     H_    0.694804 0.275462 0.077180 0.130793
H67   H     H_    0.600381 0.274330 0.964571 0.170421
O18   O     O_3   0.391958 0.789484 0.045518 -0.582913
C122  C     C_3   0.399620 0.866771 0.030928 -0.166210
H68   H     H_    0.397031 0.908205 0.074945 0.131030
H69   H     H_    0.359519 0.881532 0.942553 0.121565
H70   H     H_    0.452266 0.873332 0.065455 0.176879
O19   O     O_3   0.389857 0.200178 0.049416 -0.585644
C123  C     C_3   0.387591 0.229813 0.974601 -0.177740
H71   H     H_    0.376992 0.293194 0.962054 0.122145
H72   H     H_    0.347833 0.198492 0.895101 0.125741
H73   H     H_    0.439773 0.220587 0.008312 0.174755
O20   O     O_3   0.645590 0.752767 0.919439 -0.604109
C124  C     C_3   0.643667 0.825654 0.952244 -0.256036
H74   H     H_    0.658001 0.873615 0.930688 0.142545
H75   H     H_    0.678644 0.826104 0.041501 0.157121
H76   H     H_    0.589046 0.836422 0.908903 0.177658
O21   O     O_3   0.149023 0.746989 0.922331 -0.613839
C125  C     C_3   0.148209 0.790521 0.987137 -0.209759
H77   H     H_    0.146686 0.853674 0.973715 0.140136
H78   H     H_    0.194000 0.776379 0.075511 0.131052
H79   H     H_    0.099599 0.775826 0.962357 0.170406
O22   O     O_3   0.891352 0.290196 0.044518 -0.583166
C126  C     C_3   0.898501 0.367548 0.029362 -0.166715
H80   H     H_    0.895844 0.408934 0.073337 0.131189
H81   H     H_    0.858166 0.382063 0.940883 0.121847
H82   H     H_    0.951017 0.374481 0.063541 0.176942
O23   O     O_3   0.889834 0.700119 0.049336 -0.585628
C127  C     C_3   0.887554 0.729753 0.974506 -0.177708
H83   H     H_    0.876988 0.793141 0.961999 0.122147
H84   H     H_    0.847767 0.698456 0.894989 0.125686
H85   H     H_    0.939722 0.720494 0.008178 0.174791
O24   O     O_3   0.145552 0.252728 0.919372 -0.604124
C128  C     C_3   0.143601 0.325608 0.952155 -0.256077
H86   H     H_    0.157934 0.373579 0.930610 0.142509
H87   H     H_    0.178563 0.326060 0.041406 0.157142
H88   H     H_    0.088971 0.336357 0.908787 0.177675

loop_
_geom_bond_atom_site_label_1
_geom_bond_atom_site_label_2
_geom_bond_distance
_ccdc_geom_bond_type
C122  H69   1.111622 S    
C70   C74   1.538409 S    
C21   N21   1.326931 A    
C31   N31   1.329248 A    
C11   C43   1.392165 A    
C90   C98   1.387317 A    
O24   C128  1.408508 S    
C24   C45   1.372063 A    
C55   O23   1.410106 S    
C62   C77   1.558057 S    
C114  C117  1.414315 A    
C121  H66   1.112624 S    
C14   H14   1.079726 S    
C92   C119  1.393337 A    
O22   C126  1.408575 S    
C50   C65   1.524608 S    
C2    C34   1.375587 A    
C82   C97   1.410039 A    
C27   C34   1.375416 A    
C24   N24   1.326764 A    
C16   C48   1.400075 A    
C3    N3    1.330339 A    
C101  H54   1.079213 S    
C31   N39   1.427935 S    
C4    H4    1.080843 S    
N3    N26   1.394778 A    
C75   H35   1.109676 S    
N8    N29   1.394775 A    
C68   C80   1.536553 S    
C5    H5    1.080807 S    
N13   Ni4   1.843992 S    
C69   C73   1.544600 S    
C57   H25   1.110323 S    
C121  H67   1.109339 S    
C7    H7    1.075338 S    
C8    H8    1.080814 S    
N36   O8    1.299120 A    
C25   N25   1.331200 A    
N34   O3    1.299833 A    
C50   O18   1.410901 S    
C60   C75   1.549922 S    
C22   C47   1.374494 A    
C9    N9    1.348369 A    
C104  H55   1.079149 S    
N31   Ni8   1.880881 S    
C11   H11   1.079765 S    
C107  H44   1.081697 S    
C12   N12   1.348467 A    
C13   N13   1.348376 A    
C105  H42   1.081892 S    
C81   C106  1.397101 A    
C52   O20   1.413936 S    
C53   O21   1.412077 S    
C74   H34   1.109744 S    
C109  H46   1.081880 S    
C14   C46   1.390984 A    
C85   C110  1.397064 A    
N8    Ni3   1.804183 S    
C63   C71   1.538331 S    
N6    N31   1.393003 A    
N18   Ni6   1.804735 S    
C64   C72   1.535850 S    
C84   C99   1.409665 A    
N22   Ni8   1.804735 S    
C125  H78   1.112608 S    
C95   C103  1.387244 A    
C109  C117  1.388757 A    
C96   C104  1.385542 A    
C91   H63   1.083317 S    
C55   C59   1.542956 S    
C38   C72   1.435076 S    
C53   C70   1.523332 S    
C32   N32   1.330298 A    
C51   O19   1.410107 S    
N11   N18   1.431381 A    
C44   C83   1.465051 S    
C112  C120  1.388864 A    
C45   C86   1.464788 S    
C3    H3    1.075364 S    
C4    N4    1.324727 A    
N3    Ni2   1.804182 S    
C5    N5    1.325455 A    
N25   Ni6   1.880221 S    
C62   H30   1.110237 S    
C128  H87   1.111011 S    
C93   C114  1.393245 A    
C28   N36   1.437982 S    
C34   C68   1.435038 S    
C32   C37   1.375681 A    
C23   N23   1.330490 A    
C113  C118  1.414322 A    
N29   Ni8   1.880221 S    
C94   C102  1.387327 A    
O17   C121  1.408109 S    
C50   C62   1.545345 S    
C21   C48   1.372282 A    
C59   C67   1.538335 S    
C17   H17   1.072188 S    
C60   H28   1.110065 S    
C54   C58   1.545417 S    
C57   C65   1.540669 S    
C26   N34   1.427969 S    
C20   H20   1.072008 S    
C90   H62   1.083300 S    
N32   Ni7   1.880879 S    
C21   H21   1.072190 S    
C61   C69   1.540748 S    
O20   C124  1.408507 S    
C23   H23   1.074093 S    
C24   H24   1.072221 S    
C94   H58   1.083302 S    
C28   C33   1.375671 A    
N5    N32   1.393000 A    
C29   N29   1.331433 A    
N37   O9    1.298378 A    
C91   C99   1.387238 A    
N12   N17   1.431383 A    
C116  C119  1.414340 A    
C89   C97   1.385454 A    
N26   Ni5   1.880223 S    
C126  H82   1.109098 S    
C127  H83   1.112878 S    
C31   C38   1.375405 A    
C6    C38   1.375575 A    
C99   H52   1.079290 S    
C83   C108  1.397453 A    
C79   H39   1.109678 S    
C97   H50   1.079204 S    
N2    Ni2   1.809614 S    
C91   C120  1.394155 A    
C6    H6    1.076184 S    
C87   C104  1.409920 A    
C88   C103  1.409673 A    
N27   Ni6   1.880881 S    
C19   N19   1.330460 A    
C124  H75   1.111012 S    
C9    C41   1.399907 A    
N10   N19   1.429564 A    
C112  H47   1.081840 S    
C32   N40   1.438005 S    
C54   O22   1.410914 S    
C10   N10   1.338480 A    
N40   O15   1.298334 A    
C49   C66   1.523090 S    
C106  C114  1.387284 A    
C25   C36   1.377929 A    
C123  H71   1.112880 S    
C82   C105  1.397468 A    
C53   C77   1.532398 S    
C29   C40   1.378212 A    
C1    N1    1.325472 A    
N28   Ni5   1.880879 S    
C86   C109  1.397464 A    
N24   Ni8   1.917743 S    
N30   Ni7   1.880223 S    
C48   C87   1.465012 S    
C7    N7    1.330098 A    
C67   C79   1.546077 S    
N38   O11   1.299847 A    
C8    N8    1.324901 A    
C96   C115  1.393327 A    
C59   C76   1.552701 S    
C57   C74   1.544377 S    
C90   C117  1.394320 A    
O19   C123  1.408668 S    
C9    H9    1.073332 S    
C126  H80   1.112498 S    
C127  H85   1.109109 S    
C54   C69   1.524468 S    
C36   C66   1.435624 S    
C28   N28   1.330310 A    
N34   O4    1.299863 A    
C23   C46   1.374562 A    
C85   C102  1.409363 A    
C63   H31   1.110200 S    
C64   H32   1.110063 S    
N39   O13   1.299891 A    
C6    N6    1.329176 A    
C51   C75   1.540169 S    
C3    C35   1.377808 A    
C49   C73   1.532353 S    
C54   C78   1.540926 S    
N7    N30   1.394778 A    
C102  H53   1.079384 S    
C30   N38   1.427977 S    
O23   C127  1.408666 S    
C52   C67   1.523984 S    
C92   C100  1.385556 A    
C19   C42   1.374604 A    
C122  H70   1.109102 S    
C93   C101  1.385487 A    
C15   N15   1.339185 A    
O21   C125  1.408105 S    
C29   N37   1.437972 S    
C55   C72   1.524247 S    
C16   N16   1.348466 A    
C125  H79   1.109354 S    
C56   C71   1.523990 S    
C26   N26   1.329726 A    
C123  H73   1.109109 S    
C14   N14   1.338459 A    
N9    N20   1.429565 A    
N9    Ni2   1.843992 S    
C18   H18   1.073967 S    
C1    H1    1.080801 S    
C58   C66   1.536134 S    
C52   C76   1.531828 S    
C22   H22   1.074019 S    
C121  H65   1.111682 S    
C62   C70   1.536231 S    
C106  H41   1.081633 S    
C26   C35   1.377373 A    
C128  H86   1.112459 S    
C92   H64   1.084133 S    
C110  H45   1.081635 S    
C30   C39   1.377444 A    
N2    N27   1.393003 A    
C13   C45   1.399913 A    
N35   O6    1.299816 A    
N17   Ni5   1.804736 S    
N14   N23   1.429564 A    
C39   C69   1.437875 S    
N36   O7    1.298334 A    
C95   C116  1.394159 A    
C42   C81   1.467462 S    
C110  C118  1.387251 A    
N4    Ni1   1.804183 S    
C103  H56   1.079291 S    
C78   H38   1.109734 S    
C59   H27   1.110200 S    
C60   C68   1.535837 S    
C127  H84   1.111597 S    
N12   Ni2   1.849297 S    
N1    N28   1.393000 A    
C27   N27   1.329206 A    
N16   Ni4   1.849297 S    
N6    Ni4   1.809614 S    
N7    Ni4   1.804182 S    
N10   Ni1   1.843993 S    
C61   C78   1.544382 S    
C11   N11   1.339159 A    
C56   O24   1.413936 S    
C51   C68   1.524238 S    
C12   H12   1.073101 S    
C94   C113  1.394327 A    
C96   H60   1.084134 S    
C13   H13   1.073322 S    
C125  H77   1.111676 S    
C76   H36   1.109881 S    
C81   C98   1.409365 A    
C77   H37   1.109770 S    
C4    C36   1.368865 A    
C80   H40   1.109881 S    
C2    N2    1.329155 A    
C8    C40   1.369011 A    
N16   N21   1.431383 A    
C72   C76   1.536561 S    
C84   C107  1.397167 A    
C49   O17   1.412064 S    
C66   C78   1.538271 S    
C71   C75   1.546075 S    
C87   C112  1.397440 A    
C18   C43   1.374499 A    
O18   C122  1.408585 S    
C88   C111  1.397173 A    
C17   N17   1.326961 A    
C126  H81   1.111634 S    
C111  C119  1.387724 A    
C128  H88   1.109409 S    
C49   C61   1.523930 S    
C20   C41   1.372032 A    
C51   C63   1.542946 S    
N11   Ni1   1.849296 S    
C58   C73   1.557905 S    
C53   C57   1.524035 S    
N33   O2    1.298574 A    
C35   C65   1.438139 S    
C10   H10   1.079726 S    
C89   H61   1.084165 S    
C33   C67   1.433283 S    
C22   N22   1.329675 A    
C93   H57   1.084162 S    
C124  H74   1.112455 S    
C37   C71   1.433259 S    
C73   H33   1.109756 S    
C12   C44   1.400066 A    
C47   C88   1.467929 S    
N4    N25   1.394775 A    
N13   N24   1.429565 A    
C65   C77   1.544547 S    
C86   C101  1.410021 A    
N19   Ni5   1.917741 S    
C55   C79   1.540180 S    
N40   O16   1.299129 A    
C56   C80   1.531833 S    
C50   C74   1.540890 S    
C123  H72   1.111595 S    
N20   Ni6   1.917743 S    
N39   O14   1.299803 A    
C98   H49   1.079382 S    
N23   Ni7   1.917741 S    
C15   C47   1.392192 A    
C100  H51   1.079150 S    
N15   N22   1.431381 A    
N1    Ni1   1.809618 S    
C63   C80   1.552708 S    
C64   C79   1.549920 S    
N14   Ni3   1.843993 S    
N38   O12   1.299882 A    
N33   O1    1.299000 A    
C27   N35   1.427927 S    
C18   N18   1.329676 A    
N5    Ni3   1.809618 S    
C10   C42   1.391038 A    
C46   C85   1.467439 S    
N15   Ni3   1.849296 S    
N37   O10   1.299046 A    
C19   H19   1.074143 S    
C122  H68   1.112473 S    
C2    H2    1.076191 S    
N35   O5    1.299885 A    
C115  C120  1.414341 A    
C61   H29   1.110291 S    
C1    C33   1.369038 A    
C107  C115  1.387703 A    
C95   H59   1.083318 S    
C105  C113  1.388749 A    
C20   N20   1.326649 A    
C5    C37   1.369051 A    
C7    C39   1.377600 A    
C108  H43   1.081850 S    
C17   C44   1.372316 A    
C25   N33   1.437583 S    
N21   Ni7   1.804736 S    
C30   N30   1.329742 A    
C15   H15   1.079761 S    
C111  H48   1.081695 S    
C16   H16   1.073128 S    
C124  H76   1.109410 S    
C40   C70   1.436361 S    
C43   C84   1.467910 S    
C108  C116  1.388881 A    
C41   C82   1.464760 S    
C52   C64   1.528577 S    
C83   C100  1.409920 A    
C58   H26   1.110249 S    
C56   C60   1.528579 S    
C89   C118  1.393212 A    
