data_mof_unit_40584.cif
_audit_creation_date              2012-12-10T20:30:08-0500
_audit_creation_method            fapswitch 2.2
_symmetry_space_group_name_H-M    P1
_symmetry_Int_Tables_number       1
_space_group_crystal_system       triclinic
_cell_length_a                    9.875232
_cell_length_b                    10.716042
_cell_length_c                    13.040165
_cell_angle_alpha                 90.461656
_cell_angle_beta                  71.08396
_cell_angle_gamma                 88.891532
_cell_volume                      1305.03558672

loop_
_atom_site_label
_atom_site_type_symbol
_atom_type_description
_atom_site_fract_x
_atom_site_fract_y
_atom_site_fract_z
_atom_type_partial_charge
C1    C     C_R   0.501073 0.740161 0.495905 0.909487
C2    C     C_R   0.447471 0.395361 0.975054 0.084615
C3    C     C_R   0.488067 0.398429 0.861133 0.074746
C4    C     C_R   0.555616 0.412727 0.023464 0.084609
C5    C     C_R   0.701001 0.418381 0.957479 0.120931
C6    C     C_R   0.739355 0.386803 0.847989 -0.180115
C7    C     C_R   0.633328 0.372887 0.800720 -0.178893
C8    C     C_R   0.522159 0.437377 0.133862 -0.275403
C9    C     C_R   0.766231 0.498416 0.109102 0.300127
C10   C     C_R   0.382759 0.431085 0.812564 -0.123827
C11   C     C_R   0.400451 0.939194 0.457314 0.092499
C12   C     C_R   0.423856 0.480035 0.701587 0.902616
C13   C     C_R   0.510644 0.871457 0.477564 -0.132804
C14   C     C_R   0.636005 0.932956 0.476006 -0.152219
C15   C     C_R   0.636805 0.062027 0.477143 -0.155826
C16   C     C_R   0.512001 0.128715 0.480536 -0.069930
C17   C     C_R   0.399695 0.066464 0.461913 0.006293
C18   C     C_3   0.240562 0.077464 0.512944 0.037097
C19   C     C_3   0.241563 0.935786 0.506876 0.135731
C20   C     C_R   0.889690 0.540720 0.588956 0.045282
C21   C     C_R   0.964032 0.438223 0.421157 0.446554
C22   C     C_R   0.108267 0.441061 0.419949 -0.136156
C23   C     C_R   0.502510 0.260074 0.496963 0.901266
C24   C     C_R   0.031547 0.539134 0.589865 0.155757
C25   C     C_3   0.009215 0.664506 0.643693 0.201379
C26   C     C_3   0.855492 0.665012 0.643105 -0.454975
C27   C     C_R   0.578697 0.499631 0.295242 0.923712
C28   C     C_R   0.804673 0.460937 0.000620 -0.192895
C29   C     C_R   0.625197 0.480108 0.177623 -0.124306
C30   C     C_R   0.237726 0.420663 0.873095 -0.121816
C31   C     C_R   0.197748 0.390652 0.982286 -0.064135
C32   C     C_R   0.300322 0.383664 0.034500 -0.130526
H1    H     H_    0.730410 0.108336 0.483449 0.201351
H2    H     H_    0.188267 0.124856 0.459620 0.189014
H3    H     H_    0.208690 0.891173 0.587352 0.161896
H4    H     H_    0.191822 0.394446 0.355141 0.160645
H5    H     H_    0.074831 0.735008 0.591206 0.166969
H6    H     H_    0.773693 0.659385 0.724798 0.240215
H7    H     H_    0.850862 0.379305 0.797844 0.179131
H8    H     H_    0.833069 0.737260 0.589757 0.202313
H9    H     H_    0.913522 0.472649 0.948349 0.184051
H10   H     H_    0.413903 0.428485 0.186778 0.171856
H11   H     H_    0.155619 0.435337 0.835883 0.196728
H12   H     H_    0.261589 0.367013 0.120465 0.159354
H13   H     H_    0.086195 0.378206 0.028001 0.188143
H14   H     H_    0.667204 0.344902 0.716252 0.185354
H15   H     H_    0.729340 0.882776 0.481929 0.192104
N1    N     N_R   0.856940 0.500860 0.500710 -0.128478
N2    N     N_R   0.142580 0.500820 0.500710 -0.129395
O1    O     O_R   0.385310 0.683210 0.499990 -0.593247
O2    O     O_R   0.614650 0.683240 0.500000 -0.614262
O3    O     O_R   0.328390 0.499940 0.653610 -0.570770
O4    O     O_R   0.557730 0.499980 0.653620 -0.633802
O5    O     O_R   0.385350 0.316760 0.500000 -0.604503
O6    O     O_R   0.614690 0.316790 0.500010 -0.615098
O7    O     O_R   0.442270 0.500020 0.346380 -0.629777
O8    O     O_R   0.671610 0.500060 0.346390 -0.528749
Zn1   Zn    Zn3+2 0.346870 0.499980 0.499990 1.013238
Zn2   Zn    Zn3+2 0.653130 0.500020 0.500010 1.020000
Br1   Br    Br    0.904596 0.587695 0.154237 -0.402832
Br2   Br    Br    0.176924 0.139212 0.662560 -0.507749
Cl1   Cl    Cl    0.160863 0.879037 0.411576 -0.592840
Cl2   Cl    Cl    0.925297 0.345196 0.323533 -0.586396
Cl3   Cl    Cl    0.022847 0.660066 0.776571 -0.603336

loop_
_geom_bond_atom_site_label_1
_geom_bond_atom_site_label_2
_ccdc_geom_bond_type
C1    C13   S    
C2    C4    A    
C18   Br2   S    
C23   O6    A    
C6    C7    A    
O6    Zn2   S    
C27   C29   S    
C5    C28   A    
C11   C13   A    
C1    O1    A    
C10   C30   A    
C12   O4    A    
C14   C15   A    
C9    C29   A    
C30   C31   A    
C4    C8    A    
C9    Br1   S    
C26   H8    S    
C21   N1    A    
C17   C18   S    
O4    Zn2   S    
C3    C10   A    
C19   H3    S    
C21   C22   A    
C27   O8    A    
C1    O2    A    
C11   C19   S    
C14   H15   S    
C10   C12   S    
N1    Zn2   S    
C22   N2    A    
C8    C29   A    
C12   O3    A    
O7    Zn1   S    
C2    C3    A    
C16   C23   S    
C3    C7    A    
C18   H2    S    
O2    Zn2   S    
C32   H12   S    
C5    C6    A    
O3    Zn1   S    
C16   C17   A    
C30   H11   S    
C21   Cl2   S    
O8    Zn2   S    
C19   Cl1   S    
C31   H13   S    
C15   C16   A    
O1    Zn1   S    
C7    H14   S    
C28   H9    S    
C22   H4    S    
C24   C25   S    
C23   O5    A    
C2    C32   A    
C18   C19   S    
O5    Zn1   S    
C24   N2    A    
C27   O7    A    
C26   H6    S    
C20   N1    A    
C13   C14   A    
C25   H5    S    
C25   C26   S    
C6    H7    S    
C15   H1    S    
C31   C32   A    
C11   C17   A    
N2    Zn1   S    
C20   C24   A    
C9    C28   A    
C8    H10   S    
C4    C5    A    
C20   C26   S    
C25   Cl3   S    
