data_mof_unit_64720.cif
_audit_creation_date              2012-12-10T17:06:02-0500
_audit_creation_method            fapswitch 2.2
_symmetry_space_group_name_H-M    P1
_symmetry_Int_Tables_number       1
_space_group_crystal_system       triclinic
_cell_length_a                    11.54847
_cell_length_b                    10.740245
_cell_length_c                    10.036029
_cell_angle_alpha                 90.48053
_cell_angle_beta                  90.115643
_cell_angle_gamma                 90.125613
_cell_volume                      1244.75341879

loop_
_atom_site_label
_atom_site_type_symbol
_atom_type_description
_atom_site_fract_x
_atom_site_fract_y
_atom_site_fract_z
_atom_type_partial_charge
C1    C     C_R   0.496997 0.262766 0.499253 0.917105
C2    C     C_2   0.532093 0.867644 0.501385 -0.051930
C3    C     C_2   0.519632 0.066654 0.390114 -0.143943
C4    C     C_2   0.485882 0.131295 0.496926 -0.290408
C5    C     C_2   0.554516 0.583697 0.925314 0.154349
C6    C     C_2   0.543258 0.589753 0.075818 -0.175795
C7    C     C_R   0.281959 0.500054 0.499883 0.902817
C8    C     C_R   0.506370 0.737232 0.500535 0.873795
C9    C     C_R   0.718034 0.500063 0.500131 0.899720
C10   C     C_1   0.161482 0.500196 0.499713 -0.186842
C11   C     C_1   0.059315 0.500301 0.499889 0.001382
C12   C     C_1   0.940657 0.500335 0.500223 0.000340
C13   C     C_1   0.838495 0.500252 0.500352 -0.192333
C14   C     C_2   0.510557 0.933042 0.390919 -0.173926
H1    H     H_    0.480120 0.888679 0.299595 0.152432
H2    H     H_    0.549499 0.111542 0.299775 0.165459
H3    H     H_    0.448493 0.087504 0.584000 0.163664
H4    H     H_    0.444344 0.441791 0.897783 0.140944
H5    H     H_    0.576337 0.671833 0.126998 0.163084
H6    H     H_    0.478402 0.419490 0.101081 0.158759
N1    N     N_2   0.501210 0.501330 0.852150 -0.188929
N2    N     N_2   0.501250 0.501360 0.147810 -0.196343
O1    O     O_R   0.499980 0.319060 0.613040 -0.614948
O2    O     O_R   0.500020 0.319100 0.386900 -0.618062
O3    O     O_R   0.334430 0.499990 0.613070 -0.608650
O4    O     O_R   0.334470 0.500030 0.386930 -0.601586
O5    O     O_R   0.499980 0.680900 0.613100 -0.593591
O6    O     O_R   0.500020 0.680940 0.386960 -0.626062
O7    O     O_R   0.665530 0.499970 0.613070 -0.611510
O8    O     O_R   0.665570 0.500010 0.386930 -0.602014
Zn1   Zn    Zn3+2 0.499980 0.499970 0.650990 0.954720
Zn2   Zn    Zn3+2 0.500020 0.500030 0.349010 0.945319
N3    N     N_3   0.589594 0.921663 0.615530 -0.443003
H7    H     H_    0.537185 0.908399 0.699088 0.197254
H8    H     H_    0.666788 0.873113 0.630961 0.190443
N4    N     N_3   0.624677 0.675286 0.860214 -0.405334
H9    H     H_    0.650292 0.744165 0.928335 0.143807
H10   H     H_    0.700335 0.630841 0.828790 0.199816

loop_
_geom_bond_atom_site_label_1
_geom_bond_atom_site_label_2
_ccdc_geom_bond_type
O3    Zn1   S    
C7    C10   S    
C11   C12   S    
O2    Zn2   S    
O4    Zn2   S    
H4    N1    S    
C7    O3    A    
C9    O7    A    
C1    C4    S    
C7    O4    A    
N4    H10   S    
N3    H7    S    
O7    Zn1   S    
O8    Zn2   S    
C6    H5    S    
N1    Zn1   S    
C3    C14   S    
N2    Zn2   S    
C9    O8    A    
C2    C14   D    
C4    H3    S    
C2    N3    S    
N4    H9    S    
N3    H8    S    
H6    N2    S    
C1    O1    A    
C5    C6    S    
C8    O6    A    
C10   C11   T    
O5    Zn1   S    
C3    C4    D    
C6    N2    D    
C5    N4    S    
O6    Zn2   S    
C5    N1    D    
C12   C13   T    
C1    O2    A    
C8    O5    A    
C9    C13   S    
C14   H1    S    
C2    C8    S    
C3    H2    S    
O1    Zn1   S    
