data_mof_unit_52568.cif
_audit_creation_date              2012-12-10T18:23:16-0500
_audit_creation_method            fapswitch 2.2
_symmetry_space_group_name_H-M    P1
_symmetry_Int_Tables_number       1
_space_group_crystal_system       triclinic
_cell_length_a                    27.763373
_cell_length_b                    10.693479
_cell_length_c                    9.52954
_cell_angle_alpha                 89.601779
_cell_angle_beta                  89.650058
_cell_angle_gamma                 90.054533
_cell_volume                      2829.074482

loop_
_atom_site_label
_atom_site_type_symbol
_atom_type_description
_atom_site_fract_x
_atom_site_fract_y
_atom_site_fract_z
_atom_type_partial_charge
C1    C     C_R   0.499851 0.260216 0.499854 0.873554
C2    C     C_R   0.500090 0.739793 0.500182 0.918918
C3    C     C_R   0.101684 0.517803 0.479232 -0.053144
C4    C     C_R   0.898616 0.504266 0.514424 -0.053473
C5    C     C_R   0.126526 0.421454 0.409280 -0.100081
C6    C     C_R   0.872450 0.614076 0.542601 -0.085720
C7    C     C_R   0.100724 0.329590 0.337764 -0.122596
C8    C     C_R   0.896768 0.727895 0.556678 -0.134335
C9    C     C_R   0.127815 0.613510 0.547680 -0.031404
C10   C     C_R   0.873999 0.389368 0.496883 -0.034380
C11   C     C_R   0.354446 0.495126 0.500587 -0.145392
C12   C     C_R   0.645672 0.505713 0.499224 -0.136165
C13   C     C_R   0.975154 0.403180 0.457703 0.082593
C14   C     C_R   0.025294 0.618264 0.541769 0.093105
C15   C     C_R   0.974270 0.622753 0.531301 -0.026791
C16   C     C_R   0.025042 0.413617 0.426699 -0.037796
C17   C     C_R   0.949431 0.510009 0.501779 0.035984
C18   C     C_R   0.050614 0.517040 0.481765 0.036139
C19   C     C_R   0.951096 0.287447 0.457381 -0.159377
C20   C     C_R   0.051509 0.708269 0.616125 -0.173434
C21   C     C_R   0.901418 0.278480 0.479709 -0.041139
C22   C     C_R   0.101798 0.711042 0.614624 -0.048293
C23   C     C_R   0.407640 0.497200 0.500545 0.884588
C24   C     C_R   0.592399 0.503044 0.499407 0.925267
C25   C     C_R   0.050647 0.325720 0.343752 0.355043
C26   C     C_R   0.946820 0.734073 0.547683 0.349753
C27   C     C_3   0.538809 0.041881 0.567439 -0.139530
C28   C     C_3   0.461140 0.958300 0.432810 -0.170850
C29   C     C_3   0.539750 0.958235 0.436439 -0.188757
C30   C     C_3   0.460155 0.041810 0.563989 -0.214499
C31   C     C_3   0.499968 0.876128 0.501755 -0.155051
C32   C     C_3   0.499951 0.123899 0.498490 -0.193774
C33   C     C_3   0.499016 0.959364 0.633525 0.440489
C34   C     C_3   0.500946 0.040599 0.366873 0.364452
C35   C     C_3   0.498304 0.612149 0.048373 -0.100112
C36   C     C_3   0.501679 0.387894 0.951596 -0.109967
C37   C     C_3   0.461701 0.552182 0.950524 -0.121332
C38   C     C_3   0.538283 0.447796 0.049381 -0.107811
C39   C     C_3   0.536690 0.560031 0.948670 0.461771
C40   C     C_3   0.463307 0.439946 0.051287 0.463065
C41   C     C_R   0.176899 0.419871 0.410463 0.697485
C42   C     C_R   0.822073 0.609107 0.547700 0.648509
C43   C     C_R   0.178651 0.602521 0.552945 0.647119
C44   C     C_R   0.823093 0.391778 0.492257 0.699029
C45   C     C_R   0.280738 0.551536 0.380278 0.409612
C46   C     C_R   0.719522 0.454975 0.622381 0.416046
C47   C     C_R   0.330675 0.548742 0.385745 -0.201138
C48   C     C_R   0.669556 0.456860 0.616608 -0.213058
C49   C     C_R   0.327128 0.440341 0.611140 0.228248
C50   C     C_R   0.673013 0.555972 0.385871 0.286033
C51   C     C_R   0.276212 0.443176 0.606788 -0.101590
C52   C     C_R   0.723902 0.551020 0.389116 -0.111869
C53   C     C_R   0.253234 0.499813 0.490069 0.197291
C54   C     C_R   0.746968 0.500774 0.509231 0.191020
Cu1   Cu    Cu3+1 0.500010 0.499990 0.643150 1.079098
Cu2   Cu    Cu3+1 0.499990 0.500010 0.356850 1.080204
H1    H     H_    0.119439 0.260319 0.275446 0.229147
H2    H     H_    0.876748 0.814155 0.568845 0.227079
H3    H     H_    0.649295 0.419244 0.704846 0.224714
H4    H     H_    0.351016 0.590376 0.299961 0.227086
H5    H     H_    0.971467 0.201535 0.450537 0.210448
H6    H     H_    0.033029 0.776530 0.679706 0.190000
N1    N     N_R   0.201653 0.508032 0.483609 -0.433304
N2    N     N_R   0.798605 0.500064 0.518921 -0.434856
N3    N     N_3   0.500040 0.499970 0.858290 -0.244957
N4    N     N_3   0.499960 0.500030 0.141710 -0.242073
O1    O     O_R   0.500020 0.316850 0.620870 -0.600781
O2    O     O_R   0.499980 0.683150 0.379130 -0.598138
O3    O     O_R   0.500000 0.316860 0.379090 -0.502931
O4    O     O_R   0.500000 0.683140 0.620910 -0.508786
O5    O     O_R   0.430270 0.500020 0.620880 -0.536622
O6    O     O_R   0.569730 0.499980 0.379120 -0.531846
O7    O     O_R   0.430250 0.500030 0.379090 -0.565947
O8    O     O_R   0.569750 0.499970 0.620910 -0.564074
O9    O     O_2   0.201120 0.329313 0.341825 -0.475725
O10   O     O_2   0.796546 0.713072 0.577468 -0.484441
O11   O     O_2   0.798078 0.289370 0.454615 -0.451505
O12   O     O_2   0.205135 0.682033 0.629898 -0.467520
Cl1   Cl    Cl    0.356091 0.358733 0.749446 -0.578567
Cl2   Cl    Cl    0.644267 0.629332 0.241518 -0.556051
C55   C     C_2   0.583503 0.083935 0.641194 0.461852
H7    H     H_    0.605118 0.016106 0.697738 0.153279
O13   O     O_2   0.596121 0.193178 0.636753 -0.568632
C56   C     C_2   0.416436 0.916695 0.358881 0.438112
H8    H     H_    0.394639 0.984984 0.303645 0.136482
O14   O     O_2   0.404021 0.807285 0.361726 -0.559666
Cl3   Cl    Cl    0.499555 0.911265 0.812308 -0.431227
Cl4   Cl    Cl    0.501231 0.088012 0.187912 -0.478221
C57   C     C_2   0.416874 0.612963 0.896384 0.509026
H9    H     H_    0.381899 0.576082 0.926456 0.122935
O15   O     O_2   0.419305 0.705156 0.820702 -0.456455
C58   C     C_2   0.582965 0.385574 0.102505 0.497452
H10   H     H_    0.617969 0.417424 0.066049 0.123720
O16   O     O_2   0.580337 0.296588 0.182833 -0.481926
C59   C     C_2   0.495638 0.742846 0.101261 0.638773
H11   H     H_    0.461346 0.781169 0.134199 0.082009
O17   O     O_2   0.531957 0.806605 0.107698 -0.465197
C60   C     C_2   0.504615 0.257281 0.898702 0.638217
H12   H     H_    0.538875 0.219991 0.864047 0.063805
O18   O     O_2   0.468580 0.192341 0.894487 -0.400539
Cl5   Cl    Cl    0.586941 0.644788 0.879380 -0.471008
Cl6   Cl    Cl    0.413047 0.355161 0.120491 -0.477212
C61   C     C_2   0.247699 0.387508 0.724874 0.535606
H13   H     H_    0.264030 0.372854 0.826681 0.152154
O19   O     O_2   0.205813 0.355624 0.710400 -0.520369
C62   C     C_2   0.752489 0.598945 0.267017 0.527263
H14   H     H_    0.737269 0.667083 0.195278 0.150443
O20   O     O_2   0.793146 0.561200 0.242649 -0.518052
Cl7   Cl    Cl    0.747283 0.395623 0.774437 -0.476970
Cl8   Cl    Cl    0.253037 0.623150 0.234835 -0.502901
C63   C     C_2   0.881249 0.150514 0.492579 0.532300
H15   H     H_    0.895069 0.076565 0.426136 0.108201
O21   O     O_2   0.851704 0.124472 0.583631 -0.441032
C64   C     C_2   0.124284 0.821750 0.679916 0.545023
H16   H     H_    0.111841 0.852916 0.782045 0.071670
O22   O     O_2   0.153861 0.884811 0.615692 -0.429307
Cl9   Cl    Cl    0.022675 0.222762 0.224968 -0.537325
Cl10  Cl    Cl    0.970990 0.886163 0.527199 -0.612635
C65   C     C_2   0.585314 0.912905 0.369520 0.535530
H17   H     H_    0.593931 0.938274 0.261945 0.173870
O23   O     O_2   0.613384 0.849198 0.437140 -0.514013
C66   C     C_2   0.414098 0.088168 0.627356 0.579416
H18   H     H_    0.392408 0.155042 0.569694 0.054557
O24   O     O_2   0.400274 0.049313 0.741314 -0.370912

loop_
_geom_bond_atom_site_label_1
_geom_bond_atom_site_label_2
_ccdc_geom_bond_type
Cu1   Cu2   S    
C28   C56   S    
C8    C26   A    
C14   C18   A    
C11   C47   A    
C59   H11   S    
C12   C48   A    
C64   H16   S    
C43   N1    A    
C63   O21   D    
C27   C33   S    
C43   O12   S    
C29   C65   S    
C54   N2    S    
C11   C49   A    
C44   O11   S    
C35   C37   S    
C56   O14   D    
C37   C40   S    
C2    O2    A    
C38   C39   S    
C9    C22   A    
C27   C29   S    
C62   H14   S    
C51   C61   S    
C38   C58   S    
Cu1   O1    S    
C3    C18   A    
C11   C23   S    
C5    C41   A    
C8    H2    S    
C47   H4    S    
Cu1   O8    S    
C30   C66   S    
C49   C51   A    
C37   N3    S    
C50   C52   A    
C31   C33   S    
C39   Cl5   S    
C57   O15   D    
C30   C33   S    
C45   C47   A    
C28   C34   S    
C40   N4    S    
C39   N3    S    
C23   O7    A    
C55   O13   D    
C52   C54   A    
C55   H7    S    
C65   O23   D    
C10   C21   A    
C46   C48   A    
C9    C43   A    
C13   C19   A    
C10   C44   A    
C23   O5    A    
C27   C55   S    
C56   H8    S    
C4    C6    A    
C5    C7    A    
C45   Cl8   S    
C15   C26   A    
C6    C8    A    
C35   N4    S    
Cu2   O6    S    
Cu2   O2    S    
C40   Cl6   S    
C29   C34   S    
C45   C53   A    
C1    C32   S    
C1    O3    A    
C49   Cl1   S    
C25   Cl9   S    
C2    C31   S    
C51   C53   A    
C32   C34   S    
C35   C39   S    
C3    C9    A    
C14   C20   A    
C41   O9    S    
C21   C63   S    
C64   O22   D    
C36   C40   S    
C46   C54   A    
C58   O16   D    
C61   O19   D    
C34   Cl4   S    
C4    C17   A    
C20   C22   A    
Cu2   O3    S    
C60   O18   D    
C13   C16   A    
C41   N1    A    
C66   O24   D    
C44   N2    A    
C42   N2    A    
C24   O6    A    
C48   H3    S    
C16   C25   A    
C15   C17   A    
C38   N4    S    
Cu2   O7    S    
C63   H15   S    
C19   C21   A    
C27   C32   S    
Cu1   N3    S    
C28   C31   S    
C26   Cl10  S    
C3    C5    A    
C50   Cl2   S    
C12   C50   A    
C65   H17   S    
C59   O17   D    
C35   C59   S    
C12   C24   S    
C42   O10   S    
C7    C25   A    
C37   C57   S    
C36   N3    S    
C36   C38   S    
C33   Cl3   S    
C29   C31   S    
C30   C32   S    
C53   N1    S    
C24   O8    A    
C62   O20   D    
C19   H5    S    
Cu2   N4    S    
C28   C30   S    
C58   H10   S    
C1    O1    A    
C20   H6    S    
Cu1   O4    S    
C52   C62   S    
C13   C17   A    
C22   C64   S    
C16   C18   A    
C60   H12   S    
C6    C42   A    
C46   Cl7   S    
C61   H13   S    
C66   H18   S    
C14   C15   A    
C36   C60   S    
C57   H9    S    
C2    O4    A    
C4    C10   A    
C7    H1    S    
Cu1   O5    S    
