data_mof_unit_14771.cif
_audit_creation_date              2012-12-10T19:58:43-0500
_audit_creation_method            fapswitch 2.2
_symmetry_space_group_name_H-M    P1
_symmetry_Int_Tables_number       1
_space_group_crystal_system       triclinic
_cell_length_a                    18.35944
_cell_length_b                    18.378771
_cell_length_c                    22.447849
_cell_angle_alpha                 89.919544
_cell_angle_beta                  90.021572
_cell_angle_gamma                 89.92921
_cell_volume                      7574.4279407

loop_
_atom_site_label
_atom_site_type_symbol
_atom_type_description
_atom_site_fract_x
_atom_site_fract_y
_atom_site_fract_z
_atom_type_partial_charge
C1    C     C_R   0.499974 0.000035 0.340068 0.821076
C2    C     C_R   0.859846 0.639939 0.500100 0.896666
C3    C     C_3   0.342820 0.775325 0.300435 0.082283
C4    C     C_3   0.416947 0.807588 0.284036 -0.341121
C5    C     C_3   0.436763 0.791241 0.219399 -0.896753
C6    C     C_3   0.251268 0.384244 0.312998 0.080712
C7    C     C_3   0.212547 0.458159 0.310278 -0.243248
C8    C     C_3   0.245648 0.509945 0.264573 -1.007214
C9    C     C_3   0.733083 0.149759 0.314595 0.097623
C10   C     C_3   0.669806 0.105823 0.288920 -0.337321
C11   C     C_3   0.678986 0.096618 0.221854 -0.966319
C12   C     C_3   0.170655 0.749725 0.354426 0.127902
C13   C     C_R   0.360847 0.859415 0.500908 0.872770
C14   C     C_3   0.090358 0.728034 0.357706 -0.344434
C15   C     C_3   0.041232 0.794517 0.364617 -0.999105
C16   C     C_3   0.787894 0.867365 0.398852 0.109152
C17   C     C_3   0.772454 0.948423 0.408315 -0.342332
C18   C     C_3   0.837979 0.987829 0.434942 -0.973350
C19   C     C_3   0.869615 0.210066 0.399923 0.117035
C20   C     C_3   0.950125 0.228252 0.408980 -0.348719
C21   C     C_3   0.990418 0.166724 0.440576 -0.976690
C22   C     C_3   0.269677 0.197058 0.347268 0.159633
C23   C     C_3   0.287384 0.115834 0.343402 -0.344271
C24   C     C_R   0.140940 0.361158 0.501339 0.869962
C25   C     C_3   0.218471 0.069631 0.346731 -1.017151
C26   C     C_3   0.363324 0.241153 0.816161 0.085867
C27   C     C_3   0.407563 0.178035 0.790347 -0.320544
C28   C     C_3   0.417992 0.187603 0.723283 -0.966670
C29   C     C_3   0.762624 0.359244 0.816318 0.092353
C30   C     C_3   0.826174 0.402757 0.790450 -0.329606
C31   C     C_3   0.813901 0.417878 0.724333 -0.976933
C32   C     C_3   0.645739 0.765761 0.813921 0.095190
C33   C     C_3   0.601328 0.828924 0.788333 -0.316329
C34   C     C_3   0.581245 0.814373 0.723414 -0.974746
C35   C     C_R   0.359408 0.139504 0.499735 0.848988
C36   C     C_3   0.165079 0.711380 0.808246 0.081991
C37   C     C_3   0.092581 0.674453 0.793985 -0.307636
C38   C     C_3   0.067170 0.690971 0.730850 -0.923350
C39   C     C_3   0.628904 0.300776 0.905170 0.104219
C40   C     C_3   0.548802 0.286607 0.919948 -0.342253
C41   C     C_3   0.513472 0.352300 0.949937 -0.985315
C42   C     C_3   0.303334 0.374514 0.906707 0.120797
C43   C     C_3   0.288389 0.454705 0.920481 -0.355013
C44   C     C_3   0.354822 0.492060 0.947595 -0.984291
C45   C     C_3   0.330091 0.740013 0.871907 0.142685
C46   C     C_R   0.140154 0.639937 0.500506 0.867410
C47   C     C_3   0.412598 0.751546 0.874078 -0.344853
C48   C     C_3   0.453683 0.679260 0.873826 -1.011209
C49   C     C_3   0.703207 0.630147 0.901768 0.108752
C50   C     C_3   0.718313 0.549687 0.914407 -0.340169
C51   C     C_3   0.652524 0.512194 0.942426 -0.983987
C52   C     C_3   0.782467 0.885721 0.607784 0.126121
C53   C     C_3   0.764032 0.941864 0.655643 -0.296119
C54   C     C_3   0.820290 0.002949 0.657265 -0.967472
C55   C     C_3   0.096257 0.787476 0.592526 0.161302
C56   C     C_3   0.105681 0.856016 0.630578 -0.335517
C57   C     C_R   0.639462 0.859360 0.501011 0.892265
C58   C     C_3   0.033199 0.895461 0.639496 -1.019871
C59   C     C_3   0.199581 0.079095 0.552240 0.170268
C60   C     C_3   0.117025 0.084730 0.560881 -0.370329
C61   C     C_3   0.077098 0.028760 0.522789 -1.004012
C62   C     C_3   0.881084 0.223872 0.615042 0.127746
C63   C     C_3   0.929622 0.243956 0.667811 -0.319361
C64   C     C_3   0.990121 0.188117 0.677005 -0.959338
C65   C     C_3   0.333670 0.806514 0.637717 0.150994
C66   C     C_3   0.312878 0.742708 0.678261 -0.348319
C67   C     C_3   0.380063 0.710226 0.708171 -1.006086
C68   C     C_R   0.859387 0.360406 0.500774 0.893173
C69   C     C_3   0.807387 0.657251 0.637221 0.140372
C70   C     C_3   0.755701 0.675826 0.688312 -0.356757
C71   C     C_3   0.736509 0.608264 0.724611 -0.954100
C72   C     C_3   0.654976 0.196826 0.637128 0.141791
C73   C     C_3   0.673624 0.249592 0.687434 -0.354719
C74   C     C_3   0.606319 0.268616 0.724158 -0.957827
C75   C     C_3   0.173200 0.315183 0.638730 0.166237
C76   C     C_3   0.243143 0.300122 0.674065 -0.410393
C77   C     C_3   0.261973 0.365103 0.713602 -0.961961
C78   C     C_3   0.265338 0.351271 0.139092 0.146504
C79   C     C_R   0.139760 0.640402 0.000599 0.882871
C80   C     C_3   0.313337 0.399367 0.098759 -0.384560
C81   C     C_3   0.362442 0.449011 0.135474 -0.974842
C82   C     C_3   0.615216 0.279418 0.109566 0.116248
C83   C     C_3   0.563677 0.261221 0.160864 -0.307094
C84   C     C_3   0.500332 0.314804 0.163741 -0.959842
C85   C     C_3   0.716942 0.613416 0.107377 0.123176
C86   C     C_3   0.736480 0.556630 0.154562 -0.292088
C87   C     C_3   0.680038 0.495742 0.156720 -0.967230
C88   C     C_3   0.423404 0.703107 0.055675 0.152262
C89   C     C_3   0.430711 0.624141 0.076200 -0.353968
C90   C     C_R   0.359795 0.139770 0.000058 0.906259
C91   C     C_3   0.498576 0.588860 0.049236 -1.013016
C92   C     C_3   0.844667 0.304526 0.135926 0.141943
C93   C     C_3   0.826909 0.256249 0.189403 -0.354743
C94   C     C_3   0.895594 0.236492 0.224212 -0.945087
C95   C     C_3   0.280194 0.131965 0.128310 0.116312
C96   C     C_3   0.208518 0.141149 0.162425 -0.345502
C97   C     C_3   0.178228 0.067557 0.181831 -0.994721
C98   C     C_3   0.196013 0.662680 0.138845 0.180845
C99   C     C_3   0.222576 0.720538 0.183074 -0.415697
C100  C     C_3   0.192143 0.796107 0.168742 -0.917490
C101  C     C_R   0.860025 0.359958 0.000106 0.903078
C102  C     C_3   0.711031 0.825217 0.143607 0.103412
C103  C     C_3   0.664323 0.845174 0.197360 -0.329447
C104  C     C_3   0.705298 0.895383 0.239635 -0.940651
C105  C     C_R   0.999997 0.499959 0.340057 0.831039
C106  C     C_R   0.640107 0.860027 0.000150 0.913161
C107  C     C_R   0.859980 0.640080 0.000277 0.894820
C108  C     C_R   0.640210 0.139996 0.000374 0.894598
C109  C     C_R   0.139975 0.359709 0.000299 0.903168
C110  C     C_R   0.360276 0.859560 0.000106 0.860276
C111  C     C_R   0.700349 0.753703 0.457065 -0.145373
C112  C     C_R   0.247328 0.701349 0.458003 -0.158737
C113  C     C_R   0.304974 0.253396 0.462577 -0.158109
C114  C     C_R   0.754691 0.297935 0.455804 -0.145210
C115  C     C_R   0.300820 0.751880 0.458829 -0.101598
C116  C     C_R   0.999870 0.499997 0.840069 0.832759
C117  C     C_R   0.752922 0.700643 0.456490 -0.109906
C118  C     C_R   0.701371 0.245693 0.455888 -0.107676
C119  C     C_R   0.254774 0.307283 0.464266 -0.099528
C120  C     C_R   0.207359 0.259711 0.952991 -0.147991
C121  C     C_R   0.742899 0.204497 0.954267 -0.141656
C122  C     C_R   0.796477 0.743568 0.954454 -0.142765
C123  C     C_R   0.243723 0.809560 0.966019 -0.144356
C124  C     C_R   0.796942 0.256248 0.954484 -0.106104
C125  C     C_R   0.259031 0.206061 0.953134 -0.106581
C126  C     C_R   0.189809 0.758005 0.966686 -0.113204
C127  C     C_R   0.499991 0.000068 0.840058 0.822248
C128  C     C_R   0.744422 0.797363 0.954542 -0.112959
C129  C     C_R   0.692505 0.801008 0.504828 -0.222108
C130  C     C_R   0.196338 0.695124 0.503174 -0.237868
C131  C     C_R   0.303640 0.195159 0.501835 -0.259161
C132  C     C_R   0.801108 0.307224 0.504209 -0.220353
C133  C     C_R   0.308144 0.801399 0.504715 -0.247138
C134  C     C_R   0.800697 0.691994 0.504110 -0.216578
C135  C     C_R   0.691910 0.199319 0.504200 -0.213513
C136  C     C_R   0.199344 0.308773 0.506072 -0.258340
C137  C     C_R   0.193106 0.301164 0.003365 -0.217706
C138  C     C_R   0.500008 0.000164 0.659955 0.806681
C139  C     C_R   0.697589 0.194233 0.003171 -0.221729
C140  C     C_R   0.805766 0.697274 0.002945 -0.212413
C141  C     C_R   0.304179 0.804174 0.002996 -0.259009
C142  C     C_R   0.807426 0.301387 0.003455 -0.217273
C143  C     C_R   0.300151 0.191132 0.003553 -0.214450
C144  C     C_R   0.192409 0.698949 0.005553 -0.246253
C145  C     C_R   0.698140 0.806706 0.003012 -0.198498
C146  C     C_R   0.736222 0.789653 0.556142 0.344281
C147  C     C_R   0.202703 0.743928 0.552235 0.366255
C148  C     C_R   0.246946 0.194109 0.545333 0.384217
C149  C     C_R   0.000299 0.499957 0.659939 0.818556
C150  C     C_R   0.788353 0.265392 0.556370 0.343661
C151  C     C_R   0.261687 0.793223 0.554824 0.369685
C152  C     C_R   0.787765 0.732487 0.556869 0.346076
C153  C     C_R   0.731413 0.213589 0.557179 0.343864
C154  C     C_R   0.200474 0.254721 0.551475 0.371306
C155  C     C_R   0.227765 0.281674 0.057572 0.369439
C156  C     C_R   0.710421 0.236017 0.055216 0.348689
C157  C     C_R   0.762858 0.708797 0.054525 0.327337
C158  C     C_R   0.306354 0.746661 0.045561 0.378585
C159  C     C_R   0.767717 0.287116 0.056294 0.343112
C160  C     C_R   0.000034 0.499640 0.159955 0.818249
C161  C     C_R   0.278728 0.223194 0.058187 0.337284
C162  C     C_R   0.247372 0.698358 0.050141 0.402766
C163  C     C_R   0.711237 0.765763 0.055328 0.316497
C164  C     C_1   0.000030 0.499612 0.276702 -0.171820
C165  C     C_1   0.499623 0.000037 0.276699 -0.172935
C166  C     C_1   0.499985 0.000248 0.776709 -0.152157
C167  C     C_1   0.000124 0.499893 0.776694 -0.169387
C168  C     C_1   0.500001 0.000311 0.723334 -0.166875
C169  C     C_1   0.000412 0.499871 0.723314 -0.175522
C170  C     C_1   0.000109 0.499419 0.223327 -0.170718
C171  C     C_R   0.499601 0.999946 0.159941 0.818367
C172  C     C_1   0.499375 0.999874 0.223320 -0.170451
C173  C     C_3   0.762375 0.701741 0.389811 0.474231
C174  C     C_3   0.330781 0.733375 0.398715 0.489123
C175  C     C_3   0.282323 0.346090 0.410007 0.477746
C176  C     C_3   0.703151 0.233417 0.389749 0.464844
C177  C     C_3   0.267574 0.675659 0.396502 0.491513
C178  C     C_3   0.704347 0.764329 0.390548 0.490949
C179  C     C_3   0.765447 0.291654 0.389226 0.483600
C180  C     C_3   0.339562 0.282518 0.406488 0.503869
C181  C     C_3   0.275218 0.211028 0.887724 0.463629
C182  C     C_R   0.639846 0.140250 0.500295 0.901915
C183  C     C_3   0.792437 0.271530 0.888711 0.465293
C184  C     C_3   0.731084 0.794542 0.888413 0.466751
C185  C     C_3   0.169868 0.767652 0.902152 0.473262
C186  C     C_3   0.728511 0.215043 0.888540 0.480942
C187  C     C_3   0.218525 0.275126 0.887541 0.479662
C188  C     C_3   0.233560 0.824214 0.900366 0.495828
C189  C     C_3   0.788153 0.731024 0.888293 0.483331
C190  C     C_3   0.841920 0.730518 0.311142 0.081464
C191  C     C_3   0.885044 0.667022 0.284682 -0.316296
C192  C     C_3   0.906340 0.683062 0.220287 -0.967919
H1    H     H_    0.696789 0.608544 0.387669 0.152830
H2    H     H_    0.322363 0.589627 0.359081 0.158350
H3    H     H_    0.815642 0.366241 0.698938 0.301093
H4    H     H_    0.856920 0.454503 0.707149 0.266512
H5    H     H_    0.760232 0.444309 0.717115 0.260003
H6    H     H_    0.613174 0.715518 0.807994 0.146159
H7    H     H_    0.696536 0.757988 0.787759 0.134156
H8    H     H_    0.550686 0.835843 0.814782 0.217808
H9    H     H_    0.633059 0.880213 0.790986 0.241495
H10   H     H_    0.631172 0.811985 0.695662 0.299078
H11   H     H_    0.545880 0.858543 0.706338 0.265043
H12   H     H_    0.551165 0.762213 0.719327 0.259813
H13   H     H_    0.612336 0.698317 0.380826 0.140419
H14   H     H_    0.208076 0.683227 0.782245 0.141915
H15   H     H_    0.165559 0.769148 0.792991 0.127305
H16   H     H_    0.099873 0.614827 0.798902 0.225667
H17   H     H_    0.049824 0.692609 0.825627 0.268700
H18   H     H_    0.058236 0.750291 0.725444 0.257613
H19   H     H_    0.014723 0.662909 0.722296 0.281220
H20   H     H_    0.108114 0.671619 0.698116 0.298456
H21   H     H_    0.630528 0.349554 0.876250 0.165471
H22   H     H_    0.658772 0.314196 0.946590 0.139727
H23   H     H_    0.518619 0.274245 0.878264 0.235199
H24   H     H_    0.643016 0.737322 0.317174 0.154042
H25   H     H_    0.544234 0.238853 0.949883 0.223190
H26   H     H_    0.544089 0.367913 0.990611 0.257944
H27   H     H_    0.456734 0.338639 0.962848 0.273850
H28   H     H_    0.512150 0.399267 0.918773 0.264610
H29   H     H_    0.353405 0.372127 0.879296 0.172636
H30   H     H_    0.314734 0.345167 0.948856 0.133811
H31   H     H_    0.273288 0.483634 0.878720 0.236179
H32   H     H_    0.241990 0.459102 0.951885 0.219767
H33   H     H_    0.372686 0.463408 0.988618 0.276631
H34   H     H_    0.340753 0.549112 0.959141 0.270480
H35   H     H_    0.698179 0.382388 0.376655 0.139102
H36   H     H_    0.400490 0.492746 0.915164 0.265052
H37   H     H_    0.317807 0.704877 0.833162 0.170918
H38   H     H_    0.312976 0.709696 0.912258 0.136162
H39   H     H_    0.430019 0.784480 0.835159 0.230139
H40   H     H_    0.427425 0.782075 0.914809 0.200230
H41   H     H_    0.433959 0.643422 0.910209 0.263010
H42   H     H_    0.512704 0.689328 0.880573 0.280473
H43   H     H_    0.446014 0.651119 0.830552 0.271205
H44   H     H_    0.654689 0.632509 0.872586 0.158621
H45   H     H_    0.688711 0.658121 0.943802 0.142028
H46   H     H_    0.739069 0.350420 0.314140 0.158706
H47   H     H_    0.731972 0.521648 0.872019 0.233304
H48   H     H_    0.765593 0.544335 0.944817 0.221615
H49   H     H_    0.636177 0.540190 0.984086 0.262823
H50   H     H_    0.666639 0.454945 0.953285 0.276786
H51   H     H_    0.605865 0.512412 0.910911 0.261942
H52   H     H_    0.787183 0.914494 0.564178 0.136261
H53   H     H_    0.835832 0.860339 0.618898 0.169279
H54   H     H_    0.709559 0.965721 0.646302 0.270644
H55   H     H_    0.762023 0.914704 0.699901 0.206736
H56   H     H_    0.875156 0.980674 0.667539 0.257961
H57   H     H_    0.420600 0.333468 0.456502 0.128711
H58   H     H_    0.805278 0.042867 0.692280 0.274975
H59   H     H_    0.822044 0.031606 0.613676 0.276149
H60   H     H_    0.046686 0.758140 0.607651 0.199692
H61   H     H_    0.085921 0.803116 0.545110 0.095919
H62   H     H_    0.128504 0.841356 0.674856 0.242471
H63   H     H_    0.144564 0.893441 0.608387 0.241704
H64   H     H_    0.007222 0.907512 0.595900 0.272269
H65   H     H_    0.042599 0.947474 0.663389 0.276582
H66   H     H_    0.995572 0.861406 0.666405 0.270119
H67   H     H_    0.218062 0.026229 0.571044 0.182426
H68   H     H_    0.432156 0.337361 0.381648 0.158182
H69   H     H_    0.212800 0.077170 0.503701 0.103407
H70   H     H_    0.103634 0.075638 0.608589 0.237314
H71   H     H_    0.097760 0.139721 0.547842 0.246570
H72   H     H_    0.085785 0.040423 0.474761 0.271804
H73   H     H_    0.017796 0.031118 0.532336 0.276331
H74   H     H_    0.097291 0.973103 0.532444 0.272236
H75   H     H_    0.915728 0.218890 0.574475 0.143205
H76   H     H_    0.855223 0.170393 0.624448 0.170768
H77   H     H_    0.954495 0.298200 0.659841 0.264504
H78   H     H_    0.895968 0.247125 0.708867 0.208422
H79   H     H_    0.208185 0.119531 0.877644 0.158835
H80   H     H_    0.966640 0.133395 0.685536 0.257157
H81   H     H_    0.023996 0.204069 0.715838 0.270163
H82   H     H_    0.025461 0.185801 0.636970 0.293296
H83   H     H_    0.354779 0.851338 0.666026 0.172509
H84   H     H_    0.379506 0.790546 0.607869 0.094088
H85   H     H_    0.274210 0.762119 0.712810 0.228926
H86   H     H_    0.285979 0.699280 0.651931 0.233860
H87   H     H_    0.418456 0.688992 0.674120 0.264430
H88   H     H_    0.363573 0.664466 0.737486 0.262546
H89   H     H_    0.408148 0.752151 0.735194 0.278535
H90   H     H_    0.239983 0.153957 0.813169 0.142067
H91   H     H_    0.857012 0.631309 0.656105 0.172615
H92   H     H_    0.781698 0.615934 0.607457 0.087088
H93   H     H_    0.782192 0.716443 0.717757 0.227348
H94   H     H_    0.704857 0.699889 0.670027 0.231796
H95   H     H_    0.710507 0.566852 0.695615 0.252008
H96   H     H_    0.697559 0.622860 0.760390 0.271600
H97   H     H_    0.786236 0.584884 0.745415 0.288182
H98   H     H_    0.628405 0.148015 0.656664 0.173070
H99   H     H_    0.614134 0.222148 0.606560 0.084321
H100  H     H_    0.715163 0.224204 0.716833 0.226387
H101  H     H_    0.884183 0.204429 0.879586 0.157043
H102  H     H_    0.696705 0.300348 0.668322 0.234362
H103  H     H_    0.564037 0.293654 0.695265 0.252333
H104  H     H_    0.620973 0.308207 0.759407 0.269888
H105  H     H_    0.583921 0.219022 0.745727 0.289289
H106  H     H_    0.127738 0.322527 0.670844 0.170265
H107  H     H_    0.178732 0.367792 0.614683 0.110608
H108  H     H_    0.235680 0.250690 0.701920 0.230707
H109  H     H_    0.289312 0.290598 0.643058 0.219445
H110  H     H_    0.264381 0.415874 0.686764 0.257019
H111  H     H_    0.316191 0.357063 0.734343 0.261844
H112  H     H_    0.722207 0.639228 0.320086 0.130720
H113  H     H_    0.850084 0.235639 0.814743 0.129116
H114  H     H_    0.220475 0.371544 0.749196 0.296213
H115  H     H_    0.298974 0.311568 0.164197 0.178282
H116  H     H_    0.240476 0.386652 0.173195 0.157997
H117  H     H_    0.348226 0.364183 0.070358 0.200772
H118  H     H_    0.278777 0.433583 0.069352 0.261676
H119  H     H_    0.331299 0.496930 0.151427 0.286675
H120  H     H_    0.407892 0.468433 0.107293 0.273235
H121  H     H_    0.385630 0.419671 0.174359 0.267207
H122  H     H_    0.582911 0.282404 0.067580 0.147401
H123  H     H_    0.640216 0.333465 0.118273 0.167147
H124  H     H_    0.797725 0.886736 0.881887 0.155679
H125  H     H_    0.541705 0.205406 0.154763 0.270077
H126  H     H_    0.594171 0.262891 0.203634 0.205194
H127  H     H_    0.520926 0.371075 0.170146 0.256672
H128  H     H_    0.464340 0.300589 0.201754 0.276027
H129  H     H_    0.467853 0.312341 0.122018 0.286235
H130  H     H_    0.710492 0.585076 0.063805 0.139391
H131  H     H_    0.664324 0.639266 0.119878 0.165089
H132  H     H_    0.790582 0.532679 0.144122 0.272354
H133  H     H_    0.739774 0.583201 0.198951 0.206827
H134  H     H_    0.625571 0.518069 0.168178 0.253923
H135  H     H_    0.768373 0.854371 0.815959 0.130102
H136  H     H_    0.695885 0.455181 0.191095 0.275734
H137  H     H_    0.676911 0.467860 0.112909 0.276451
H138  H     H_    0.473939 0.732391 0.068556 0.203120
H139  H     H_    0.420533 0.704983 0.006062 0.106188
H140  H     H_    0.434683 0.622302 0.125591 0.232557
H141  H     H_    0.381788 0.593066 0.062251 0.254452
H142  H     H_    0.493679 0.586281 0.999980 0.278166
H143  H     H_    0.505358 0.532725 0.066555 0.269311
H144  H     H_    0.548017 0.620464 0.061059 0.264103
H145  H     H_    0.872968 0.354118 0.152129 0.174620
H146  H     H_    0.081973 0.830532 0.932398 0.149920
H147  H     H_    0.883805 0.275768 0.105965 0.084847
H148  H     H_    0.788602 0.285600 0.219224 0.229354
H149  H     H_    0.800282 0.205522 0.173721 0.233682
H150  H     H_    0.935316 0.208363 0.194853 0.254498
H151  H     H_    0.881405 0.199401 0.261431 0.269004
H152  H     H_    0.921103 0.286243 0.242952 0.279859
H153  H     H_    0.320425 0.105281 0.158228 0.162503
H154  H     H_    0.272259 0.094281 0.089987 0.099836
H155  H     H_    0.217865 0.175590 0.202304 0.224678
H156  H     H_    0.167571 0.168482 0.133607 0.232364
H157  H     H_    0.089708 0.826822 0.857766 0.135090
H158  H     H_    0.166366 0.033308 0.142267 0.267278
H159  H     H_    0.126865 0.075760 0.207047 0.267836
H160  H     H_    0.217988 0.038764 0.210816 0.272523
H161  H     H_    0.186217 0.611646 0.164120 0.144822
H162  H     H_    0.142017 0.677743 0.119751 0.111609
H163  H     H_    0.204098 0.705160 0.228434 0.205473
H164  H     H_    0.283012 0.722134 0.183656 0.266939
H165  H     H_    0.209827 0.814526 0.123996 0.268119
H166  H     H_    0.211805 0.836100 0.202004 0.246786
H167  H     H_    0.131680 0.795329 0.170390 0.250314
H168  H     H_    0.792225 0.123332 0.870041 0.142619
H169  H     H_    0.725845 0.876357 0.119646 0.110407
H170  H     H_    0.761550 0.797801 0.159655 0.155985
H171  H     H_    0.614095 0.873054 0.181898 0.242318
H172  H     H_    0.648352 0.794866 0.221448 0.221809
H173  H     H_    0.754385 0.867587 0.257482 0.273942
H174  H     H_    0.669207 0.911089 0.277168 0.297992
H175  H     H_    0.722635 0.945269 0.215827 0.253185
H176  H     H_    0.748667 0.160061 0.810477 0.159946
H177  H     H_    0.127116 0.211902 0.867416 0.144136
H178  H     H_    0.164735 0.256248 0.808677 0.161707
H179  H     H_    0.170371 0.915716 0.920436 0.133132
H180  H     H_    0.412980 0.674851 0.442205 0.142511
H181  H     H_    0.189540 0.904063 0.847099 0.163635
H182  H     H_    0.880071 0.795604 0.872884 0.143053
H183  H     H_    0.845509 0.753778 0.811774 0.160071
H184  H     H_    0.873601 0.780926 0.303065 0.145627
H185  H     H_    0.789315 0.737727 0.286978 0.129243
H186  H     H_    0.935290 0.657778 0.311280 0.227152
H187  H     H_    0.851841 0.616595 0.286081 0.236581
H188  H     H_    0.857201 0.695757 0.193488 0.300166
H189  H     H_    0.933762 0.635096 0.200603 0.271813
H190  H     H_    0.944353 0.729993 0.218403 0.253616
H191  H     H_    0.417272 0.671723 0.367311 0.129891
H192  H     H_    0.301518 0.800698 0.271107 0.157602
H193  H     H_    0.341690 0.715733 0.291105 0.127613
H194  H     H_    0.414852 0.867452 0.290192 0.242544
H195  H     H_    0.459982 0.785211 0.313626 0.250412
H196  H     H_    0.438232 0.731566 0.211679 0.257628
H197  H     H_    0.491372 0.813967 0.209348 0.273972
H198  H     H_    0.396430 0.816555 0.188815 0.295332
H199  H     H_    0.234253 0.351773 0.273804 0.131623
H200  H     H_    0.311515 0.389910 0.309270 0.123503
H201  H     H_    0.154598 0.448958 0.298574 0.229270
H202  H     H_    0.331488 0.419713 0.468741 0.143849
H203  H     H_    0.214463 0.484510 0.354694 0.285941
H204  H     H_    0.305906 0.511586 0.268607 0.257815
H205  H     H_    0.223998 0.565630 0.271979 0.294870
H206  H     H_    0.230042 0.493463 0.218970 0.267262
H207  H     H_    0.783366 0.117207 0.307992 0.143295
H208  H     H_    0.740655 0.201111 0.289043 0.137782
H209  H     H_    0.668106 0.051393 0.310461 0.214247
H210  H     H_    0.617263 0.133738 0.297766 0.254336
H211  H     H_    0.673534 0.150119 0.199688 0.303998
H212  H     H_    0.636634 0.059646 0.204186 0.273741
H213  H     H_    0.351220 0.434409 0.396672 0.131340
H214  H     H_    0.733424 0.073681 0.211249 0.252466
H215  H     H_    0.178756 0.781984 0.313151 0.153270
H216  H     H_    0.184076 0.786983 0.391671 0.153924
H217  H     H_    0.075040 0.698264 0.316483 0.220858
H218  H     H_    0.081491 0.691219 0.396160 0.221889
H219  H     H_    0.055912 0.825231 0.405487 0.263466
H220  H     H_    0.983736 0.776737 0.368642 0.286131
H221  H     H_    0.046384 0.830724 0.325185 0.265617
H222  H     H_    0.835364 0.863709 0.368676 0.162105
H223  H     H_    0.804189 0.842081 0.441638 0.140803
H224  H     H_    0.609165 0.298068 0.384851 0.158620
H225  H     H_    0.758773 0.973983 0.364829 0.227856
H226  H     H_    0.725047 0.955349 0.438338 0.221502
H227  H     H_    0.853600 0.963009 0.478218 0.253498
H228  H     H_    0.823956 0.045892 0.442498 0.277859
H229  H     H_    0.885077 0.985121 0.403973 0.260316
H230  H     H_    0.867305 0.160784 0.371724 0.157054
H231  H     H_    0.844480 0.195495 0.443140 0.136956
H232  H     H_    0.976012 0.237941 0.364908 0.228562
H233  H     H_    0.955544 0.278720 0.435586 0.220914
H234  H     H_    0.966496 0.156931 0.485285 0.263191
H235  H     H_    0.641209 0.270222 0.318314 0.130149
H236  H     H_    0.048622 0.181727 0.446040 0.270810
H237  H     H_    0.987191 0.115910 0.413972 0.266719
H238  H     H_    0.244393 0.214081 0.304540 0.143503
H239  H     H_    0.227574 0.206179 0.381908 0.154127
H240  H     H_    0.316159 0.104623 0.300809 0.223100
H241  H     H_    0.323928 0.099928 0.380566 0.231720
H242  H     H_    0.192566 0.075463 0.391180 0.260311
H243  H     H_    0.232546 0.011483 0.339759 0.274770
H244  H     H_    0.178973 0.086806 0.312021 0.279556
H245  H     H_    0.396631 0.291195 0.811589 0.140043
H246  H     H_    0.324675 0.588860 0.434435 0.142559
H247  H     H_    0.313243 0.250128 0.789307 0.149626
H248  H     H_    0.461718 0.175874 0.812433 0.211665
H249  H     H_    0.379391 0.125596 0.798714 0.255742
H250  H     H_    0.365114 0.181128 0.699835 0.282659
H251  H     H_    0.456549 0.146098 0.706304 0.263759
H252  H     H_    0.440426 0.242300 0.713164 0.256466
H253  H     H_    0.712967 0.393250 0.811673 0.142844
H254  H     H_    0.752973 0.309296 0.789571 0.137402
H255  H     H_    0.831176 0.455273 0.814587 0.217029
H256  H     H_    0.877958 0.372219 0.795953 0.248050
N1    N     N_3   0.739986 0.631551 0.363841 -0.434997
N2    N     N_3   0.860677 0.249797 0.858925 -0.437940
N3    N     N_3   0.753030 0.863606 0.860100 -0.436619
N4    N     N_3   0.094957 0.796245 0.896772 -0.446244
N5    N     N_3   0.743794 0.147732 0.855749 -0.409337
N6    N     N_3   0.151646 0.260482 0.853853 -0.416193
N7    N     N_3   0.210621 0.899712 0.890220 -0.405104
N8    N     N_3   0.856444 0.747580 0.857181 -0.413017
N9    N     N_3   0.405949 0.705670 0.403411 -0.437545
N10   N     N_3   0.309534 0.419163 0.425724 -0.450579
N11   N     N_3   0.633035 0.254222 0.362463 -0.430071
N12   N     N_3   0.291767 0.599621 0.397422 -0.422014
N13   N     N_3   0.634526 0.745770 0.362635 -0.413393
N14   N     N_3   0.746337 0.360293 0.359596 -0.408107
N15   N     N_3   0.415375 0.304115 0.416868 -0.409861
N16   N     N_3   0.253769 0.143120 0.857439 -0.433892
O1    O     O_3   0.500000 1.000000 0.500000 -0.505471
O2    O     O_R   0.560750 0.000000 0.867980 -0.627077
O3    O     O_R   0.000000 0.560750 0.867980 -0.643845
O4    O     O_R   0.439250 0.000000 0.867980 -0.623994
O5    O     O_R   0.560720 0.000000 0.632020 -0.654063
O6    O     O_R   0.000000 0.560720 0.632020 -0.648828
O7    O     O_R   0.439280 0.000000 0.632020 -0.629157
O8    O     O_R   0.000000 0.439280 0.632020 -0.653578
O9    O     O_R   0.060720 0.500000 0.132020 -0.641762
O10   O     O_R   0.500000 0.060720 0.132020 -0.642955
O11   O     O_R   0.939280 0.500000 0.132020 -0.657219
O12   O     O_3   0.000000 0.500000 0.500000 -0.500552
O13   O     O_R   0.500000 0.939280 0.132020 -0.649321
O14   O     O_R   0.585450 0.146130 0.465380 -0.619883
O15   O     O_R   0.853870 0.585450 0.465380 -0.624440
O16   O     O_R   0.414550 0.853870 0.465380 -0.609224
O17   O     O_R   0.146130 0.414550 0.465380 -0.609072
O18   O     O_R   0.414550 0.146130 0.465380 -0.617679
O19   O     O_R   0.146130 0.585450 0.465380 -0.625257
O20   O     O_R   0.585450 0.853870 0.465380 -0.619341
O21   O     O_R   0.853870 0.414550 0.465380 -0.622373
O22   O     O_R   0.085450 0.646130 0.965380 -0.608725
O23   O     O_3   0.000000 0.500000 0.000000 -0.502981
O24   O     O_R   0.353870 0.085450 0.965380 -0.628982
O25   O     O_R   0.914550 0.353870 0.965380 -0.626908
O26   O     O_R   0.646130 0.914550 0.965380 -0.629137
O27   O     O_R   0.914550 0.646130 0.965380 -0.624414
O28   O     O_R   0.646130 0.085450 0.965380 -0.623493
O29   O     O_R   0.085450 0.353870 0.965380 -0.627045
O30   O     O_R   0.353870 0.914550 0.965380 -0.607421
O31   O     O_R   0.353850 0.914510 0.534610 -0.635805
O32   O     O_R   0.085490 0.353850 0.534610 -0.634811
O33   O     O_R   0.646150 0.085490 0.534610 -0.630844
O34   O     O_3   0.500000 0.000000 0.000000 -0.505139
O35   O     O_R   0.914510 0.646150 0.534610 -0.633498
O36   O     O_R   0.646150 0.914510 0.534610 -0.637854
O37   O     O_R   0.914510 0.353850 0.534610 -0.634782
O38   O     O_R   0.353850 0.085490 0.534610 -0.626166
O39   O     O_R   0.085490 0.646150 0.534610 -0.634408
O40   O     O_R   0.853850 0.414510 0.034610 -0.632766
O41   O     O_R   0.585490 0.853850 0.034610 -0.626529
O42   O     O_R   0.146150 0.585490 0.034610 -0.639833
O43   O     O_R   0.414510 0.146150 0.034610 -0.628155
O44   O     O_R   0.146150 0.414510 0.034610 -0.634981
O45   O     O_R   0.500000 0.939250 0.367980 -0.633993
O46   O     O_R   0.414510 0.853850 0.034610 -0.641966
O47   O     O_R   0.853850 0.585490 0.034610 -0.635702
O48   O     O_R   0.585490 0.146150 0.034610 -0.639465
O49   O     O_3   0.834357 0.721699 0.373656 -0.649306
O50   O     O_3   0.324327 0.793774 0.359747 -0.627583
O51   O     O_3   0.228297 0.346516 0.364731 -0.629853
O52   O     O_3   0.723612 0.160650 0.376574 -0.646655
O53   O     O_3   0.214454 0.685989 0.350546 -0.649911
O54   O     O_3   0.726760 0.834916 0.370482 -0.644318
O55   O     O_3   0.835730 0.268485 0.368966 -0.634550
O56   O     O_R   0.060750 0.500000 0.367980 -0.654107
O57   O     O_3   0.335188 0.237312 0.354694 -0.621980
O58   O     O_3   0.349214 0.229722 0.877545 -0.649154
O59   O     O_3   0.773766 0.345394 0.877792 -0.648150
O60   O     O_3   0.657703 0.775652 0.875794 -0.651317
O61   O     O_3   0.181168 0.702462 0.869576 -0.639043
O62   O     O_3   0.657233 0.240674 0.872745 -0.637180
O63   O     O_3   0.244550 0.346333 0.872619 -0.642585
O64   O     O_3   0.294794 0.808084 0.863010 -0.623565
O65   O     O_3   0.763446 0.660301 0.870557 -0.637459
O66   O     O_3   0.726964 0.832462 0.606256 -0.635383
O67   O     O_R   0.500000 0.060750 0.367980 -0.628241
O68   O     O_3   0.156081 0.739522 0.600522 -0.637811
O69   O     O_3   0.236591 0.135392 0.583224 -0.601037
O70   O     O_3   0.827812 0.278714 0.607714 -0.640262
O71   O     O_3   0.272084 0.833295 0.606413 -0.627723
O72   O     O_3   0.829406 0.721715 0.607624 -0.630753
O73   O     O_3   0.719535 0.173287 0.608456 -0.631267
O74   O     O_3   0.154272 0.256740 0.600406 -0.619694
O75   O     O_3   0.206507 0.316838 0.109420 -0.641019
O76   O     O_3   0.669308 0.224829 0.105963 -0.637008
O77   O     O_3   0.772807 0.666192 0.104775 -0.638097
O78   O     O_R   0.939250 0.500000 0.367980 -0.620302
O79   O     O_3   0.364156 0.737851 0.084718 -0.619882
O80   O     O_3   0.779376 0.327087 0.107708 -0.627859
O81   O     O_3   0.309220 0.200396 0.111526 -0.638995
O82   O     O_3   0.249227 0.646550 0.094995 -0.614300
O83   O     O_3   0.670947 0.778272 0.106295 -0.623382
O84   O     O_R   0.000000 0.439250 0.867980 -0.624418
Zn1   Zn    Zn3+2 0.586760 0.000000 0.549450 0.952025
Zn2   Zn    Zn3+2 0.913280 0.500000 0.450540 0.992983
Zn3   Zn    Zn3+2 0.500000 0.913280 0.450540 0.987613
Zn4   Zn    Zn3+2 0.086720 0.500000 0.450540 0.971071
Zn5   Zn    Zn3+2 0.000000 0.586720 0.950540 0.984437
Zn6   Zn    Zn3+2 0.413280 1.000000 0.950540 0.994722
Zn7   Zn    Zn3+2 0.000000 0.413280 0.950540 0.991937
Zn8   Zn    Zn3+2 0.586720 1.000000 0.950540 0.991756
Zn9   Zn    Zn3+2 0.000000 0.586760 0.549450 0.949740
Zn10  Zn    Zn3+2 0.413240 0.000000 0.549450 0.963560
Zn11  Zn    Zn3+2 1.000000 0.413240 0.549450 0.949801
Zn12  Zn    Zn3+2 0.086760 0.500000 0.049450 0.959125
Zn13  Zn    Zn3+2 0.500000 0.086760 0.049450 0.961433
Zn14  Zn    Zn3+2 0.913240 0.500000 0.049450 0.952392
Zn15  Zn    Zn3+2 0.500000 0.913240 0.049450 0.952430
Zn16  Zn    Zn3+2 0.500000 0.086720 0.450540 0.989499

loop_
_geom_bond_atom_site_label_1
_geom_bond_atom_site_label_2
_ccdc_geom_bond_type
C150  O70   S    
C173  O49   S    
C6    H199  S    
C132  C150  A    
H168  N5    S    
C186  O62   S    
C127  O2    A    
C191  H187  S    
C19   C20   S    
C133  C151  A    
C98   H161  S    
H2    N12   S    
C41   H26   S    
C181  C187  S    
C107  O47   A    
C77   H111  S    
O34   Zn8   S    
C2    C134  S    
H246  N12   S    
O12   Zn4   S    
C72   H99   S    
C115  C174  S    
C59   O69   S    
C101  O25   A    
C184  O60   S    
C79   O42   A    
C128  C145  A    
O18   Zn16  S    
O19   Zn4   S    
C73   C74   S    
C107  C140  S    
C189  O65   S    
C35   O38   A    
C106  O26   A    
C87   H134  S    
C88   H138  S    
C27   H248  S    
C176  C179  S    
C160  O9    A    
C175  N10   S    
C55   O68   S    
C54   H59   S    
C25   H243  S    
C58   H64   S    
C68   O37   A    
C42   H29   S    
C44   H33   S    
C105  O78   A    
O6    Zn9   S    
O5    Zn1   S    
O37   Zn11  S    
C59   C60   S    
C65   H84   S    
C60   H71   S    
C11   H211  S    
C179  O55   S    
O23   Zn12  S    
C32   O60   S    
C45   C47   S    
C155  O75   S    
C78   O75   S    
C23   H241  S    
C26   H247  S    
C191  C192  S    
C26   H245  S    
C84   H127  S    
C49   H45   S    
C120  C125  A    
C4    C5    S    
C123  C126  A    
C8    H206  S    
C72   O73   S    
C62   O70   S    
C83   H125  S    
C163  O83   S    
C175  O51   S    
C26   O58   S    
C43   C44   S    
C53   H55   S    
C109  O44   A    
C37   C38   S    
C80   H118  S    
C35   O18   A    
C94   H152  S    
C77   H114  S    
O34   Zn13  S    
C123  C141  A    
C26   C27   S    
C105  C164  S    
C36   H14   S    
C174  C177  S    
C6    C7    S    
C37   H16   S    
C51   H50   S    
C93   H149  S    
C41   H28   S    
C122  C189  S    
O24   Zn6   S    
C117  C173  S    
O34   Zn6   S    
C177  O53   S    
C149  O6    A    
C192  H188  S    
C13   C133  S    
C63   H78   S    
C126  C185  S    
C119  C136  A    
C72   C73   S    
C36   O61   S    
C103  H172  S    
C47   H40   S    
C19   H230  S    
C64   H81   S    
O17   Zn4   S    
C2    O35   A    
C147  O68   S    
C39   O62   S    
C185  O61   S    
C16   O54   S    
O22   Zn5   S    
C20   H233  S    
C187  O63   S    
C108  O48   A    
C16   H223  S    
C31   H3    S    
C190  O49   S    
C75   H106  S    
C33   C34   S    
C73   H100  S    
C69   C70   S    
O32   Zn11  S    
C20   C21   S    
C98   C99   S    
C88   O79   S    
C22   C23   S    
C176  O52   S    
O84   Zn7   S    
O56   Zn4   S    
C188  N7    S    
C38   H20   S    
C143  C161  A    
O23   Zn7   S    
C190  C191  S    
C56   H62   S    
C164  C170  T    
C67   H89   S    
C100  H166  S    
C7    C8    S    
C167  C169  T    
C53   C54   S    
C58   H66   S    
C149  C169  S    
C189  N8    S    
C50   H47   S    
C32   H7    S    
H1    N1    S    
O33   Zn1   S    
C29   O59   S    
C78   C80   S    
C94   H150  S    
C185  N4    S    
C78   H115  S    
C89   H140  S    
C68   O21   A    
C137  C155  A    
C138  C168  S    
C192  H189  S    
C72   H98   S    
C85   H131  S    
C64   H80   S    
C81   H120  S    
C62   H76   S    
C99   C100  S    
C34   H12   S    
C162  O82   S    
C109  O29   A    
C89   C91   S    
C9    C10   S    
H79   N16   S    
O23   Zn14  S    
C24   C136  S    
C66   C67   S    
C149  O8    A    
C118  C176  S    
H46   N14   S    
C3    H193  S    
C166  C168  T    
C71   H96   S    
C22   O57   S    
C2    O15   A    
C87   H137  S    
C102  H170  S    
C17   H226  S    
C39   H21   S    
C10   H209  S    
C60   H70   S    
C97   H158  S    
C183  C186  S    
C39   C40   S    
O23   Zn5   S    
C29   H254  S    
O48   Zn13  S    
C145  C163  A    
C55   H61   S    
C73   H102  S    
C110  C141  S    
C147  C151  A    
C29   C30   S    
C101  C142  S    
C190  H184  S    
C83   C84   S    
C82   H123  S    
O43   Zn13  S    
C70   H93   S    
C82   O76   S    
C191  H186  S    
C17   C18   S    
C9    H207  S    
O46   Zn15  S    
C38   H18   S    
H191  N9    S    
C92   H145  S    
O30   Zn6   S    
C106  O41   A    
C95   H153  S    
C46   O39   A    
C15   H221  S    
C54   H56   S    
C104  H173  S    
H112  N1    S    
C45   H38   S    
C67   H87   S    
C3    C4    S    
O11   Zn14  S    
C183  O59   S    
C52   C53   S    
C90   O43   A    
O7    Zn10  S    
C151  O71   S    
C6    H200  S    
O25   Zn7   S    
C130  C147  A    
C59   H69   S    
H90   N16   S    
C90   C143  S    
C98   H162  S    
C65   O71   S    
C108  C139  S    
C4    H194  S    
C77   H110  S    
C23   H240  S    
C116  O3    A    
C24   O32   A    
C84   H129  S    
C111  C117  A    
C121  C139  A    
C91   H144  S    
C63   H77   S    
O10   Zn13  S    
C122  C140  A    
C12   H215  S    
C19   H231  S    
C173  C178  S    
C125  C143  A    
C126  C144  A    
C22   H238  S    
C56   C58   S    
C4    H195  S    
C75   H107  S    
C5    H198  S    
C20   H232  S    
O2    Zn8   S    
C138  O7    A    
C48   H43   S    
C10   C11   S    
C16   H222  S    
C63   C64   S    
C49   C50   S    
C28   H251  S    
C55   H60   S    
C6    O51   S    
C157  O77   S    
O9    Zn12  S    
C86   H132  S    
C42   H30   S    
C69   O72   S    
C44   H34   S    
C116  O84   A    
C174  N9    S    
C43   H31   S    
C161  O81   S    
C55   C56   S    
C178  N13   S    
C79   O22   A    
C40   H25   S    
C65   H83   S    
C96   H155  S    
C18   H227  S    
C11   H214  S    
C99   H164  S    
C97   H160  S    
C100  H167  S    
C142  C159  A    
C52   H53   S    
H224  N11   S    
C30   H255  S    
C155  C161  A    
C15   H220  S    
C106  C145  S    
C148  C154  A    
C102  H169  S    
C74   H103  S    
C84   H128  S    
C49   H44   S    
O4    Zn6   S    
C14   H217  S    
C30   C31   S    
O36   Zn1   S    
C69   H92   S    
H35   N14   S    
O15   Zn2   S    
O78   Zn2   S    
C66   H85   S    
C123  C188  S    
C68   C132  S    
C107  O27   A    
C53   H54   S    
C92   H147  S    
C32   H6    S    
C119  C175  S    
C121  C186  S    
C113  C119  A    
O47   Zn14  S    
O67   Zn16  S    
C111  C129  A    
C114  C132  A    
C16   C17   S    
C150  C153  A    
C104  H175  S    
C70   C71   S    
H13   N13   S    
C152  O72   S    
C159  O80   S    
H181  N7    S    
C8    H204  S    
C96   H156  S    
O39   Zn9   S    
C7    H203  S    
C59   H67   S    
C51   H49   S    
O26   Zn8   S    
C110  O46   A    
C117  C134  A    
O3    Zn5   S    
C76   H109  S    
C41   H27   S    
C5    H196  S    
C51   H51   S    
C52   H52   S    
C125  C181  S    
H183  N8    S    
C97   H159  S    
C91   H142  S    
O1    Zn16  S    
C9    O52   S    
C86   C87   S    
C103  H171  S    
C115  C133  A    
C33   H8    S    
C64   H82   S    
C85   C86   S    
C101  O40   A    
H179  N7    S    
C181  O58   S    
C32   C33   S    
C102  O83   S    
C138  O5    A    
C46   C130  S    
C62   C63   S    
C136  C154  A    
H135  N3    S    
C92   O80   S    
C134  C152  A    
C180  O57   S    
C54   H58   S    
C25   H244  S    
C44   H36   S    
C129  C146  A    
C175  C180  S    
C85   O77   S    
C25   H242  S    
C81   H121  S    
C98   O82   S    
C11   H212  S    
C160  O11   A    
C42   C43   S    
C21   H234  S    
C120  C187  S    
C35   C131  S    
C31   H5    S    
C183  N2    S    
C27   H249  S    
C42   O63   S    
C36   C37   S    
C57   O20   A    
C8    H205  S    
O12   Zn9   S    
C83   H126  S    
C79   C144  S    
H24   N13   S    
O1    Zn10  S    
C50   H48   S    
C49   O65   S    
C80   H117  S    
C188  O64   S    
H202  N10   S    
C176  N11   S    
C94   H151  S    
C127  C166  S    
C78   H116  S    
C92   C93   S    
C192  H190  S    
C65   C66   S    
C122  C128  A    
C158  O79   S    
C85   H130  S    
C179  N14   S    
C154  O74   S    
C81   H119  S    
O12   Zn2   S    
C141  C158  A    
C113  C180  S    
O38   Zn10  S    
C82   C83   S    
H178  N6    S    
C103  C104  S    
C7    H201  S    
O1    Zn1   S    
C3    H192  S    
C60   C61   S    
C52   O66   S    
C120  C137  A    
C48   H42   S    
C118  C135  A    
O29   Zn7   S    
C112  C177  S    
C171  C172  S    
C93   C94   S    
C28   H250  S    
C71   H95   S    
C95   C96   S    
C128  C184  S    
C75   C76   S    
H182  N8    S    
C108  O28   A    
H180  N9    S    
O13   Zn15  S    
C177  N12   S    
O41   Zn15  S    
C62   H75   S    
O14   Zn16  S    
O8    Zn11  S    
C17   H225  S    
C10   H210  S    
O20   Zn3   S    
C57   C129  S    
O45   Zn3   S    
C34   H10   S    
C21   H237  S    
O28   Zn8   S    
C88   H139  S    
C31   H4    S    
C29   H253  S    
C47   H39   S    
H113  N2    S    
C13   O16   A    
O40   Zn14  S    
C24   O17   A    
C182  O33   A    
C173  N1    S    
C109  C137  S    
C121  C124  A    
C18   H229  S    
C190  H185  S    
C146  O66   S    
C174  O50   S    
C111  C178  S    
H177  N6    S    
C110  O30   A    
C116  C167  S    
O44   Zn12  S    
C38   H19   S    
C3    O50   S    
C157  C163  A    
H146  N4    S    
C88   C89   S    
C165  C172  T    
C114  C179  S    
C104  H174  S    
C124  C142  A    
C102  C103  S    
C45   H37   S    
C105  O56   A    
C100  H165  S    
C50   C51   S    
C12   O53   S    
C95   O81   S    
O12   Zn11  S    
C61   H74   S    
C1    O67   A    
C171  O10   A    
H57   N15   S    
C58   H65   S    
C127  O4    A    
C76   C77   S    
C124  C183  S    
C76   H108  S    
C185  C188  S    
C70   H94   S    
C153  O73   S    
C89   H141  S    
C36   H15   S    
C45   O64   S    
C91   H143  S    
C140  C157  A    
O31   Zn10  S    
C12   H216  S    
C47   C48   S    
C1    C165  S    
C34   H11   S    
C96   C97   S    
C95   H154  S    
C22   H239  S    
O1    Zn3   S    
O16   Zn3   S    
C131  C148  A    
C13   O31   A    
C5    H197  S    
C75   O74   S    
C37   H17   S    
C114  C118  A    
C87   H136  S    
C146  C152  A    
C40   C41   S    
C12   C14   S    
C61   H73   S    
C57   O36   A    
C28   H252  S    
H157  N4    S    
C86   H133  S    
C21   H236  S    
H176  N5    S    
C148  O69   S    
H68   N15   S    
C19   O55   S    
O27   Zn5   S    
C113  C131  A    
C39   H22   S    
C144  C162  A    
C14   C15   S    
C18   H228  S    
C156  C159  A    
C99   H163  S    
C48   H41   S    
C61   H72   S    
C80   C81   S    
C46   O19   A    
C186  N5    S    
C30   H256  S    
C180  N15   S    
C15   H219  S    
C135  C153  A    
C112  C130  A    
H101  N2    S    
C74   H104  S    
C43   H32   S    
C14   H218  S    
C90   O24   A    
C69   H91   S    
C139  C156  A    
C82   H122  S    
O42   Zn12  S    
C40   H23   S    
C33   H9    S    
C171  O13   A    
C9    H208  S    
C1    O45   A    
C66   H86   S    
C23   C25   S    
H235  N11   S    
O21   Zn2   S    
C182  O14   A    
C158  C162  A    
C187  N6    S    
C93   H148  S    
C181  N16   S    
C184  N3    S    
O35   Zn9   S    
O34   Zn15  S    
C178  O54   S    
C56   H63   S    
C27   C28   S    
C156  O76   S    
C160  C170  S    
C184  C189  S    
C74   H105  S    
C71   H97   S    
C135  C182  S    
C67   H88   S    
H213  N10   S    
C112  C115  A    
H124  N3    S    
