data_mof_unit_57191.cif
_audit_creation_date              2012-12-10T18:00:44-0500
_audit_creation_method            fapswitch 2.2
_symmetry_space_group_name_H-M    P1
_symmetry_Int_Tables_number       1
_space_group_crystal_system       triclinic
_cell_length_a                    15.867604
_cell_length_b                    10.825267
_cell_length_c                    9.517063
_cell_angle_alpha                 89.737562
_cell_angle_beta                  89.769249
_cell_angle_gamma                 90.14846
_cell_volume                      1634.71993155

loop_
_atom_site_label
_atom_site_type_symbol
_atom_type_description
_atom_site_fract_x
_atom_site_fract_y
_atom_site_fract_z
_atom_type_partial_charge
C1    C     C_R   0.498550 0.262205 0.500419 0.809643
C2    C     C_R   0.501427 0.737797 0.499581 0.809536
C3    C     C_R   0.540383 0.938392 0.387995 0.175235
C4    C     C_R   0.459547 0.061613 0.611981 0.175473
C5    C     C_R   0.502144 0.871682 0.498704 -0.069984
C6    C     C_R   0.497802 0.128321 0.501286 -0.070192
C7    C     C_R   0.445154 0.426907 0.075112 -0.020053
C8    C     C_R   0.554827 0.573118 0.924888 -0.019731
C9    C     C_R   0.445155 0.426973 0.926285 -0.001144
C10   C     C_R   0.554826 0.573052 0.073714 -0.000788
C11   C     C_R   0.339768 0.499872 0.500271 0.816021
C12   C     C_R   0.660241 0.500133 0.499729 0.816478
C13   C     C_3   0.970898 0.446748 0.620053 -0.315143
C14   C     C_3   0.029188 0.553643 0.380071 -0.292633
C15   C     C_3   0.027635 0.381972 0.509305 -0.308218
C16   C     C_3   0.972482 0.618527 0.491022 -0.303146
C17   C     C_1   0.250080 0.499745 0.501040 -0.178555
C18   C     C_1   0.749946 0.500360 0.498956 -0.178495
C19   C     C_3   0.026945 0.563137 0.609265 0.534679
C20   C     C_3   0.973235 0.437321 0.390920 0.556261
C21   C     C_3   0.082921 0.499519 0.500464 0.077411
C22   C     C_3   0.917133 0.500891 0.499607 0.076917
C23   C     C_1   0.174550 0.499654 0.501344 -0.004123
C24   C     C_1   0.825489 0.500578 0.498662 -0.004391
C25   C     C_R   0.537236 0.066796 0.390132 -0.262596
C26   C     C_R   0.462697 0.933205 0.609848 -0.263038
Cu1   Cu    Cu3+1 0.500000 0.500020 0.640660 0.956236
Cu2   Cu    Cu3+1 0.500000 0.499980 0.359340 0.956157
H1    H     H_    0.051349 0.285685 0.514725 0.147953
H2    H     H_    0.948731 0.714776 0.485383 0.147653
H3    H     H_    0.945394 0.403925 0.717541 0.152033
H4    H     H_    0.054696 0.596435 0.282610 0.152436
H5    H     H_    0.567359 0.119055 0.306381 0.160378
H6    H     H_    0.432573 0.880944 0.693596 0.159800
H7    H     H_    0.401298 0.368206 0.131741 0.121800
H8    H     H_    0.598666 0.631843 0.868256 0.122473
H9    H     H_    0.401247 0.368436 0.870775 0.134567
H10   H     H_    0.598716 0.631615 0.129227 0.134656
N1    N     N_R   0.500020 0.500030 0.852070 -0.161041
N2    N     N_R   0.499980 0.499970 0.147930 -0.160960
O1    O     O_R   0.500000 0.319660 0.618740 -0.551018
O2    O     O_R   0.500000 0.680340 0.381260 -0.551296
O3    O     O_R   0.499990 0.319630 0.381170 -0.594439
O4    O     O_R   0.500010 0.680370 0.618830 -0.594485
O5    O     O_R   0.379080 0.500000 0.618760 -0.576692
O6    O     O_R   0.620920 0.500000 0.381240 -0.576545
O7    O     O_R   0.379080 0.499970 0.381190 -0.581449
O8    O     O_R   0.620920 0.500030 0.618810 -0.581252
O9    O     O_3   0.939345 0.370882 0.276916 -0.610436
C27   C     C_3   0.004489 0.319576 0.193650 0.050319
H11   H     H_    0.988278 0.221331 0.173668 0.164239
H12   H     H_    0.067773 0.319572 0.244504 0.124986
C28   C     C_3   0.009714 0.387693 0.052776 -0.348347
H13   H     H_    0.948602 0.379035 0.996973 0.218989
H14   H     H_    0.022043 0.487034 0.071608 0.217972
C29   C     C_3   0.080030 0.336160 0.960334 -0.915014
H15   H     H_    0.067540 0.237635 0.935624 0.251553
H16   H     H_    0.141734 0.344233 0.014302 0.254077
H17   H     H_    0.083521 0.389289 0.860498 0.280759
O10   O     O_3   0.062191 0.629139 0.722316 -0.609317
C30   C     C_3   0.997250 0.672034 0.810984 0.048219
H18   H     H_    0.959772 0.593303 0.853816 0.139998
H19   H     H_    0.954743 0.735959 0.752963 0.137950
C31   C     C_3   0.036541 0.741975 0.933661 -0.316472
H20   H     H_    0.083811 0.682335 0.986568 0.223719
H21   H     H_    0.069457 0.825674 0.893072 0.221424
C32   C     C_3   0.969949 0.780567 0.040902 -0.952992
H22   H     H_    0.922600 0.841846 0.990865 0.259920
H23   H     H_    0.000549 0.831478 0.128024 0.257819
H24   H     H_    0.937665 0.697938 0.085441 0.261444
N3    N     N_3   0.583916 0.875877 0.276230 -0.577443
H25   H     H_    0.638151 0.836288 0.319043 0.200767
H26   H     H_    0.604193 0.938716 0.199386 0.210753
N4    N     N_3   0.416004 0.124135 0.723733 -0.577452
H27   H     H_    0.361788 0.163760 0.680898 0.200181
H28   H     H_    0.395693 0.061293 0.800550 0.209998

loop_
_geom_bond_atom_site_label_1
_geom_bond_atom_site_label_2
_ccdc_geom_bond_type
Cu1   O8    S    
Cu2   O7    S    
C11   O7    A    
C12   O8    A    
C28   H13   S    
Cu2   O6    S    
C17   C23   T    
N4    H28   S    
C18   C24   T    
C14   C21   S    
C19   C21   S    
C6    C25   A    
Cu2   N2    S    
C16   H2    S    
C9    N1    A    
C29   H15   S    
C10   N2    A    
C8    H8    S    
C30   H19   S    
Cu1   O4    S    
C26   H6    S    
Cu1   N1    S    
C27   H12   S    
C7    N2    A    
C8    N1    A    
C4    N4    S    
Cu1   O5    S    
C1    O3    A    
C15   H1    S    
C28   H14   S    
C15   C20   S    
C27   C28   S    
N4    H27   S    
C13   C19   S    
C32   H22   S    
C31   C32   S    
C14   C20   S    
C3    C25   A    
C4    C6    A    
C2    O4    A    
N3    H26   S    
C1    C6    S    
O10   C30   S    
C32   H23   S    
C12   O6    A    
C31   H21   S    
C30   C31   S    
C3    N3    S    
C20   O9    S    
Cu1   O1    S    
C9    H9    S    
C27   H11   S    
C1    O1    A    
C20   C22   S    
C13   C15   S    
C22   C24   S    
C11   O5    A    
C2    C5    S    
C28   C29   S    
C7    C9    A    
C11   C17   S    
C16   C22   S    
C7    H7    S    
C13   H3    S    
C14   H4    S    
C3    C5    A    
C4    C26   A    
C19   O10   S    
Cu2   O3    S    
C29   H17   S    
C10   H10   S    
C32   H24   S    
C31   H20   S    
C21   C23   S    
N3    H25   S    
C2    O2    A    
C16   C19   S    
Cu2   O2    S    
C29   H16   S    
C13   C22   S    
C14   C16   S    
C30   H18   S    
C5    C26   A    
C15   C21   S    
C8    C10   A    
O9    C27   S    
C12   C18   S    
Cu1   Cu2   S    
C25   H5    S    
