data_mof_unit_44545.cif
_audit_creation_date              2013-03-05T16:12:07-0500
_audit_creation_method            fapswitch 2.2
_symmetry_space_group_name_H-M    P1
_symmetry_Int_Tables_number       1
_space_group_crystal_system       triclinic
_cell_length_a                    10.718458
_cell_length_b                    9.618081
_cell_length_c                    27.682705
_cell_angle_alpha                 88.237427
_cell_angle_beta                  85.203046
_cell_angle_gamma                 89.857818
_cell_volume                      2842.49601415

loop_
_atom_site_label
_atom_site_type_symbol
_atom_site_description
_atom_site_fract_x
_atom_site_fract_y
_atom_site_fract_z
_atom_type_partial_charge
O1    O     O_R   0.317570 0.620260 0.500030 -0.598629
O2    O     O_R   0.317570 0.379740 0.500030 -0.599934
C1    C     C_R   0.260162 0.500108 0.500925 0.735879
O3    O     O_R   0.499900 0.620250 0.430280 -0.572526
O4    O     O_R   0.499900 0.379750 0.430280 -0.574770
C2    C     C_R   0.498431 0.501449 0.407921 0.785638
Cu1   Cu    Cu3+1 0.499860 0.642410 0.500020 0.902975
Cu2   Cu    Cu3+1 0.499860 0.357590 0.500020 0.884161
O5    O     O_R   0.682190 0.620260 0.500010 -0.580457
O6    O     O_R   0.682190 0.379740 0.500010 -0.614420
O7    O     O_R   0.499860 0.620280 0.569750 -0.585656
O8    O     O_R   0.499860 0.379720 0.569750 -0.584016
C3    C     C_R   0.739387 0.499946 0.500648 0.740057
C4    C     C_R   0.499775 0.498112 0.592379 0.781455
C5    C     C_R   0.369563 0.520092 0.181963 0.542862
O9    O     O_2   0.274202 0.580488 0.208557 -0.549758
N1    N     N_R   0.471980 0.472633 0.203897 -0.465786
C6    C     C_R   0.569985 0.410642 0.177889 0.528419
C7    C     C_R   0.568191 0.567016 0.273580 -0.085334
C8    C     C_R   0.575009 0.574648 0.323515 -0.273690
C9    C     C_R   0.395865 0.420734 0.337278 -0.234463
C10   C     C_R   0.389431 0.412544 0.287390 -0.105908
C11   C     C_R   0.475751 0.485374 0.255291 0.351987
C12   C     C_R   0.464691 0.446925 0.104264 -0.049695
C13   C     C_R   0.363510 0.506898 0.131823 -0.063220
C14   C     C_R   0.256228 0.546125 0.109323 -0.148973
C15   C     C_R   0.568438 0.397148 0.127618 -0.002604
C16   C     C_R   0.488389 0.502190 0.355580 -0.026489
H1    H     H_    0.329417 0.362552 0.361668 0.132185
H2    H     H_    0.318600 0.348000 0.273616 0.143807
H3    H     H_    0.174854 0.583405 0.130987 0.190814
C17   C     C_R   0.499409 0.493316 0.645610 -0.038033
C18   C     C_R   0.374522 0.516772 0.978991 0.036888
C19   C     C_R   0.562900 0.369388 0.974834 0.039987
C20   C     C_R   0.471753 0.447363 0.951460 0.077905
C21   C     C_R   0.301913 0.614909 0.954787 -0.235979
C22   C     C_R   0.310978 0.627635 0.904426 -0.143174
C23   C     C_R   0.397053 0.547059 0.876636 -0.015497
C24   C     C_R   0.479485 0.458795 0.900111 -0.048115
C25   C     C_R   0.570569 0.383344 0.872252 -0.019635
C26   C     C_R   0.575441 0.394712 0.821465 0.532607
N2    N     N_R   0.492270 0.478293 0.799252 -0.466022
C27   C     C_R   0.404529 0.554643 0.825762 0.532408
C28   C     C_R   0.472936 0.363013 0.722273 -0.103079
C29   C     C_R   0.475568 0.367518 0.671869 -0.231573
C30   C     C_R   0.522368 0.614239 0.670739 -0.230145
C31   C     C_R   0.520929 0.609245 0.721210 -0.099774
C32   C     C_R   0.495627 0.483695 0.747233 0.351392
O10   O     O_2   0.323542 0.636023 0.802986 -0.546058
C33   C     C_R   0.360077 0.494999 0.030131 -0.011132
C34   C     C_R   0.463018 0.438819 0.053320 0.043466
C35   C     C_R   0.564738 0.375627 0.025920 0.059479
C36   C     C_R   0.248871 0.528853 0.059543 0.132262
H4    H     H_    0.457833 0.272704 0.653613 0.149098
H5    H     H_    0.452734 0.265629 0.742037 0.145989
H6    H     H_    0.250747 0.701638 0.887404 0.185589
H7    H     H_    0.239284 0.685264 0.974594 0.149039
O11   O     O_2   0.668216 0.361297 0.200680 -0.549893
C37   C     C_R   0.668335 0.335575 0.100405 -0.157860
H8    H     H_    0.650392 0.632832 0.336828 0.143851
H9    H     H_    0.636002 0.622568 0.249033 0.145167
H10   H     H_    0.749415 0.296837 0.117488 0.185440
C38   C     C_R   0.651399 0.291963 0.945982 -0.212523
C39   C     C_R   0.654477 0.298335 0.895619 -0.144440
O12   O     O_2   0.663248 0.323662 0.794468 -0.546485
C40   C     C_R   0.666539 0.324460 0.050530 -0.216301
H11   H     H_    0.718144 0.223223 0.961394 0.141826
H12   H     H_    0.542334 0.712374 0.651460 0.144715
H13   H     H_    0.724128 0.237309 0.875038 0.186322
H14   H     H_    0.539540 0.702906 0.740127 0.146722
H15   H     H_    0.748774 0.279924 0.031927 0.136424
C41   C     C_3   0.069008 0.648547 0.510561 -0.378709
C42   C     C_3   0.062958 0.400416 0.542165 -0.392348
H16   H     H_    0.109200 0.723535 0.481994 0.165609
H17   H     H_    0.097500 0.292583 0.536343 0.169560
H18   H     H_    0.095029 0.684913 0.546163 0.159415
H19   H     H_    0.090780 0.432186 0.578067 0.153469
C43   C     C_3   0.926378 0.648483 0.510206 -0.375880
C44   C     C_3   0.918799 0.401245 0.542380 -0.364368
H20   H     H_    0.883274 0.686773 0.545321 0.160537
H21   H     H_    0.876523 0.435489 0.578156 0.159178
H22   H     H_    0.900677 0.722028 0.481107 0.164535
H23   H     H_    0.885406 0.293524 0.537444 0.160855
H24   H     H_    0.123293 0.523431 0.422247 0.155622
H25   H     H_    0.119849 0.346196 0.444504 0.156869
H26   H     H_    0.909803 0.520327 0.422003 0.151037
H27   H     H_    0.906798 0.343980 0.445154 0.157422
C45   C     C_3   0.082771 0.452320 0.451944 -0.366788
C46   C     C_3   0.121818 0.500375 0.501439 0.172069
C47   C     C_3   0.877667 0.500128 0.501314 0.165795
C48   C     C_3   0.938761 0.451053 0.452017 -0.390634
C49   C     C_3   0.597328 0.079535 0.530496 -0.229991
C50   C     C_3   0.601504 0.915304 0.528181 -0.199873
H28   H     H_    0.581589 0.110106 0.568841 0.161512
H29   H     H_    0.597509 0.869580 0.565519 0.150098
H30   H     H_    0.691561 0.121353 0.518497 0.136733
H31   H     H_    0.694201 0.883690 0.511955 0.143197
C51   C     C_3   0.376280 0.081696 0.521508 0.123371
C52   C     C_3   0.378248 0.913938 0.523867 0.114543
C53   C     C_3   0.526347 0.091578 0.450584 0.053514
C54   C     C_3   0.511549 0.926448 0.449785 0.115590
N3    N     N_3   0.500250 0.143650 0.501060 -0.161177
N4    N     N_3   0.500250 0.856350 0.501060 -0.132971
H32   H     H_    0.452076 0.135424 0.428795 0.131004
H33   H     H_    0.418083 0.913238 0.435473 0.032123
H34   H     H_    0.304769 0.112515 0.496206 0.096993
H35   H     H_    0.301426 0.881250 0.501991 0.106364
C55   C     C_3   0.325545 0.142821 0.570683 -0.770535
H36   H     H_    0.381600 0.109006 0.600740 0.211941
H37   H     H_    0.318449 0.255902 0.570813 0.265611
H38   H     H_    0.226946 0.110283 0.579557 0.178819
C56   C     C_3   0.336061 0.848203 0.574643 -0.756792
H39   H     H_    0.404312 0.865665 0.601736 0.219007
H40   H     H_    0.244131 0.889422 0.588706 0.184881
H41   H     H_    0.314525 0.736958 0.573316 0.255391
C57   C     C_3   0.655481 0.146771 0.425013 -0.340412
C58   C     C_3   0.656204 0.189818 0.370726 -0.832263
H42   H     H_    0.725451 0.126595 0.348811 0.241076
H43   H     H_    0.562974 0.177840 0.356662 0.251204
H44   H     H_    0.685893 0.299973 0.364541 0.249229
H45   H     H_    0.686740 0.238135 0.441618 0.254616
H46   H     H_    0.733063 0.074426 0.430743 0.174803
C59   C     C_3   0.593911 0.864461 0.405403 -0.248382
C60   C     C_3   0.724714 0.805114 0.411307 -0.787996
H47   H     H_    0.772072 0.854834 0.439885 0.215496
H48   H     H_    0.721826 0.691261 0.417267 0.254802
H49   H     H_    0.784640 0.823410 0.376981 0.203046
H50   H     H_    0.539364 0.799413 0.382833 0.183237
H51   H     H_    0.605475 0.943187 0.376138 0.171531
C61   C     C_3   0.118928 0.530334 0.040961 -0.424245
C62   C     C_3   0.029248 0.427868 0.069384 -0.814260
H52   H     H_    0.071186 0.322153 0.070171 0.258376
H53   H     H_    0.005967 0.461444 0.107056 0.256305
H54   H     H_    0.940582 0.422959 0.051456 0.239942
H55   H     H_    0.079118 0.636937 0.043254 0.202962
H56   H     H_    0.121608 0.497645 0.002887 0.223565

loop_
_geom_bond_atom_site_label_1
_geom_bond_atom_site_label_2
_geom_bond_distance
_ccdc_geom_bond_type
C52   N4    1.515007 S    
H27   C48   1.112967 S    
C3    C47   1.483802 S    
C17   C29   1.404998 A    
C20   C24   1.417857 A    
C7    C8    1.394532 A    
C53   C57   1.585979 S    
C12   C15   1.407937 A    
C49   H30   1.109040 S    
C41   H18   1.113156 S    
C62   H54   1.110065 S    
C50   N4    1.492837 S    
C56   H40   1.105899 S    
C47   C48   1.550017 S    
C59   C60   1.531919 S    
C43   C47   1.554354 S    
Cu1   O7    1.935496 S    
C54   C59   1.582831 S    
C57   H46   1.101460 S    
C49   C50   1.583225 S    
C21   C22   1.391024 A    
H26   C48   1.112953 S    
C58   H43   1.109880 S    
C37   C40   1.389817 A    
C23   C24   1.407832 A    
O7    C4    1.314431 A    
C43   H20   1.113596 S    
C5    C13   1.404582 A    
C5    O9    1.349689 S    
C53   H32   1.112822 S    
C18   C21   1.410739 A    
C51   C55   1.555088 S    
C55   H36   1.106860 S    
Cu1   O5    1.965326 S    
C19   C20   1.416977 A    
C26   N2    1.369962 A    
O5    C3    1.308544 A    
C50   H29   1.108299 S    
C53   C54   1.597542 S    
C44   C47   1.551279 S    
C41   C43   1.529627 S    
C22   H6    1.083240 S    
C6    O11   1.349845 S    
C2    C16   1.461672 S    
C40   H15   1.077678 S    
C8    H8    1.080086 S    
C49   N3    1.494899 S    
C12   C34   1.416415 A    
C14   H3    1.083124 S    
C54   N4    1.548144 S    
Cu1   N4    2.058798 S    
C9    C10   1.393158 A    
C59   H51   1.091313 S    
C42   H17   1.112256 S    
O3    Cu1   1.948791 S    
C49   H28   1.109343 S    
C56   H39   1.107247 S    
N1    C6    1.368999 A    
C54   H33   1.116625 S    
C38   H11   1.078109 S    
C33   C36   1.428914 A    
C57   H45   1.071366 S    
C34   C35   1.421340 A    
Cu1   Cu2   2.739421 S    
C12   C13   1.405874 A    
C41   H16   1.113845 S    
C21   H7    1.080812 S    
C58   H44   1.111062 S    
C24   C25   1.406939 A    
C44   H21   1.113088 S    
C27   O10   1.349637 S    
C26   O12   1.349770 S    
C8    C16   1.401039 A    
C18   C33   1.420304 A    
C51   N3    1.516079 S    
C9    H1    1.083789 S    
O1    C1    1.309175 A    
N2    C32   1.436795 S    
C7    C11   1.402452 A    
C31   H14   1.083020 S    
C30   H12   1.082787 S    
C22   C23   1.399306 A    
C43   H22   1.107357 S    
C31   C32   1.402185 A    
C45   C48   1.543477 S    
Cu2   O8    1.948511 S    
C53   N3    1.502854 S    
C33   C34   1.419747 A    
C42   C44   1.544673 S    
N1    C11   1.435659 S    
C39   H13   1.083373 S    
C60   H49   1.111176 S    
O3    C2    1.316889 A    
C25   C26   1.403404 A    
C61   H55   1.111159 S    
O8    C4    1.316379 A    
C29   H4    1.080947 S    
N2    C27   1.369887 A    
C62   H52   1.111024 S    
C14   C36   1.401811 A    
C50   H31   1.101664 S    
C35   C40   1.413491 A    
C28   C29   1.392587 A    
C60   H48   1.102494 S    
H25   C45   1.113301 S    
C5    N1    1.368960 A    
C30   C31   1.395301 A    
C37   H10   1.083502 S    
C10   H2    1.082806 S    
O1    Cu1   1.965950 S    
C17   C30   1.406058 A    
C9    C16   1.402246 A    
C61   H56   1.107176 S    
C6    C15   1.403107 A    
H24   C45   1.113300 S    
C4    C17   1.472550 S    
C62   H53   1.109476 S    
O6    C3    1.311274 A    
C51   H34   1.114389 S    
O4    Cu2   1.935759 S    
C52   H35   1.113553 S    
C19   C35   1.419107 A    
C25   C39   1.398895 A    
C55   H38   1.108445 S    
C1    C46   1.481704 S    
C61   C62   1.531275 S    
C13   C14   1.398481 A    
C42   C46   1.552648 S    
C23   C27   1.403548 A    
C15   C37   1.397897 A    
C58   H42   1.110784 S    
C44   H23   1.113080 S    
C41   C46   1.552213 S    
C28   H5    1.083141 S    
C59   H50   1.100255 S    
O4    C2    1.307837 A    
C7    H9    1.082822 S    
C52   C56   1.555776 S    
C19   C38   1.413736 A    
C18   C20   1.416907 A    
C55   H37   1.090181 S    
C57   C58   1.545868 S    
O2    C1    1.309665 A    
C38   C39   1.391273 A    
C45   C46   1.549822 S    
Cu2   O6    1.966376 S    
C51   C52   1.612982 S    
O2    Cu2   1.964901 S    
C42   H19   1.113009 S    
C10   C11   1.401320 A    
C36   C61   1.524463 S    
Cu2   N3    2.057007 S    
C56   H41   1.097508 S    
C28   C32   1.400964 A    
C60   H47   1.097197 S    
