data_mof_unit_37168.cif
_audit_creation_date              2012-12-10T17:16:36-0500
_audit_creation_method            fapswitch 2.2
_symmetry_space_group_name_H-M    P1
_symmetry_Int_Tables_number       1
_space_group_crystal_system       triclinic
_cell_length_a                    10.189511
_cell_length_b                    10.584019
_cell_length_c                    11.019675
_cell_angle_alpha                 89.805195
_cell_angle_beta                  94.691963
_cell_angle_gamma                 79.496481
_cell_volume                      1164.39480992

loop_
_atom_site_label
_atom_site_type_symbol
_atom_type_description
_atom_site_fract_x
_atom_site_fract_y
_atom_site_fract_z
_atom_type_partial_charge
C1    C     C_R   0.444455 0.513684 0.268762 0.926994
C2    C     C_R   0.492684 0.741382 0.484160 0.872993
C3    C     C_R   0.755368 0.058890 0.469656 0.006142
C4    C     C_R   0.244632 0.941110 0.530347 0.006142
C5    C     C_R   0.832859 0.995882 0.381295 -0.317511
C6    C     C_R   0.167141 0.004118 0.618707 -0.317512
C7    C     C_R   0.786215 0.900628 0.310646 0.502496
C8    C     C_R   0.213785 0.099373 0.689356 0.502495
C9    C     C_R   0.668650 0.861229 0.338427 -0.138321
C10   C     C_R   0.331351 0.138772 0.661574 -0.138321
C11   C     C_R   0.589525 0.925427 0.426458 -0.033216
C12   C     C_R   0.555545 0.486316 0.731238 0.926994
C13   C     C_R   0.410475 0.074573 0.573543 -0.033216
C14   C     C_R   0.623023 0.036478 0.478853 0.047461
C15   C     C_R   0.376977 0.963522 0.521149 0.047461
C16   C     C_R   0.478003 0.880029 0.463892 -0.185107
C17   C     C_R   0.521998 0.119971 0.536109 -0.185107
C18   C     C_1   0.819450 0.132446 0.559103 0.191895
C19   C     C_1   0.180550 0.867554 0.440900 0.191895
C20   C     C_1   0.369740 0.428110 0.899505 0.224222
C21   C     C_1   0.630259 0.571890 0.100495 0.224222
C22   C     C_1   0.887012 0.364838 0.357500 0.322317
C23   C     C_2   0.413729 0.515623 0.139190 -0.394305
C24   C     C_1   0.112988 0.635161 0.642501 0.322319
C25   C     C_2   0.586271 0.484377 0.860810 -0.394305
C26   C     C_2   0.509068 0.521822 0.062582 -0.012193
C27   C     C_2   0.490932 0.478178 0.937417 -0.012193
C28   C     C_2   0.073603 0.491579 0.490420 -0.089954
C29   C     C_2   0.926397 0.508421 0.509579 -0.089954
C30   C     C_R   0.507316 0.258618 0.515840 0.872993
H1    H     H_    0.929664 0.020015 0.368646 0.156399
H2    H     H_    0.929148 0.887157 0.203042 0.344939
H3    H     H_    0.070336 0.979986 0.631357 0.156399
H4    H     H_    0.636354 0.783041 0.288455 0.164812
H5    H     H_    0.363647 0.216960 0.711546 0.164812
H6    H     H_    0.683778 0.505236 0.891854 0.168156
H7    H     H_    0.316222 0.494764 0.108146 0.168156
H8    H     H_    0.886358 0.574263 0.578256 0.165525
H9    H     H_    0.113642 0.425738 0.421743 0.165525
H10   H     H_    0.070852 0.112846 0.796960 0.344940
N1    N     N_2   0.157300 0.551390 0.551120 -0.142501
N2    N     N_2   0.842700 0.448610 0.448880 -0.142500
N3    N     N_1   0.869102 0.192647 0.630579 -0.189933
N4    N     N_1   0.130897 0.807354 0.369423 -0.189932
N5    N     N_1   0.272848 0.389551 0.870581 -0.146441
N6    N     N_1   0.727152 0.610450 0.129419 -0.146442
N7    N     N_1   0.923495 0.295148 0.281465 -0.239108
N8    N     N_1   0.076506 0.704850 0.718535 -0.239108
O1    O     O_R   0.568940 0.489660 0.307530 -0.610866
O2    O     O_3   0.855470 0.840986 0.217957 -0.741756
O3    O     O_R   0.431060 0.510340 0.692470 -0.610866
O4    O     O_R   0.348880 0.522640 0.340350 -0.605969
O5    O     O_R   0.651120 0.477360 0.659650 -0.605969
O6    O     O_R   0.610030 0.300280 0.483580 -0.610408
O7    O     O_R   0.389970 0.699720 0.516420 -0.610408
O8    O     O_R   0.389970 0.333270 0.516400 -0.617212
O9    O     O_R   0.610030 0.666730 0.483600 -0.617212
O10   O     O_3   0.144531 0.159015 0.782044 -0.741756
Zn1   Zn    Zn3+2 0.646940 0.477980 0.478080 0.980448
Zn2   Zn    Zn3+2 0.353060 0.522020 0.521920 0.980448

loop_
_geom_bond_atom_site_label_1
_geom_bond_atom_site_label_2
_ccdc_geom_bond_type
C29   H8    S    
N2    Zn1   S    
C21   C26   S    
C10   H5    S    
C17   C30   S    
C20   C27   S    
C29   N2    D    
C25   C27   D    
C2    C16   S    
C11   C16   A    
C12   O5    A    
O1    Zn1   S    
C6    H3    S    
C13   C17   A    
C12   C25   S    
O6    Zn1   S    
C4    C15   A    
C22   N7    T    
O5    Zn1   S    
C2    O9    A    
C23   H7    S    
O7    Zn2   S    
C24   N1    S    
C30   O6    A    
C14   C17   A    
H2    O2    S    
C26   C27   S    
C22   N2    S    
C3    C14   A    
C1    O1    A    
C9    C11   A    
C4    C6    A    
C28   C29   S    
C1    O4    A    
C5    H1    S    
C1    C23   S    
C5    C7    A    
C2    O7    A    
C13   C15   A    
C9    H4    S    
C11   C14   A    
O9    Zn1   S    
H10   O10   S    
C25   H6    S    
C15   C16   A    
C24   N8    T    
C20   N5    T    
C28   N1    D    
C12   O3    A    
C19   N4    T    
C7    O2    S    
C3    C18   S    
C8    C10   A    
C21   N6    T    
C23   C26   D    
C7    C9    A    
C6    C8    A    
O3    Zn2   S    
O4    Zn2   S    
C28   H9    S    
C8    O10   S    
C18   N3    T    
C4    C19   S    
C30   O8    A    
O8    Zn2   S    
N1    Zn2   S    
C3    C5    A    
C10   C13   A    
