data_mof_unit_47215.cif
_audit_creation_date              2012-12-10T18:11:46-0500
_audit_creation_method            fapswitch 2.2
_symmetry_space_group_name_H-M    P1
_symmetry_Int_Tables_number       1
_space_group_crystal_system       triclinic
_cell_length_a                    10.513008
_cell_length_b                    12.628372
_cell_length_c                    13.149183
_cell_angle_alpha                 82.789046
_cell_angle_beta                  90.458951
_cell_angle_gamma                 101.148173
_cell_volume                      1698.9894192

loop_
_atom_site_label
_atom_site_type_symbol
_atom_type_description
_atom_site_fract_x
_atom_site_fract_y
_atom_site_fract_z
_atom_type_partial_charge
C1    C     C_R   0.479167 0.439656 0.690696 0.872931
C2    C     C_R   0.449623 0.444081 0.972603 0.031919
C3    C     C_R   0.426601 0.469406 0.867868 0.082273
C4    C     C_R   0.742236 0.500490 0.499115 0.879534
C5    C     C_R   0.454259 0.527120 0.036223 0.118319
C6    C     C_R   0.414819 0.625828 0.998788 0.122791
C7    C     C_R   0.370326 0.640752 0.899131 -0.233989
C8    C     C_R   0.375460 0.563215 0.834264 -0.189145
C9    C     C_R   0.502241 0.516156 0.134743 -0.356207
C10   C     C_R   0.468069 0.695649 0.161466 0.511250
C11   C     C_R   0.458417 0.401217 0.799494 -0.170929
C12   C     C_3   0.058682 0.572738 0.423420 0.457542
C13   C     C_R   0.292611 0.084170 0.367445 0.397008
C14   C     C_R   0.649156 0.797713 0.632665 0.058590
C15   C     C_R   0.669334 0.898406 0.668523 -0.315198
C16   C     C_R   0.512706 0.560537 0.308673 0.894577
C17   C     C_R   0.606312 0.978564 0.621943 -0.169618
C18   C     C_R   0.524059 0.958492 0.538125 0.062126
C19   C     C_R   0.499804 0.852508 0.509633 0.179045
C20   C     C_R   0.463453 0.038784 0.482788 -0.176754
C21   C     C_R   0.360255 0.006799 0.416206 -0.024249
C22   C     C_R   0.331420 0.899428 0.395191 -0.215255
C23   C     C_3   0.985248 0.600236 0.512804 0.476380
C24   C     C_R   0.405119 0.825311 0.436921 -0.154161
C25   C     C_R   0.507542 0.151024 0.484641 0.538414
C26   C     C_R   0.326715 0.191378 0.388464 -0.216345
C27   C     C_R   0.258281 0.500042 0.500046 0.909396
C28   C     C_3   0.941524 0.427707 0.575913 -0.187862
C29   C     C_3   0.049846 0.526389 0.590983 -0.359781
C30   C     C_3   0.123358 0.499883 0.500107 -0.070519
C31   C     C_3   0.018410 0.400625 0.485990 -0.169875
C32   C     C_3   0.952362 0.474201 0.407885 -0.360142
C33   C     C_3   0.472705 0.078167 0.913597 0.082241
C34   C     C_3   0.878247 0.502060 0.498204 -0.106467
C35   C     C_3   0.336456 0.051375 0.867704 -0.380103
C36   C     C_3   0.342154 0.013355 0.762560 -0.952861
C37   C     C_3   0.220438 0.090228 0.201932 0.077902
C38   C     C_3   0.107194 0.134578 0.150804 -0.344061
C39   C     C_3   0.122656 0.155885 0.034590 -0.955922
C40   C     C_3   0.717475 0.207445 0.429159 0.113081
C41   C     C_3   0.773107 0.105978 0.416892 -0.409967
C42   C     C_3   0.886744 0.131563 0.341140 -0.950763
C43   C     C_3   0.048943 0.701295 0.283248 0.093230
C44   C     C_3   0.115403 0.744000 0.179050 -0.319909
C45   C     C_R   0.421306 0.708854 0.061069 -0.349271
C46   C     C_3   0.033630 0.810223 0.110538 -1.012471
C47   C     C_3   0.042844 0.757721 0.591186 0.110861
C48   C     C_3   0.977349 0.735016 0.697992 -0.355758
C49   C     C_3   0.075551 0.740007 0.783970 -0.986616
C50   C     C_3   0.542993 0.878559 0.180347 0.087104
C51   C     C_3   0.684496 0.877704 0.151264 -0.381960
C52   C     C_3   0.751487 0.988351 0.097776 -0.948510
C53   C     C_R   0.500253 0.594970 0.199463 -0.146593
C54   C     C_R   0.481790 0.298013 0.836083 -0.332015
C55   C     C_R   0.476154 0.261178 0.941811 0.550314
C56   C     C_R   0.467083 0.337106 0.009084 -0.290987
H1    H     H_    0.503303 0.247651 0.780666 0.177893
H2    H     H_    0.095201 0.543509 0.665080 0.156337
H3    H     H_    0.541103 0.445333 0.163570 0.174917
H4    H     H_    0.467578 0.308691 0.089971 0.149417
H5    H     H_    0.492154 0.001201 0.954829 0.136944
H6    H     H_    0.552433 0.102434 0.855340 0.134077
H7    H     H_    0.274048 0.986410 0.920132 0.202139
H8    H     H_    0.289265 0.123238 0.859061 0.240668
H9    H     H_    0.404475 0.077096 0.709215 0.268876
H10   H     H_    0.243554 0.999084 0.729985 0.261780
H11   H     H_    0.380620 0.936856 0.768854 0.267203
H12   H     H_    0.270690 0.251040 0.357522 0.176846
H13   H     H_    0.338855 0.577646 0.757705 0.162419
H14   H     H_    0.237135 0.019537 0.164879 0.170393
H15   H     H_    0.309607 0.155011 0.188854 0.136661
H16   H     H_    0.016443 0.074529 0.169806 0.236306
H17   H     H_    0.099042 0.211414 0.180960 0.224181
H18   H     H_    0.212921 0.215537 0.012284 0.280900
H19   H     H_    0.039155 0.189538 0.001448 0.265923
H20   H     H_    0.124382 0.078678 0.003107 0.260573
H21   H     H_    0.799336 0.272307 0.443418 0.199085
H22   H     H_    0.673695 0.237247 0.355972 0.117480
H23   H     H_    0.256223 0.873869 0.342123 0.208140
H24   H     H_    0.807419 0.072397 0.491957 0.255109
H25   H     H_    0.697393 0.043534 0.387755 0.222700
H26   H     H_    0.858265 0.170815 0.266376 0.252055
H27   H     H_    0.917268 0.054403 0.330045 0.298886
H28   H     H_    0.970162 0.186240 0.370982 0.269421
H29   H     H_    0.620336 0.054346 0.654278 0.192943
H30   H     H_    0.386119 0.747285 0.410773 0.262723
H31   H     H_    0.038344 0.319150 0.477408 0.161402
H32   H     H_    0.030567 0.770977 0.321113 0.187751
H33   H     H_    0.954098 0.648468 0.269361 0.125585
H34   H     H_    0.694809 0.733782 0.669719 0.139172
H35   H     H_    0.211299 0.796021 0.189721 0.235793
H36   H     H_    0.131556 0.674208 0.140380 0.233902
H37   H     H_    0.938883 0.758771 0.095260 0.270618
H38   H     H_    0.085484 0.841570 0.036364 0.264098
H39   H     H_    0.016520 0.880296 0.148022 0.278742
H40   H     H_    0.059582 0.846776 0.566391 0.160296
H41   H     H_    0.141286 0.736780 0.592109 0.146811
H42   H     H_    0.916197 0.796276 0.705067 0.202996
H43   H     H_    0.913406 0.653178 0.708254 0.237819
H44   H     H_    0.132801 0.675160 0.782386 0.261665
H45   H     H_    0.888305 0.367745 0.637557 0.164354
H46   H     H_    0.024075 0.727563 0.859217 0.273940
H47   H     H_    0.141851 0.820154 0.775838 0.271677
H48   H     H_    0.545176 0.936385 0.237696 0.171891
H49   H     H_    0.489771 0.911410 0.114710 0.131915
H50   H     H_    0.738196 0.856191 0.221616 0.232906
H51   H     H_    0.688601 0.816524 0.098245 0.215847
H52   H     H_    0.699676 0.011082 0.027085 0.268433
H53   H     H_    0.851606 0.984410 0.075130 0.267494
H54   H     H_    0.754637 0.051687 0.149508 0.272483
H55   H     H_    0.732063 0.913822 0.732881 0.153288
H56   H     H_    0.908891 0.452699 0.334175 0.146879
H57   H     H_    0.336438 0.714385 0.870150 0.153974
H58   H     H_    0.387433 0.782286 0.031744 0.138053
N1    N     N_R   0.432930 0.222190 0.444670 -0.163171
N2    N     N_R   0.566370 0.776980 0.554790 -0.131679
O1    O     O_R   0.467970 0.366730 0.627150 -0.596397
O2    O     O_3   0.187442 0.053801 0.306471 -0.658886
O3    O     O_3   0.631678 0.190657 0.515126 -0.647394
O4    O     O_3   0.131436 0.645128 0.344896 -0.664220
O5    O     O_3   0.960079 0.705335 0.519672 -0.650431
O6    O     O_3   0.475076 0.775664 0.225970 -0.657195
O7    O     O_R   0.510820 0.544830 0.662520 -0.631891
O8    O     O_R   0.664630 0.410960 0.482340 -0.592986
O9    O     O_R   0.707470 0.589060 0.517710 -0.587613
O10   O     O_R   0.489180 0.455170 0.337480 -0.630579
O11   O     O_R   0.532030 0.633270 0.372850 -0.586752
O12   O     O_R   0.292530 0.410940 0.482290 -0.626929
O13   O     O_R   0.335370 0.589040 0.517660 -0.654750
O14   O     O_3   0.480351 0.154615 0.985026 -0.667513
Zn1   Zn    Zn3+2 0.471390 0.381080 0.476380 0.952885
Zn2   Zn    Zn3+2 0.528610 0.618920 0.523620 0.950155

loop_
_geom_bond_atom_site_label_1
_geom_bond_atom_site_label_2
_ccdc_geom_bond_type
C33   O14   S    
C55   C56   A    
C50   H48   S    
C6    C45   A    
O7    Zn2   S    
C41   C42   S    
C35   C36   S    
C50   O6    S    
C41   H24   S    
C13   O2    S    
C36   H11   S    
C7    C8    A    
C23   O5    S    
N1    Zn1   S    
O11   Zn2   S    
C42   H26   S    
C12   C23   S    
C8    H13   S    
C29   C30   S    
C4    O9    A    
C17   H29   S    
C43   H32   S    
C23   C29   S    
C28   C29   S    
C22   H23   S    
C25   N1    A    
C30   C31   S    
C36   H10   S    
C47   O5    S    
C20   C25   A    
C4    O8    A    
C18   C19   A    
C39   H18   S    
C10   C53   A    
C26   N1    A    
C14   H34   S    
C16   C53   S    
C28   H45   S    
C46   H39   S    
C31   C32   S    
C33   H6    S    
C46   H38   S    
C50   H49   S    
C47   H40   S    
C35   H8    S    
C39   H19   S    
C18   C20   A    
C44   H36   S    
C43   O4    S    
O13   Zn2   S    
C23   C34   S    
C28   C34   S    
C12   O4    S    
C21   C22   A    
C12   C32   S    
C27   C30   S    
C25   O3    S    
C44   C46   S    
C50   C51   S    
C4    C34   S    
C38   C39   S    
C38   H16   S    
C31   H31   S    
C37   O2    S    
C51   C52   S    
C15   H55   S    
C42   H28   S    
C3    C8    A    
C49   H46   S    
C36   H9    S    
C45   H58   S    
C56   H4    S    
O8    Zn1   S    
C19   N2    A    
C9    H3    S    
C32   C34   S    
C43   C44   S    
C1    O7    A    
C5    C9    A    
C37   C38   S    
C27   O12   A    
C47   C48   S    
N2    Zn2   S    
C52   H54   S    
C55   O14   S    
C41   H25   S    
C10   C45   A    
C17   C18   A    
C13   C21   A    
C1    O1    A    
C39   H20   S    
C29   H2    S    
C44   H35   S    
C11   C54   A    
C33   H5    S    
C48   C49   S    
C37   H15   S    
C27   O13   A    
C22   C24   A    
C13   C26   A    
C2    C5    A    
C9    C53   A    
O12   Zn1   S    
C15   C17   A    
C48   H43   S    
C54   C55   A    
C40   C41   S    
C32   H56   S    
C12   C30   S    
C14   C15   A    
C28   C31   S    
C42   H27   S    
C10   O6    S    
C49   H47   S    
C6    C7    A    
C52   H53   S    
C48   H42   S    
C47   H41   S    
C26   H12   S    
C7    H57   S    
C2    C3    A    
C2    C56   A    
C49   H44   S    
O9    Zn2   S    
C5    C6    A    
C46   H37   S    
C16   O10   A    
O10   Zn1   S    
C51   H50   S    
C14   N2    A    
C33   C35   S    
C19   C24   A    
C40   H22   S    
C43   H33   S    
O1    Zn1   S    
C16   O11   A    
C3    C11   A    
C40   O3    S    
C20   C21   A    
C52   H52   S    
C51   H51   S    
C40   H21   S    
C35   H7    S    
C1    C11   S    
C37   H14   S    
C24   H30   S    
C54   H1    S    
C38   H17   S    
