data_mof_unit_27112.cif
_audit_creation_date              2012-12-11T16:08:36-0500
_audit_creation_method            fapswitch 2.2
_symmetry_space_group_name_H-M    P1
_symmetry_Int_Tables_number       1
_space_group_crystal_system       triclinic
_cell_length_a                    12.979832
_cell_length_b                    13.322604
_cell_length_c                    27.670462
_cell_angle_alpha                 94.991446
_cell_angle_beta                  90.233436
_cell_angle_gamma                 119.122269
_cell_volume                      4158.24512475

loop_
_atom_site_label
_atom_site_type_symbol
_atom_type_description
_atom_site_fract_x
_atom_site_fract_y
_atom_site_fract_z
_atom_type_partial_charge
C1    C     C_R   0.628617 0.893459 0.428025 0.560359
C2    C     C_R   0.595436 0.364208 0.231410 0.114317
C3    C     C_R   0.588637 0.351009 0.281460 0.145357
C4    C     C_R   0.663717 0.318568 0.304096 0.001415
C5    C     C_R   0.679845 0.348841 0.204681 -0.012290
C6    C     C_1   0.691170 0.370831 0.154175 0.006075
C7    C     C_1   0.649898 0.298165 0.354775 0.043016
C8    C     C_1   0.702581 0.396635 0.113175 0.030822
C9    C     C_R   0.196059 0.758014 0.346654 -0.098707
C10   C     C_R   0.186818 0.749577 0.295959 -0.015449
C11   C     C_R   0.187270 0.745945 0.194074 -0.045703
C12   C     C_R   0.601096 0.222572 0.440911 0.549970
C13   C     C_R   0.183226 0.654090 0.216976 -0.101193
C14   C     C_R   0.175864 0.651268 0.267129 0.038590
C15   C     C_R   0.178904 0.741380 0.143303 0.043408
C16   C     C_R   0.151605 0.819574 0.122187 -0.045525
C17   C     C_R   0.229436 0.954054 0.352665 -0.085685
C18   C     C_R   0.219307 0.947964 0.302046 0.035708
C19   C     C_R   0.199560 0.846380 0.273477 0.046720
C20   C     C_R   0.236292 0.044579 0.279563 -0.107689
C21   C     C_R   0.230851 0.040584 0.229112 -0.063693
C22   C     C_R   0.205578 0.938540 0.199780 0.018855
C23   C     C_R   0.271880 0.877623 0.424710 0.545298
C24   C     C_R   0.195416 0.842820 0.222438 0.009560
C25   C     C_R   0.183661 0.927020 0.148807 0.057863
C26   C     C_R   0.222471 0.860601 0.374948 -0.011647
C27   C     C_R   0.758274 0.921140 0.360276 -0.104797
C28   C     C_R   0.767921 0.909553 0.310099 -0.018914
C29   C     C_R   0.762779 0.909151 0.208557 0.011375
C30   C     C_R   0.863418 0.994871 0.237382 0.077897
C31   C     C_R   0.868796 0.990641 0.288106 0.033857
C32   C     C_R   0.753751 0.909185 0.157807 0.093365
C33   C     C_R   0.680007 0.804907 0.129003 0.043568
C34   C     C_R   0.627401 0.899064 0.564866 0.549960
C35   C     C_R   0.568673 0.745143 0.354834 0.046026
C36   C     C_R   0.575798 0.732679 0.303844 0.001895
C37   C     C_R   0.671886 0.819781 0.281430 0.023093
C38   C     C_R   0.488179 0.637403 0.274480 -0.092550
C39   C     C_R   0.489577 0.632596 0.224221 -0.121619
C40   C     C_R   0.580499 0.721613 0.201440 0.010583
C41   C     C_R   0.672303 0.816405 0.230442 -0.005183
C42   C     C_R   0.586197 0.714465 0.150414 0.069848
C43   C     C_R   0.654593 0.848048 0.381762 -0.013569
C44   C     C_R   0.741878 0.300402 0.651422 -0.110503
C45   C     C_R   0.603135 0.227284 0.578417 0.544270
C46   C     C_R   0.758382 0.324817 0.702262 -0.045807
C47   C     C_R   0.772014 0.349352 0.804814 -0.003671
C48   C     C_R   0.866034 0.349271 0.779001 0.096818
C49   C     C_R   0.859390 0.336756 0.727768 0.094779
C50   C     C_R   0.779100 0.368432 0.855707 -0.126978
C51   C     C_R   0.687582 0.373619 0.880312 -0.018067
C52   C     C_R   0.559188 0.308004 0.653239 -0.123446
C53   C     C_R   0.568009 0.322121 0.703431 -0.005946
C54   C     C_R   0.666605 0.328865 0.728361 0.013102
C55   C     C_R   0.474943 0.321854 0.728625 -0.112862
C56   C     C_R   0.271769 0.879614 0.563298 0.548548
C57   C     C_R   0.476609 0.326138 0.779085 0.092276
C58   C     C_R   0.575430 0.334634 0.804508 0.037450
C59   C     C_R   0.671402 0.337258 0.779194 0.003489
C60   C     C_R   0.582641 0.346606 0.854955 -0.110697
C61   C     C_R   0.640115 0.287120 0.627372 -0.006699
C62   C     C_1   0.221752 0.863282 0.609897 0.003265
C63   C     C_R   0.072080 0.752076 0.717430 -0.046831
C64   C     C_R   0.055353 0.741211 0.767237 0.108343
C65   C     C_R   0.237684 0.924673 0.786201 0.110307
C66   C     C_R   0.251939 0.934398 0.736211 -0.075252
C67   C     C_1   0.632483 0.270918 0.395556 0.047476
C68   C     C_R   0.170085 0.848015 0.702041 0.021732
C69   C     C_R   0.139496 0.827193 0.801675 0.099719
C70   C     C_1   0.123178 0.814349 0.852790 0.001563
C71   C     C_1   0.192818 0.854634 0.651286 -0.037198
C72   C     C_1   0.100183 0.796932 0.894401 0.005720
C73   C     C_1   0.644483 0.866082 0.610786 0.036422
C74   C     C_R   0.775352 0.882760 0.728490 0.110298
C75   C     C_R   0.777529 0.871877 0.778896 0.095086
C76   C     C_R   0.562580 0.762949 0.775620 -0.130842
C77   C     C_R   0.559792 0.773034 0.726029 -0.144883
C78   C     C_R   0.747110 0.300468 0.277322 0.002882
C79   C     C_R   0.664711 0.832632 0.702283 -0.018974
C80   C     C_R   0.670461 0.812739 0.802246 0.012637
C81   C     C_1   0.672381 0.799823 0.853332 -0.061072
C82   C     C_1   0.655052 0.847069 0.651741 -0.002332
C83   C     C_1   0.684889 0.789481 0.895405 -0.008673
C84   C     C_R   0.071447 0.775563 0.077477 0.553676
C85   C     C_R   0.716899 0.441501 0.067152 0.546139
C86   C     C_R   0.719513 0.783084 0.080996 0.563152
C87   C     C_R   0.056433 0.766027 0.941324 0.544760
C88   C     C_R   0.709834 0.432913 0.929338 0.542427
C89   C     C_R   0.758624 0.321283 0.227653 0.014672
C90   C     C_R   0.716141 0.776147 0.943111 0.544933
Cr1   Cr    Cr6+3 0.416430 0.829200 0.492370 1.084271
Cr2   Cr    Cr6+3 0.674630 0.087020 0.504170 1.064998
Cr3   Cr    Cr6+3 0.408920 0.083740 0.503490 1.041963
Cr4   Cr    Cr6+3 0.914010 0.832750 0.013970 1.086933
Cr5   Cr    Cr6+3 0.922310 0.578600 0.003000 1.068632
Cr6   Cr    Cr6+3 0.656280 0.574630 0.003870 1.059140
H1    H     H_    0.242920 0.117010 0.213458 0.173743
H2    H     H_    0.253135 0.123400 0.301086 0.118085
H3    H     H_    0.251761 0.034491 0.374318 0.149655
H4    H     H_    0.826461 0.995422 0.382243 0.167819
H5    H     H_    0.418883 0.557604 0.203603 0.147195
H6    H     H_    0.417382 0.565415 0.289860 0.182978
H7    H     H_    0.858435 0.387082 0.876344 0.133601
H8    H     H_    0.802876 0.283049 0.630656 0.176320
H9    H     H_    0.510689 0.346634 0.874615 0.179532
H10   H     H_    0.399475 0.315866 0.708881 0.113338
H11   H     H_    0.481444 0.300295 0.634727 0.140744
H12   H     H_    0.009601 0.685268 0.690696 0.131572
H13   H     H_    0.328173 0.008174 0.723879 0.114944
H14   H     H_    0.480354 0.716587 0.793274 0.129184
H15   H     H_    0.475017 0.735281 0.706131 0.133727
H16   H     H_    0.195552 0.689405 0.364678 0.213480
H17   H     H_    0.178446 0.579862 0.195855 0.213319
O1    O     O_R   0.296680 0.802170 0.437540 -0.492548
O2    O     O_R   0.662610 0.183990 0.557860 -0.500550
O3    O     O_R   0.500730 0.201280 0.562180 -0.517173
O4    O     O_R   0.312500 0.978850 0.548170 -0.494754
O5    O     O_3   0.499990 0.999990 0.500010 -0.265947
O6    O     O_R   0.820790 0.857990 0.068830 -0.510363
O7    O     O_R   0.016700 0.827330 0.062850 -0.448995
O8    O     O_R   0.041970 0.673520 0.060040 -0.476341
O9    O     O_R   0.817980 0.483660 0.048840 -0.478217
O10   O     O_R   0.637200 0.461990 0.052510 -0.511450
O11   O     O_R   0.664790 0.681920 0.057970 -0.458232
O12   O     O_R   0.525380 0.838530 0.443500 -0.467292
O13   O     O_R   0.815840 0.852920 0.961840 -0.507911
O14   O     O_R   0.012100 0.822630 0.963670 -0.492261
O15   O     O_R   0.037010 0.668460 0.953040 -0.504868
O16   O     O_R   0.813390 0.478970 0.949660 -0.504089
O17   O     O_R   0.632250 0.456930 0.945520 -0.516921
O18   O     O_R   0.660200 0.677230 0.958780 -0.491576
O19   O     O_3   0.830870 0.661990 0.006950 -0.271434
O20   O     O_R   0.702130 0.995190 0.446810 -0.514680
O21   O     O_R   0.661770 0.181390 0.458760 -0.480230
O22   O     O_R   0.499820 0.198480 0.455280 -0.513103
O23   O     O_R   0.311660 0.976250 0.449080 -0.501677
O24   O     O_R   0.297580 0.804960 0.544440 -0.498675
O25   O     O_R   0.526220 0.841130 0.542590 -0.499258
O26   O     O_R   0.703030 0.997990 0.553710 -0.489587
C91   C     C_2   0.816121 0.253795 0.300972 0.607123
O27   O     O_2   0.919966 0.289640 0.293184 -0.370935
O28   O     O_R   0.762077 0.169026 0.332834 -0.711947
H18   H     H_    0.820567 0.152642 0.349910 0.343304
N1    N     N_3   0.808946 0.016755 0.136423 -0.569572
H19   H     H_    0.748986 0.017139 0.111175 0.252252
H20   H     H_    0.884126 0.027902 0.118825 0.296363
C92   C     C_2   0.970847 0.074408 0.213763 0.617387
O29   O     O_2   0.020302 0.034491 0.187686 -0.536680
O30   O     O_R   0.012317 0.193241 0.219422 -0.584224
H21   H     H_    0.085382 0.237500 0.200714 0.347702
C93   C     C_2   0.982272 0.062099 0.317674 0.549046
O31   O     O_2   0.014468 0.016743 0.346357 -0.540769
O32   O     O_R   0.051810 0.179868 0.313130 -0.636075
H22   H     H_    0.126037 0.217714 0.335316 0.331504
N2    N     N_3   0.498459 0.616343 0.120027 -0.581037
H23   H     H_    0.415606 0.608742 0.125964 0.255875
H24   H     H_    0.498550 0.541921 0.129165 0.226417
C94   C     C_2   0.852306 0.315908 0.198859 0.642146
O33   O     O_2   0.956100 0.383578 0.210167 -0.442360
O34   O     O_R   0.821407 0.240251 0.156488 -0.676026
H25   H     H_    0.893018 0.249848 0.138466 0.356555
C95   C     C_2   0.472276 0.653810 0.380098 0.585688
O35   O     O_2   0.368937 0.621212 0.368598 -0.525690
O36   O     O_R   0.500828 0.608976 0.418621 -0.676879
H26   H     H_    0.428265 0.548690 0.433567 0.340003
N3    N     N_3   0.970911 0.365486 0.804173 -0.574034
H27   H     H_    0.947341 0.300642 0.827379 0.239319
H28   H     H_    0.011045 0.446204 0.824570 0.240579
C96   C     C_2   0.961129 0.340419 0.701848 0.607204
O37   O     O_2   0.003110 0.403499 0.669457 -0.541069
O38   O     O_R   0.010789 0.273886 0.715463 -0.638000
H29   H     H_    0.080105 0.284448 0.695527 0.335307
N4    N     N_3   0.379445 0.324276 0.804606 -0.615696
H30   H     H_    0.306977 0.299779 0.780516 0.253575
H31   H     H_    0.406253 0.408886 0.819237 0.230547
N5    N     N_3   0.517582 0.395335 0.208106 -0.652534
H32   H     H_    0.468828 0.331564 0.179819 0.257332
H33   H     H_    0.569110 0.473151 0.193287 0.231129
N6    N     N_3   0.954563 0.642240 0.783107 -0.628763
H34   H     H_    0.903987 0.585047 0.753253 0.234440
H35   H     H_    0.900842 0.671076 0.800339 0.229447
N7    N     N_3   0.322404 0.012789 0.821296 -0.598996
H36   H     H_    0.386365 0.081107 0.803913 0.243112
H37   H     H_    0.366624 0.976949 0.838672 0.224735
C97   C     C_2   0.888129 0.947573 0.703984 0.614233
O39   O     O_2   0.976219 0.943515 0.716760 -0.491647
O40   O     O_R   0.894252 0.014086 0.666563 -0.681171
H38   H     H_    0.975513 0.053693 0.652988 0.342803
N8    N     N_3   0.888619 0.924074 0.806376 -0.562303
H39   H     H_    0.895950 0.859687 0.822615 0.231346
H40   H     H_    0.889201 0.983521 0.833813 0.242446
N9    N     N_3   0.505972 0.369895 0.310154 -0.592990
H41   H     H_    0.442713 0.290129 0.320509 0.215453
H42   H     H_    0.460510 0.400520 0.290275 0.265726
C98   C     C_2   0.201106 0.657951 0.111963 0.584137
O41   O     O_2   0.283093 0.694471 0.084934 -0.510842
O42   O     O_R   0.124874 0.539060 0.111195 -0.683937
H43   H     H_    0.148846 0.492065 0.087828 0.336224
C99   C     C_2   0.155162 0.542910 0.287035 0.654363
O43   O     O_2   0.095215 0.509450 0.322165 -0.458644
O44   O     O_R   0.198404 0.474908 0.263479 -0.695394
H44   H     H_    0.178509 0.403289 0.280135 0.384308
C100  C     C_2   0.210649 0.029711 0.123095 0.591480
O45   O     O_2   0.132447 0.037665 0.102028 -0.464789
O46   O     O_R   0.327303 0.119381 0.124259 -0.717753
H45   H     H_    0.335838 0.185503 0.105953 0.333309

loop_
_geom_bond_atom_site_label_1
_geom_bond_atom_site_label_2
_ccdc_geom_bond_type
C66   C68   A    
O38   H29   S    
C98   O42   S    
Cr5   O16   S    
N2    H24   S    
C96   O37   D    
C34   O26   A    
C53   C55   A    
C35   C36   A    
C88   O17   A    
C100  O45   D    
Cr3   O23   S    
C87   O14   A    
C44   H8    S    
C89   C94   S    
N4    H30   S    
C100  O46   S    
C46   C49   A    
C23   O23   A    
C33   C42   A    
O36   H26   S    
C75   N8    S    
C91   O28   S    
C8    C85   S    
C29   C32   A    
C2    C3    A    
C52   C61   A    
C30   C31   A    
C65   C69   A    
C97   O40   S    
C58   C60   A    
C15   C16   A    
Cr2   O20   S    
C11   C24   A    
C16   C84   S    
C21   H1    S    
C77   H15   S    
C18   C19   A    
C56   O4    A    
C23   C26   S    
C45   C61   S    
N8    H40   S    
Cr2   O5    S    
N7    H36   S    
C2    N5    S    
Cr1   O24   S    
Cr4   O7    S    
Cr5   O15   S    
C94   O34   S    
N7    H37   S    
C13   H17   S    
C92   O29   D    
C52   H11   S    
C44   C46   A    
C12   O22   A    
C36   C37   A    
C93   O31   D    
C85   O10   A    
C86   O6    A    
N9    H41   S    
C13   C14   A    
C35   C43   A    
C75   C80   A    
C18   C20   A    
Cr6   O19   S    
C74   C97   S    
C15   C98   S    
Cr5   O8    S    
C9    H16   S    
Cr4   O13   S    
C50   H7    S    
O32   H22   S    
C12   O21   A    
C21   C22   A    
C93   O32   S    
N3    H28   S    
C96   O38   S    
N3    H27   S    
N8    H39   S    
Cr3   O4    S    
C88   O16   A    
C4    C7    S    
C1    O20   A    
C87   O15   A    
C81   C83   T    
C1    C43   S    
C9    C26   A    
C39   H5    S    
C47   C50   A    
C95   O36   S    
C54   C59   A    
N4    H31   S    
C78   C89   A    
C25   C100  S    
C38   C39   A    
C12   C67   S    
C27   H4    S    
Cr1   O5    S    
C35   C95   S    
C74   C75   A    
Cr6   O11   S    
C55   H10   S    
C30   C92   S    
C76   C77   A    
N1    H20   S    
C10   C14   A    
C39   C40   A    
C64   N6    S    
N1    H19   S    
C6    C8    T    
C98   O41   D    
C50   C51   A    
C58   C59   A    
Cr4   O14   S    
C47   C59   A    
C22   C25   A    
Cr4   O19   S    
N6    H34   S    
Cr3   O3    S    
N9    H42   S    
C33   C86   S    
C57   C58   A    
C4    C78   A    
C29   C30   A    
Cr1   O25   S    
C31   C93   S    
Cr4   O6    S    
C45   O2    A    
C47   C48   A    
C10   C19   A    
C84   O7    A    
C46   C54   A    
C17   C18   A    
C90   O13   A    
C77   C79   A    
C48   N3    S    
C85   O9    A    
C64   C69   A    
C91   O27   D    
C17   H3    S    
Cr6   O18   S    
C57   N4    S    
C90   O18   A    
Cr5   O9    S    
C40   C41   A    
C11   C15   A    
C74   C79   A    
C55   C57   A    
C86   O11   A    
C94   O33   D    
C22   C24   A    
C2    C5    A    
Cr3   O5    S    
C17   C26   A    
C3    C4    A    
C73   C82   T    
Cr5   O19   S    
C72   C87   S    
C52   C53   A    
Cr6   O17   S    
C95   O35   D    
C9    C10   A    
C16   C25   A    
C83   C90   S    
O46   H45   S    
C63   C68   A    
N5    H32   S    
Cr1   O12   S    
Cr6   O10   S    
C29   C41   A    
C20   C21   A    
C28   C31   A    
Cr2   O21   S    
C76   C80   A    
C1    O12   A    
C80   C81   S    
Cr3   O22   S    
C78   C91   S    
C51   C88   S    
C79   C82   S    
C53   C54   A    
C44   C61   A    
C92   O30   S    
C14   C99   S    
Cr1   O1    S    
O34   H25   S    
C36   C38   A    
C42   N2    S    
C84   O8    A    
O40   H38   S    
C38   H6    S    
O30   H21   S    
C32   C33   A    
C23   O1    A    
C49   C96   S    
C56   O24   A    
C11   C13   A    
C45   O3    A    
C97   O39   D    
C5    C6    S    
C28   C37   A    
C68   C71   S    
C48   C49   A    
C40   C42   A    
C34   O25   A    
C62   C71   T    
C19   C24   A    
C56   C62   S    
C65   N7    S    
C66   H13   S    
C37   C41   A    
O42   H43   S    
Cr2   O2    S    
C69   C70   S    
C32   N1    S    
C34   C73   S    
C7    C67   T    
C63   C64   A    
C27   C43   A    
C99   O43   D    
C20   H2    S    
O44   H44   S    
C76   H14   S    
C65   C66   A    
N2    H23   S    
C99   O44   S    
O28   H18   S    
C70   C72   T    
C51   C60   A    
N6    H35   S    
C63   H12   S    
C3    N9    S    
Cr2   O26   S    
C5    C89   A    
C60   H9    S    
N5    H33   S    
C27   C28   A    
