data_mof_unit_34569.cif
_audit_creation_date              2012-12-10T20:38:22-0500
_audit_creation_method            fapswitch 2.2
_symmetry_space_group_name_H-M    P1
_symmetry_Int_Tables_number       1
_space_group_crystal_system       triclinic
_cell_length_a                    9.846243
_cell_length_b                    10.675266
_cell_length_c                    16.751674
_cell_angle_alpha                 90.04574
_cell_angle_beta                  84.946772
_cell_angle_gamma                 90.210988
_cell_volume                      1753.9338624

loop_
_atom_site_label
_atom_site_type_symbol
_atom_type_description
_atom_site_fract_x
_atom_site_fract_y
_atom_site_fract_z
_atom_type_partial_charge
C1    C     C_R   0.500968 0.740084 0.496001 0.903367
C2    C     C_R   0.530336 0.452002 0.263918 -0.023628
C3    C     C_R   0.379255 0.935647 0.491201 0.063907
C4    C     C_R   0.480654 0.499771 0.653157 0.875350
C5    C     C_R   0.502583 0.871591 0.481415 -0.130231
C6    C     C_R   0.623966 0.937016 0.455689 0.096804
C7    C     C_R   0.621613 0.067457 0.457810 -0.257850
C8    C     C_R   0.500256 0.129008 0.483727 -0.158963
C9    C     C_R   0.377901 0.063291 0.491702 0.125961
C10   C     C_3   0.262991 0.068164 0.556471 -0.081939
C11   C     C_3   0.264165 0.925599 0.555562 -0.535150
C12   C     C_R   0.355779 0.421861 0.776934 -0.215866
C13   C     C_R   0.923198 0.592085 0.539102 0.236264
C14   C     C_R   0.934339 0.416301 0.455219 -0.150520
C15   C     C_R   0.078473 0.416441 0.455103 -0.107148
C16   C     C_R   0.500067 0.259983 0.497440 0.890190
C17   C     C_R   0.066003 0.591780 0.539372 0.171061
C18   C     C_3   0.059924 0.619855 0.626851 -0.562574
C19   C     C_3   0.905165 0.619776 0.626763 -0.139787
C20   C     C_R   0.519049 0.492796 0.346998 0.843106
C21   C     C_R   0.467013 0.487659 0.739475 -0.075101
C22   C     C_R   0.568694 0.535245 0.784260 -0.205116
C23   C     C_R   0.429906 0.342891 0.157364 -0.165442
C24   C     C_R   0.563137 0.513077 0.866106 0.136085
C25   C     C_R   0.455180 0.439453 0.902647 0.154103
C26   C     C_R   0.349987 0.397972 0.858432 -0.195613
C27   C     C_R   0.419859 0.388364 0.234921 -0.209512
C28   C     C_R   0.653912 0.463015 0.215965 -0.210334
C29   C     C_R   0.663260 0.418738 0.137518 -0.177257
C30   C     C_R   0.549409 0.363165 0.107376 0.205490
C31   C     C_2   0.445019 0.411321 0.987594 -0.249909
C32   C     C_2   0.545965 0.353578 0.021033 -0.250128
H1    H     H_    0.652165 0.589929 0.755706 0.160767
H2    H     H_    0.325318 0.373881 0.272023 0.150880
H3    H     H_    0.105235 0.712575 0.639154 0.198451
H4    H     H_    0.853402 0.543250 0.662842 0.181493
H5    H     H_    0.741401 0.508657 0.238336 0.148913
H6    H     H_    0.635645 0.320848 0.984664 0.151777
H7    H     H_    0.265048 0.344720 0.886762 0.139373
H8    H     H_    0.341834 0.298534 0.134745 0.130570
H9    H     H_    0.276030 0.385139 0.742777 0.152799
H10   H     H_    0.356049 0.446419 0.023678 0.159252
H11   H     H_    0.736434 0.826695 0.378061 0.181078
H12   H     H_    0.755746 0.435335 0.098910 0.122660
H13   H     H_    0.829539 0.935681 0.420687 0.161655
H14   H     H_    0.116445 0.078878 0.474959 0.186127
H15   H     H_    0.058568 0.103609 0.571277 0.187624
H16   H     H_    0.896362 0.811609 0.608384 0.195993
H17   H     H_    0.853065 0.764344 0.703154 0.189377
H18   H     H_    0.726799 0.501217 0.931686 0.176138
H19   H     H_    0.615783 0.618286 0.959640 0.196903
H20   H     H_    0.715108 0.119829 0.443556 0.161024
H21   H     H_    0.291607 0.111099 0.613216 0.159024
H22   H     H_    0.296336 0.884331 0.611817 0.187981
H23   H     H_    0.172088 0.881772 0.533249 0.202669
H24   H     H_    0.884773 0.347146 0.420400 0.144008
H25   H     H_    0.137953 0.347498 0.420113 0.148673
H26   H     H_    0.098335 0.541209 0.661954 0.210784
N1    N     N_R   0.857140 0.500860 0.500530 -0.118738
N2    N     N_R   0.142780 0.500820 0.500530 -0.099867
N3    N     N_3   0.749019 0.872248 0.432205 -0.425547
N4    N     N_3   0.139471 0.122335 0.528199 -0.434918
N5    N     N_3   0.843231 0.742687 0.643055 -0.426613
N6    N     N_3   0.664470 0.570489 0.910739 -0.476511
O1    O     O_R   0.385310 0.683210 0.499990 -0.613685
O2    O     O_R   0.614650 0.683240 0.500000 -0.583134
O3    O     O_R   0.371780 0.500000 0.615800 -0.617961
O4    O     O_R   0.601120 0.500040 0.615800 -0.613034
O5    O     O_R   0.385350 0.316760 0.500000 -0.606507
O6    O     O_R   0.614690 0.316790 0.500010 -0.624101
O7    O     O_R   0.398880 0.499960 0.384200 -0.622995
O8    O     O_R   0.628220 0.500000 0.384200 -0.623908
Zn1   Zn    Zn3+2 0.346870 0.499980 0.499990 0.947762
Zn2   Zn    Zn3+2 0.653130 0.500020 0.500010 0.954150

loop_
_geom_bond_atom_site_label_1
_geom_bond_atom_site_label_2
_ccdc_geom_bond_type
O6    Zn2   S    
C4    O3    A    
C14   H24   S    
C20   O7    A    
O5    Zn1   S    
C6    C7    A    
O3    Zn1   S    
C31   H10   S    
C23   C27   A    
C4    O4    A    
H18   N6    S    
C9    C10   S    
C1    O1    A    
C31   C32   D    
C18   H3    S    
C13   C17   A    
C2    C27   A    
H15   N4    S    
C17   C18   S    
H19   N6    S    
C16   O6    A    
C7    C8    A    
C24   N6    S    
C10   N4    S    
C21   C22   A    
C30   C32   S    
C4    C21   S    
C15   H25   S    
N1    Zn2   S    
C27   H2    S    
C29   C30   A    
C11   H22   S    
C28   H5    S    
H14   N4    S    
C13   N1    A    
C6    N3    S    
H13   N3    S    
C28   C29   A    
C3    C9    A    
C7    H20   S    
C1    O2    A    
H17   N5    S    
C32   H6    S    
C19   H4    S    
C29   H12   S    
C5    C6    A    
C22   C24   A    
C26   H7    S    
C3    C11   S    
C10   C11   S    
C13   C19   S    
C17   N2    A    
C2    C20   S    
C23   H8    S    
O2    Zn2   S    
C23   C30   A    
N2    Zn1   S    
C1    C5    S    
C11   H23   S    
C24   C25   A    
H11   N3    S    
C12   H9    S    
O8    Zn2   S    
C18   C19   S    
C8    C16   S    
O1    Zn1   S    
C19   N5    S    
O7    Zn1   S    
C10   H21   S    
C14   C15   A    
C20   O8    A    
H16   N5    S    
C2    C28   A    
C14   N1    A    
C25   C26   A    
O4    Zn2   S    
C12   C21   A    
C18   H26   S    
C15   N2    A    
C16   O5    A    
C25   C31   S    
C12   C26   A    
C8    C9    A    
C3    C5    A    
C22   H1    S    
