data_mof_unit_54995.cif
_audit_creation_date              2012-12-10T17:16:41-0500
_audit_creation_method            fapswitch 2.2
_symmetry_space_group_name_H-M    P1
_symmetry_Int_Tables_number       1
_space_group_crystal_system       triclinic
_cell_length_a                    10.057141
_cell_length_b                    10.647618
_cell_length_c                    10.803261
_cell_angle_alpha                 89.354116
_cell_angle_beta                  94.806681
_cell_angle_gamma                 83.689025
_cell_volume                      1145.56316536

loop_
_atom_site_label
_atom_site_type_symbol
_atom_type_description
_atom_site_fract_x
_atom_site_fract_y
_atom_site_fract_z
_atom_type_partial_charge
C1    C     C_R   0.443963 0.504787 0.267365 0.943118
C2    C     C_R   0.507630 0.739079 0.514092 0.880511
C3    C     C_R   0.673430 0.099544 0.341785 -0.186711
C4    C     C_R   0.326703 0.900391 0.658487 -0.186571
C5    C     C_R   0.796230 0.033314 0.320424 -0.272562
C6    C     C_R   0.204067 0.966690 0.680204 -0.272117
C7    C     C_R   0.838358 0.916510 0.381965 0.551192
C8    C     C_R   0.161827 0.083593 0.618803 0.550814
C9    C     C_R   0.750535 0.866805 0.458442 -0.201483
C10   C     C_R   0.249579 0.133268 0.542199 -0.201308
C11   C     C_R   0.620621 0.928739 0.472173 0.000209
C12   C     C_R   0.555633 0.487657 0.732685 0.940455
C13   C     C_R   0.379417 0.071264 0.528160 0.000896
C14   C     C_R   0.589878 0.052215 0.425967 0.085163
C15   C     C_R   0.410144 0.947751 0.574250 0.084165
C16   C     C_R   0.521011 0.872684 0.531995 -0.211073
C17   C     C_R   0.478994 0.127291 0.468201 -0.207518
C18   C     C_3   0.975471 0.126697 0.734308 0.064182
C19   C     C_3   0.858736 0.227589 0.747750 -0.763179
C20   C     C_3   0.022713 0.870519 0.264924 0.065422
C21   C     C_3   0.138448 0.768438 0.251916 -0.763213
C22   C     C_2   0.411519 0.495003 0.135799 -0.388840
C23   C     C_2   0.586458 0.467835 0.864462 -0.387458
C24   C     C_2   0.509615 0.452763 0.066452 -0.160875
C25   C     C_2   0.485202 0.456961 0.934209 -0.146696
C26   C     C_2   0.071803 0.491251 0.488407 -0.087441
C27   C     C_2   0.928224 0.508640 0.511686 -0.084101
C28   C     C_R   0.492387 0.260893 0.486008 0.874195
H1    H     H_    0.644876 0.189380 0.293411 0.158204
H2    H     H_    0.309784 0.523616 0.095499 0.147029
H3    H     H_    0.893938 0.572820 0.582590 0.139571
H4    H     H_    0.106104 0.427022 0.417547 0.140244
H5    H     H_    0.877992 0.388050 0.382204 0.164791
H6    H     H_    0.121988 0.612011 0.617737 0.165966
H7    H     H_    0.047820 0.129528 0.817987 0.127961
H8    H     H_    0.934871 0.033662 0.729126 0.147291
H9    H     H_    0.781852 0.223704 0.668541 0.285978
H10   H     H_    0.812374 0.211131 0.835413 0.184579
H11   H     H_    0.894500 0.322663 0.749649 0.253410
H12   H     H_    0.355286 0.810507 0.706742 0.161412
H13   H     H_    0.063901 0.963315 0.266704 0.146447
H14   H     H_    0.948735 0.866109 0.182671 0.128290
H15   H     H_    0.101992 0.673696 0.252888 0.253732
H16   H     H_    0.183393 0.782449 0.163020 0.182099
H17   H     H_    0.216662 0.773527 0.329810 0.286015
H18   H     H_    0.858902 0.076834 0.259751 0.116704
H19   H     H_    0.141731 0.923096 0.741144 0.116723
H20   H     H_    0.788314 0.781684 0.510921 0.168030
H21   H     H_    0.211739 0.218434 0.489825 0.168678
H22   H     H_    0.381613 0.461444 0.894575 0.187079
H23   H     H_    0.611657 0.424362 0.106329 0.181865
H24   H     H_    0.689762 0.463765 0.904530 0.146519
N1    N     N_2   0.157300 0.551390 0.551120 -0.187990
N2    N     N_2   0.842700 0.448610 0.448880 -0.187429
O1    O     O_R   0.568940 0.489660 0.307530 -0.613789
O2    O     O_3   0.964922 0.849476 0.377072 -0.616386
O3    O     O_R   0.431060 0.510340 0.692470 -0.616924
O4    O     O_R   0.348880 0.522640 0.340350 -0.622187
O5    O     O_R   0.651120 0.477360 0.659650 -0.622420
O6    O     O_R   0.610030 0.300280 0.483580 -0.609560
O7    O     O_R   0.389970 0.699720 0.516420 -0.606557
O8    O     O_R   0.389970 0.333270 0.516400 -0.621655
O9    O     O_R   0.610030 0.666730 0.483600 -0.618562
O10   O     O_3   0.035534 0.151154 0.624182 -0.616616
Zn1   Zn    Zn3+2 0.646940 0.477980 0.478080 0.931692
Zn2   Zn    Zn3+2 0.353060 0.522020 0.521920 0.930591

loop_
_geom_bond_atom_site_label_1
_geom_bond_atom_site_label_2
_ccdc_geom_bond_type
C20   H14   S    
C24   C25   S    
O9    Zn1   S    
C26   H4    S    
C19   H10   S    
C21   H16   S    
C2    C16   S    
C11   C16   A    
C14   C17   A    
C2    O7    A    
C13   C17   A    
O3    Zn2   S    
C20   O2    S    
C20   C21   S    
C24   H23   S    
C23   C25   D    
C20   H13   S    
C23   H24   S    
C27   N2    D    
C1    C22   S    
N2    Zn1   S    
C22   H2    S    
C1    O4    A    
O5    Zn1   S    
N1    Zn2   S    
C9    C11   A    
C12   C23   S    
C18   O10   S    
C26   C27   S    
C10   H21   S    
C3    C14   A    
C19   H11   S    
C7    O2    S    
C4    C15   A    
C12   O3    A    
H6    N1    S    
C8    C10   A    
O1    Zn1   S    
C8    O10   S    
O6    Zn1   S    
C21   H17   S    
C28   O6    A    
C13   C15   A    
C1    O1    A    
C11   C14   A    
C22   C24   D    
C12   O5    A    
C6    H19   S    
O8    Zn2   S    
C27   H3    S    
C15   C16   A    
C26   N1    D    
C7    C9    A    
C3    H1    S    
C2    O9    A    
C9    H20   S    
C4    C6    A    
C18   C19   S    
C18   H7    S    
H5    N2    S    
C5    C7    A    
C25   H22   S    
C6    C8    A    
C19   H9    S    
C3    C5    A    
C21   H15   S    
C17   C28   S    
C18   H8    S    
O7    Zn2   S    
O4    Zn2   S    
C4    H12   S    
C5    H18   S    
C10   C13   A    
C28   O8    A    
