data_mof_unit_16671.cif
_audit_creation_date              2012-12-10T18:25:32-0500
_audit_creation_method            fapswitch 2.2
_symmetry_space_group_name_H-M    P1
_symmetry_Int_Tables_number       1
_space_group_crystal_system       triclinic
_cell_length_a                    15.034335
_cell_length_b                    13.941423
_cell_length_c                    19.291151
_cell_angle_alpha                 89.149897
_cell_angle_beta                  89.205511
_cell_angle_gamma                 89.901817
_cell_volume                      4042.58737688

loop_
_atom_site_label
_atom_site_type_symbol
_atom_type_description
_atom_site_fract_x
_atom_site_fract_y
_atom_site_fract_z
_atom_type_partial_charge
C1    C     C_R   0.326462 0.500064 0.499471 0.885915
C2    C     C_R   0.673538 0.499936 0.500530 0.885913
C3    C     C_R   0.814783 0.413059 0.501361 -0.247528
C4    C     C_R   0.185216 0.586942 0.498648 -0.247523
C5    C     C_R   0.907259 0.411383 0.500755 0.055767
C6    C     C_R   0.092740 0.588618 0.499257 0.055766
C7    C     C_R   0.953638 0.499967 0.500633 0.031121
C8    C     C_R   0.046361 0.500034 0.499380 0.031120
C9    C     C_R   0.906919 0.588481 0.501797 0.055576
C10   C     C_R   0.093080 0.411519 0.498215 0.055577
C11   C     C_R   0.953778 0.323271 0.499833 -0.056078
C12   C     C_R   0.046221 0.676730 0.500182 -0.056079
C13   C     C_R   0.046914 0.323345 0.498226 -0.055306
C14   C     C_R   0.953085 0.676655 0.501788 -0.055305
C15   C     C_R   0.573394 0.798317 0.476220 -0.018292
C16   C     C_R   0.426606 0.201683 0.523781 -0.018297
C17   C     C_R   0.426716 0.797617 0.523987 -0.040815
C18   C     C_R   0.573285 0.202383 0.476013 -0.040810
C19   C     C_R   0.424856 0.898362 0.524429 -0.000785
C20   C     C_R   0.575145 0.101638 0.475572 -0.000786
C21   C     C_R   0.575299 0.899085 0.475866 0.000990
C22   C     C_R   0.424702 0.100915 0.524136 0.000989
C23   C     C_R   0.500070 0.949354 0.500138 0.065626
C24   C     C_R   0.499930 0.050646 0.499864 0.065626
C25   C     C_R   0.350122 0.948982 0.548677 -0.213466
C26   C     C_R   0.649879 0.051018 0.451325 -0.213469
C27   C     C_R   0.649971 0.950422 0.451497 -0.221955
C28   C     C_R   0.350031 0.049578 0.548505 -0.221953
C29   C     C_R   0.493116 0.500762 0.365379 0.876858
C30   C     C_R   0.506885 0.499238 0.634621 0.876859
C31   C     C_R   0.479975 0.590292 0.251291 -0.071070
C32   C     C_R   0.520030 0.409707 0.748708 -0.071066
C33   C     C_R   0.535512 0.584913 0.745858 -0.068811
C34   C     C_R   0.464488 0.415086 0.254142 -0.068813
C35   C     C_R   0.483885 0.588856 0.178473 -0.049138
C36   C     C_R   0.516117 0.411143 0.821525 -0.049137
C37   C     C_R   0.531389 0.585742 0.818645 -0.049019
C38   C     C_R   0.468610 0.414257 0.181354 -0.049020
C39   C     C_R   0.482100 0.500586 0.144265 -0.034375
C40   C     C_R   0.517899 0.499412 0.855734 -0.034375
C41   C     C_R   0.478927 0.502271 0.289496 -0.179173
C42   C     C_R   0.521075 0.497728 0.710503 -0.179175
C43   C     C_R   0.509510 0.500926 0.930739 0.313797
C44   C     C_R   0.490488 0.499072 0.069260 0.313796
C45   C     C_R   0.814465 0.586704 0.502457 -0.250997
C46   C     C_R   0.185534 0.413295 0.497549 -0.250994
C47   C     C_R   0.769206 0.499875 0.501595 -0.082157
C48   C     C_R   0.230794 0.500125 0.498410 -0.082156
H1    H     H_    0.776915 0.653014 0.503136 0.162950
H2    H     H_    0.223085 0.346985 0.496868 0.162949
H3    H     H_    0.777462 0.346730 0.501147 0.163399
H4    H     H_    0.222537 0.653271 0.498862 0.163398
H5    H     H_    0.630191 0.758294 0.457244 0.130315
H6    H     H_    0.369810 0.241706 0.542757 0.130315
H7    H     H_    0.369912 0.757004 0.542932 0.131836
H8    H     H_    0.630088 0.242996 0.457068 0.131835
H9    H     H_    0.291907 0.910813 0.567867 0.162762
H10   H     H_    0.708094 0.089187 0.432134 0.162760
H11   H     H_    0.708200 0.912805 0.432352 0.162631
H12   H     H_    0.291802 0.087195 0.567651 0.162634
N1    N     N_R   0.560091 0.453328 0.039120 -0.177743
N2    N     N_R   0.439908 0.546670 0.960879 -0.177742
N3    N     N_R   0.569404 0.454054 0.970647 -0.169851
N4    N     N_R   0.430594 0.545944 0.029352 -0.169851
N5    N     N_R   0.500000 0.750030 0.500000 -0.094758
N6    N     N_R   0.500000 0.249970 0.500000 -0.094757
O1    O     O_R   0.367850 0.580280 0.500020 -0.636662
O2    O     O_R   0.632150 0.419720 0.499980 -0.636663
O3    O     O_R   0.632150 0.580280 0.499980 -0.633864
O4    O     O_R   0.367850 0.419720 0.500020 -0.633864
O5    O     O_R   0.499990 0.580300 0.398140 -0.605432
O6    O     O_R   0.500010 0.419700 0.601860 -0.605431
O7    O     O_R   0.500010 0.580300 0.601860 -0.604207
O8    O     O_R   0.499990 0.419700 0.398140 -0.604207
Zn1   Zn    Zn3+2 0.500000 0.607200 0.500000 0.959231
Zn2   Zn    Zn3+2 0.500000 0.392800 0.500000 0.959231
C49   C     C_R   0.468478 0.684509 0.285543 0.172630
C50   C     C_R   0.385338 0.708860 0.314528 -0.127369
C51   C     C_R   0.371115 0.800297 0.341275 -0.137619
C52   C     C_R   0.439257 0.868260 0.338401 -0.099258
C53   C     C_R   0.522405 0.844324 0.310276 -0.147137
C54   C     C_R   0.537456 0.752406 0.284587 -0.126843
H13   H     H_    0.331408 0.657411 0.315467 0.112765
H14   H     H_    0.307014 0.818804 0.363591 0.138372
H15   H     H_    0.427856 0.939173 0.358589 0.125274
H16   H     H_    0.575212 0.896997 0.308508 0.133236
H17   H     H_    0.601953 0.734757 0.262557 0.119770
C55   C     C_R   0.531536 0.315492 0.714454 0.172622
C56   C     C_R   0.462567 0.247585 0.715412 -0.126839
C57   C     C_R   0.477627 0.155670 0.689720 -0.147136
C58   C     C_R   0.560776 0.131747 0.661591 -0.099262
C59   C     C_R   0.628910 0.199720 0.658716 -0.137615
C60   C     C_R   0.614677 0.291154 0.685466 -0.127369
H18   H     H_    0.398068 0.265225 0.737445 0.119773
H19   H     H_    0.424827 0.102990 0.691489 0.133237
H20   H     H_    0.572185 0.060837 0.641401 0.125278
H21   H     H_    0.693011 0.181223 0.636397 0.138376
H22   H     H_    0.668601 0.342610 0.684525 0.112764
C61   C     C_R   0.565575 0.673339 0.708266 0.172878
C62   C     C_R   0.651125 0.676570 0.678078 -0.134300
C63   C     C_R   0.681854 0.760753 0.645700 -0.129355
C64   C     C_R   0.627770 0.842318 0.643735 -0.109059
C65   C     C_R   0.542170 0.839292 0.672925 -0.142410
C66   C     C_R   0.510725 0.754876 0.704567 -0.108125
H23   H     H_    0.694090 0.614174 0.680212 0.110518
H24   H     H_    0.747833 0.762959 0.622592 0.140035
H25   H     H_    0.652007 0.907564 0.619043 0.137326
H26   H     H_    0.499981 0.902197 0.670816 0.129771
H27   H     H_    0.444151 0.753192 0.726655 0.112182
C67   C     C_R   0.434429 0.326660 0.291733 0.172880
C68   C     C_R   0.489282 0.245126 0.295433 -0.108126
C69   C     C_R   0.457840 0.160709 0.327074 -0.142412
C70   C     C_R   0.372240 0.157677 0.356264 -0.109060
C71   C     C_R   0.318152 0.239240 0.354299 -0.129355
C72   C     C_R   0.348878 0.323425 0.321921 -0.134299
H28   H     H_    0.555856 0.246814 0.273346 0.112181
H29   H     H_    0.500033 0.097806 0.329185 0.129770
H30   H     H_    0.348006 0.092430 0.380955 0.137324
H31   H     H_    0.252173 0.237031 0.377406 0.140032
H32   H     H_    0.305910 0.385818 0.319786 0.110518
C73   C     C_R   0.490950 0.680483 0.138388 0.130424
C74   C     C_R   0.573665 0.710646 0.111543 -0.156361
C75   C     C_R   0.582213 0.801181 0.080095 -0.110821
C76   C     C_R   0.508207 0.861566 0.074713 -0.109380
C77   C     C_R   0.425229 0.830972 0.099824 -0.133636
C78   C     C_R   0.416469 0.740681 0.131636 -0.108244
H33   H     H_    0.631721 0.665139 0.116697 0.126575
H34   H     H_    0.646369 0.824875 0.060390 0.123112
H35   H     H_    0.515110 0.931906 0.050810 0.100639
H36   H     H_    0.367949 0.877666 0.095363 0.119074
H37   H     H_    0.352310 0.718382 0.152315 0.121266
C79   C     C_R   0.509054 0.319515 0.861611 0.130420
C80   C     C_R   0.583536 0.259319 0.868364 -0.108243
C81   C     C_R   0.574778 0.169028 0.900176 -0.133638
C82   C     C_R   0.491800 0.138433 0.925287 -0.109383
C83   C     C_R   0.417793 0.198816 0.919904 -0.110822
C84   C     C_R   0.426339 0.289351 0.888455 -0.156364
H38   H     H_    0.647695 0.281619 0.847684 0.121268
H39   H     H_    0.632058 0.122336 0.904638 0.119075
H40   H     H_    0.484898 0.068093 0.949191 0.100639
H41   H     H_    0.353637 0.175122 0.939609 0.123113
H42   H     H_    0.368282 0.334857 0.883300 0.126577
C85   C     C_R   0.548531 0.676350 0.855656 0.127695
C86   C     C_R   0.477940 0.737886 0.873022 -0.131848
C87   C     C_R   0.495335 0.828343 0.900043 -0.115199
C88   C     C_R   0.583091 0.857516 0.910051 -0.110281
C89   C     C_R   0.653492 0.795602 0.894397 -0.136895
C90   C     C_R   0.636391 0.705239 0.867191 -0.132595
H43   H     H_    0.409882 0.716816 0.863768 0.125082
H44   H     H_    0.440890 0.876201 0.912618 0.117594
H45   H     H_    0.596588 0.927808 0.930446 0.105425
H46   H     H_    0.721352 0.818123 0.902538 0.123211
H47   H     H_    0.691465 0.658784 0.853386 0.123492
C91   C     C_R   0.451468 0.323649 0.144344 0.127696
C92   C     C_R   0.363608 0.294759 0.132809 -0.132597
C93   C     C_R   0.346508 0.204396 0.105604 -0.136895
C94   C     C_R   0.416909 0.142483 0.089949 -0.110282
C95   C     C_R   0.504665 0.171657 0.099956 -0.115197
C96   C     C_R   0.522060 0.262113 0.126978 -0.131846
H48   H     H_    0.308534 0.341214 0.146614 0.123491
H49   H     H_    0.278648 0.181874 0.097462 0.123211
H50   H     H_    0.403413 0.072191 0.069554 0.105425
H51   H     H_    0.559110 0.123798 0.087381 0.117593
H52   H     H_    0.590118 0.283183 0.136231 0.125081
C97   C     C_1   0.906542 0.232270 0.500732 0.154470
N7    N     N_1   0.868996 0.159845 0.501519 -0.218235
C98   C     C_1   0.093457 0.767731 0.499286 0.154474
N8    N     N_1   0.131003 0.840156 0.498502 -0.218235
C99   C     C_1   0.094499 0.232440 0.496571 0.145856
N9    N     N_1   0.132308 0.160087 0.495212 -0.220994
C100  C     C_1   0.905500 0.767560 0.503442 0.145852
N10   N     N_1   0.867690 0.839912 0.504802 -0.220994

loop_
_geom_bond_atom_site_label_1
_geom_bond_atom_site_label_2
_ccdc_geom_bond_type
C84   H42   S    
C9    C45   A    
C97   N7    T    
C99   N9    T    
C19   C23   A    
C89   C90   A    
C81   H39   S    
C100  N10   T    
C12   C98   S    
C53   C54   A    
C57   C58   A    
C43   N3    A    
C75   C76   A    
C49   C50   A    
C44   N4    A    
C25   C28   A    
C62   H23   S    
C63   C64   A    
C77   C78   A    
O8    Zn2   S    
C4    H4    S    
C33   C42   A    
C32   C36   A    
C93   C94   A    
C5    C11   A    
C37   C40   A    
C2    O2    A    
C36   C79   S    
C6    C12   A    
C51   H14   S    
C52   C53   A    
C54   H17   S    
C15   N5    A    
C74   H33   S    
C56   H18   S    
N1    N3    A    
C67   C68   A    
C62   C63   A    
N2    N4    A    
C65   C66   A    
C1    O1    A    
C58   H20   S    
C70   C71   A    
C77   H36   S    
C94   C95   A    
C20   C24   A    
C79   C80   A    
C10   C46   A    
C23   C24   A    
C65   H26   S    
C45   H1    S    
C2    O3    A    
C82   C83   A    
C17   H7    S    
C18   C20   A    
C71   H31   S    
O6    Zn2   S    
C13   C99   S    
C61   C66   A    
C21   C27   A    
C49   C54   A    
C80   H38   S    
C22   C28   A    
C66   H27   S    
O7    Zn1   S    
C85   C90   A    
C34   C41   A    
C25   H9    S    
C50   H13   S    
C2    C47   S    
C69   C70   A    
C18   N6    A    
C59   H21   S    
C31   C49   S    
C45   C47   A    
C82   H40   S    
C46   C48   A    
C73   C74   A    
C36   C40   A    
C4    C6    A    
C58   C59   A    
C5    C7    A    
C30   O7    A    
C3    H3    S    
C50   C51   A    
C14   C100  S    
C6    C8    A    
C29   O8    A    
C79   C84   A    
C33   C37   A    
C70   H30   S    
C88   H45   S    
C33   C61   S    
C95   C96   A    
C35   C39   A    
C9    C14   A    
C52   H15   S    
C61   C62   A    
C35   C73   S    
N6    Zn2   S    
C40   C43   S    
C26   C27   A    
C53   H16   S    
C64   H25   S    
C26   H10   S    
C91   C92   A    
C68   H28   S    
C28   H12   S    
C95   H51   S    
C37   C85   S    
C12   C14   A    
C93   H49   S    
C21   C23   A    
O4    Zn2   S    
C80   C81   A    
C34   C67   S    
C22   C24   A    
C16   N6    A    
C90   H47   S    
C38   C91   S    
C15   H5    S    
C87   C88   A    
C98   N8    T    
C88   C89   A    
C4    C48   A    
C63   H24   S    
C7    C9    A    
C55   C60   A    
C16   C22   A    
C31   C41   A    
C68   C69   A    
C29   C41   S    
C92   H48   S    
C34   C38   A    
C87   H44   S    
C83   C84   A    
C3    C5    A    
C10   C13   A    
C57   H19   S    
C30   O6    A    
C1    C48   S    
C71   C72   A    
C39   C44   S    
C18   H8    S    
C44   N1    A    
O2    Zn2   S    
C46   H2    S    
C81   C82   A    
C17   N5    A    
C1    O4    A    
N5    Zn1   S    
C69   H29   S    
C86   C87   A    
C60   H22   S    
C89   H46   S    
C56   C57   A    
C73   C78   A    
C27   H11   S    
O5    Zn1   S    
C11   C13   A    
C75   H34   S    
C38   C39   A    
C15   C21   A    
C20   C26   A    
C78   H37   S    
C94   H50   S    
C3    C47   A    
C59   C60   A    
C17   C19   A    
C83   H41   S    
C76   H35   S    
O3    Zn1   S    
C31   C35   A    
C64   C65   A    
C19   C25   A    
C86   H43   S    
C16   H6    S    
C7    C8    A    
C51   C52   A    
C91   C96   A    
O1    Zn1   S    
C55   C56   A    
C8    C10   A    
C72   H32   S    
C92   C93   A    
C11   C97   S    
C32   C42   A    
C96   H52   S    
C30   C42   S    
C74   C75   A    
C67   C72   A    
C85   C86   A    
C43   N2    A    
C76   C77   A    
C29   O5    A    
C32   C55   S    
