data_mof_unit_27591.cif
_audit_creation_date              2013-03-05T15:55:18-0500
_audit_creation_method            fapswitch 2.2
_symmetry_space_group_name_H-M    P1
_symmetry_Int_Tables_number       1
_space_group_crystal_system       triclinic
_cell_length_a                    6.930589
_cell_length_b                    16.838252
_cell_length_c                    17.038013
_cell_angle_alpha                 100.493987
_cell_angle_beta                  90.8245
_cell_angle_gamma                 89.348176
_cell_volume                      1954.78263889

loop_
_atom_site_label
_atom_site_type_symbol
_atom_site_description
_atom_site_fract_x
_atom_site_fract_y
_atom_site_fract_z
_atom_type_partial_charge
O1    O     O_R   0.494370 0.415690 0.413450 -0.596932
O2    O     O_R   0.819420 0.429360 0.578420 -0.604054
O3    O     O_R   0.994280 0.584310 0.586550 -0.567933
C1    C     C_R   0.653977 0.413748 0.605490 0.943184
O4    O     O_R   0.823790 0.406230 0.413570 -0.596314
O5    O     O_R   0.998670 0.561000 0.420530 -0.603536
C2    C     C_R   0.654767 0.383216 0.384879 0.951008
O6    O     O_R   0.489970 0.439000 0.579470 -0.590698
O7    O     O_3   0.662300 0.550810 0.502470 -0.266629
V1    V     V_3+5 0.935380 0.490570 0.499540 1.168889
O8    O     O_R   0.328650 0.570640 0.421580 -0.594296
C3    C     C_R   0.157040 0.586433 0.395204 0.927795
O9    O     O_R   0.324290 0.593770 0.586430 -0.588862
C4    C     C_R   0.155169 0.617599 0.614361 0.945340
V2    V     V_3+5 0.435930 0.509430 0.500460 1.172082
O10   O     O_3   0.159140 0.449190 0.497530 -0.277567
C5    C     C_R   0.301353 0.706075 0.734338 -0.157250
H1    H     H_    0.432510 0.670096 0.725917 0.170169
C6    C     C_R   0.290360 0.769526 0.799883 -0.110843
H2    H     H_    0.414169 0.781333 0.839665 0.152354
C7    C     C_R   0.120434 0.815866 0.815085 -0.176214
C8    C     C_R   0.963851 0.799080 0.761560 -0.272038
H3    H     H_    0.833038 0.835229 0.770896 0.142790
C9    C     C_R   0.976774 0.738242 0.693356 0.601040
C10   C     C_R   0.144157 0.688204 0.681211 -0.312018
C11   C     C_R   0.132381 0.637905 0.333576 -0.158427
C12   C     C_R   0.129343 0.860914 0.166046 -0.342010
C13   C     C_R   0.319177 0.828649 0.278925 0.384367
C14   C     C_R   0.281913 0.877061 0.221611 -0.232007
C15   C     C_R   0.008949 0.794313 0.168429 0.316438
C16   C     C_R   0.048230 0.743083 0.224611 0.015679
C17   C     C_R   0.206072 0.759418 0.279455 -0.004251
C18   C     C_R   0.248993 0.705178 0.332215 -0.174140
C19   C     C_R   0.976145 0.623290 0.279753 -0.149307
C20   C     C_R   0.936020 0.674212 0.225589 -0.069482
H4    H     H_    0.370296 0.715235 0.373337 0.166827
H5    H     H_    0.883830 0.571719 0.279446 0.137233
H6    H     H_    0.815903 0.658918 0.184587 0.164343
H7    H     H_    0.371862 0.929274 0.221436 0.178688
C21   C     C_R   0.663202 0.361467 0.667459 -0.138338
C22   C     C_R   0.601599 0.138663 0.832666 -0.132389
C23   C     C_R   0.403491 0.193642 0.734481 -0.218929
C24   C     C_R   0.431085 0.138873 0.786261 -0.129217
C25   C     C_R   0.747146 0.193865 0.824380 -0.258551
C26   C     C_R   0.719274 0.249919 0.772567 0.206093
C27   C     C_R   0.545546 0.250179 0.727537 0.218941
C28   C     C_R   0.517654 0.306256 0.675744 -0.280821
C29   C     C_R   0.833754 0.361216 0.713836 -0.135477
C30   C     C_R   0.861352 0.306437 0.765607 -0.209517
H8    H     H_    0.386584 0.304951 0.640048 0.138088
H9    H     H_    0.948819 0.403056 0.709153 0.139643
H10   H     H_    0.269735 0.192282 0.700531 0.128689
H11   H     H_    0.995131 0.307775 0.799539 0.143143
H12   H     H_    0.316054 0.097012 0.790927 0.128931
H13   H     H_    0.878201 0.195180 0.860090 0.152995
C31   C     C_R   0.792854 0.258700 0.299257 -0.084826
H14   H     H_    0.918258 0.261959 0.338353 0.127537
C32   C     C_R   0.780589 0.195552 0.233510 -0.065369
H15   H     H_    0.896451 0.151237 0.224318 0.139116
C33   C     C_R   0.620707 0.188841 0.180812 -0.307432
C34   C     C_R   0.472562 0.248571 0.194895 0.374061
C35   C     C_R   0.483300 0.309783 0.263071 -0.235344
H16   H     H_    0.369870 0.355168 0.273291 0.167692
C36   C     C_R   0.643269 0.315892 0.315319 -0.190764
O11   O     O_R   0.774880 0.061150 0.920630 -0.605067
O12   O     O_R   0.440980 0.093710 0.086500 -0.571496
O13   O     O_R   0.266190 0.938890 0.079390 -0.595900
C37   C     C_R   0.609990 0.118424 0.113704 0.996708
O14   O     O_R   0.445420 0.070740 0.921670 -0.589655
O15   O     O_R   0.270660 0.915760 0.913380 -0.612542
C38   C     C_R   0.610853 0.086389 0.894622 0.948403
O16   O     O_R   0.770400 0.084270 0.086640 -0.596192
O17   O     O_3   0.602590 0.949210 0.997500 -0.255635
V3    V     V_3+5 0.329470 0.009420 0.000470 1.228993
O18   O     O_R   0.940650 0.906250 0.913470 -0.589015
C39   C     C_R   0.109616 0.883370 0.884692 0.964574
O19   O     O_R   0.936210 0.929220 0.078300 -0.559781
C40   C     C_R   0.107507 0.912946 0.104391 1.034528
V4    V     V_3+5 0.828930 0.990510 0.999490 1.233457
O20   O     O_3   0.105680 0.050790 0.002500 -0.262638
N1    N     N_R   0.854317 0.776166 0.111293 0.232611
O21   O     O_R   0.675996 0.782330 0.134623 -0.390366
O22   O     O_R   0.891453 0.756070 0.035587 -0.405101
N2    N     N_R   0.316993 0.251240 0.138693 0.234501
O23   O     O_R   0.353291 0.244172 0.062986 -0.390848
O24   O     O_R   0.146517 0.275994 0.163944 -0.416493
O25   O     O_3   0.821575 0.727717 0.640393 -0.661229
C41   C     C_3   0.869304 0.755258 0.569255 0.240766
H17   H     H_    0.787785 0.718278 0.519213 0.148732
H18   H     H_    0.024898 0.747266 0.553428 0.045082
C42   C     C_3   0.809573 0.843807 0.574184 -0.408858
H19   H     H_    0.650104 0.849452 0.579381 0.236256
H20   H     H_    0.876517 0.881383 0.627806 0.194726
C43   C     C_3   0.873600 0.875307 0.500221 -0.777647
H21   H     H_    0.033662 0.876388 0.497945 0.255609
H22   H     H_    0.817282 0.937643 0.502327 0.273493
H23   H     H_    0.818038 0.836068 0.445235 0.294102
N3    N     N_R   0.470505 0.851815 0.336742 0.222783
O26   O     O_R   0.631471 0.879891 0.314952 -0.411129
O27   O     O_R   0.433868 0.860133 0.412511 -0.457103

loop_
_geom_bond_atom_site_label_1
_geom_bond_atom_site_label_2
_geom_bond_distance
_ccdc_geom_bond_type
C21   C28   1.405341 A    
O12   C37   1.298176 A    
O25   C41   1.418920 S    
O11   V4    1.979384 S    
C12   C14   1.404371 A    
C19   H5    1.083668 S    
O17   V3    2.133968 S    
C6    H2    1.083195 S    
C1    O6    1.308630 A    
C12   C40   1.490522 S    
N1    O21   1.300905 A    
O19   C40   1.305338 A    
C7    C39   1.487858 S    
C13   C14   1.400968 A    
C6    C7    1.406099 A    
N2    O24   1.301106 A    
O16   V4    2.002667 S    
O5    C3    1.290712 A    
C15   C16   1.422140 A    
C32   C33   1.408557 A    
V2    O10   2.175863 S    
O12   V3    1.998682 S    
C18   H4    1.081385 S    
C31   H14   1.083142 S    
C19   C20   1.392697 A    
C23   C27   1.398307 A    
O14   C38   1.289456 A    
C35   C36   1.404647 A    
C11   C18   1.402787 A    
O8    V2    1.969695 S    
C11   C19   1.403302 A    
C29   H9    1.083389 S    
C1    C21   1.493034 S    
O15   V3    1.999965 S    
C31   C36   1.402327 A    
O1    V2    2.000889 S    
O7    V1    2.133991 S    
C22   C38   1.492778 S    
V3    O20   1.691219 S    
C7    C8    1.404938 A    
C12   C15   1.412216 A    
C22   C24   1.412698 A    
C43   H21   1.111033 S    
O13   C40   1.293824 A    
N1    O22   1.301198 A    
C28   H8    1.084091 S    
O19   V4    1.969640 S    
C13   C17   1.413614 A    
C20   H6    1.081661 S    
C9    C10   1.421136 A    
C42   H19   1.111631 S    
O4    C2    1.298548 A    
C43   H23   1.110157 S    
C32   H15   1.083295 S    
C26   C27   1.418757 A    
C3    C11   1.485223 S    
C33   C34   1.420907 A    
O2    C1    1.289502 A    
O18   C39   1.302924 A    
C35   H16   1.083578 S    
C42   H20   1.110943 S    
C24   H12   1.083402 S    
C16   C17   1.424540 A    
C41   C42   1.530655 S    
C26   C30   1.398258 A    
C37   O16   1.297279 A    
C14   H7    1.084005 S    
C5    H1    1.083253 S    
O17   V4    1.720519 S    
O14   V3    2.017258 S    
O13   V3    2.005320 S    
N2    O23   1.301542 A    
C43   H22   1.110274 S    
O3    C4    1.297821 A    
C29   C30   1.397481 A    
C41   H18   1.116031 S    
O6    V2    1.978828 S    
N3    O27   1.301301 A    
O9    V2    2.002713 S    
O15   C39   1.297358 A    
C22   C25   1.405236 A    
C16   C20   1.406350 A    
C23   C24   1.397454 A    
O2    V1    2.017151 S    
C25   C26   1.414898 A    
C13   N3    1.436018 S    
C21   C29   1.412724 A    
C27   C28   1.414964 A    
O1    C2    1.294794 A    
C34   N2    1.437457 S    
O5    V1    2.005330 S    
O8    C3    1.306981 A    
C5    C10   1.405949 A    
C17   C18   1.419818 A    
C15   N1    1.434790 S    
O7    V2    1.721240 S    
O4    V1    1.998772 S    
O3    V1    2.000163 S    
O11   C38   1.308587 A    
C42   C43   1.526837 S    
C25   H13   1.084115 S    
C30   H11   1.083840 S    
C5    C6    1.400134 A    
C31   C32   1.399318 A    
C8    C9    1.405368 A    
C4    C10   1.491212 S    
C34   C35   1.407233 A    
C9    O25   1.385938 S    
C2    C36   1.485264 S    
V4    O20   2.175835 S    
C41   H17   1.111137 S    
C33   C37   1.491461 S    
N3    O26   1.301435 A    
C8    H3    1.083547 S    
V1    O10   1.691110 S    
O9    C4    1.302728 A    
O18   V4    2.002676 S    
C23   H10   1.083833 S    
