data_mof_unit_62165.cif
_audit_creation_date              2013-03-05T16:05:49-0500
_audit_creation_method            fapswitch 2.2
_symmetry_space_group_name_H-M    P1
_symmetry_Int_Tables_number       1
_space_group_crystal_system       triclinic
_cell_length_a                    38.744354
_cell_length_b                    45.130107
_cell_length_c                    29.697022
_cell_angle_alpha                 89.99993
_cell_angle_beta                  130.660653
_cell_angle_gamma                 90.000117
_cell_volume                      39390.3833691

loop_
_atom_site_label
_atom_site_type_symbol
_atom_site_description
_atom_site_fract_x
_atom_site_fract_y
_atom_site_fract_z
_atom_type_partial_charge
O1    O     O_R   0.798060 0.763370 0.096070 -0.587539
O2    O     O_R   0.201940 0.763370 0.903930 -0.587604
O3    O     O_R   0.298060 0.263370 0.096070 -0.587503
O4    O     O_R   0.701940 0.263370 0.903930 -0.587576
O5    O     O_R   0.763350 0.798040 0.026640 -0.621899
O6    O     O_R   0.236650 0.798040 0.973360 -0.621874
O7    O     O_R   0.263350 0.298040 0.026640 -0.621924
O8    O     O_R   0.736650 0.298040 0.973360 -0.621897
C1    C     C_R   0.790597 0.790584 0.081164 0.909710
C2    C     C_R   0.209403 0.790584 0.918836 0.909738
C3    C     C_R   0.290598 0.290584 0.081164 0.909720
C4    C     C_R   0.709402 0.290584 0.918836 0.909748
O9    O     O_R   0.716420 0.732650 0.034650 -0.619211
O10   O     O_R   0.283580 0.732650 0.965350 -0.619343
O11   O     O_R   0.216420 0.232650 0.034650 -0.619121
O12   O     O_R   0.783580 0.232650 0.965350 -0.619267
O13   O     O_R   0.681710 0.767330 0.965220 -0.623987
O14   O     O_R   0.318290 0.767330 0.034780 -0.623944
O15   O     O_R   0.181710 0.267330 0.965220 -0.624036
O16   O     O_R   0.818290 0.267330 0.034780 -0.624013
C5    C     C_R   0.682560 0.749987 0.999951 0.861232
C6    C     C_R   0.317440 0.749986 0.000049 0.861125
C7    C     C_R   0.182560 0.249987 0.999951 0.861324
C8    C     C_R   0.817440 0.249987 0.000049 0.861209
Zn1   Zn    Zn3+2 0.773170 0.726840 0.046290 1.002140
Zn2   Zn    Zn3+2 0.226830 0.726840 0.953710 1.002011
Zn3   Zn    Zn3+2 0.273170 0.226840 0.046290 1.002220
Zn4   Zn    Zn3+2 0.726830 0.226840 0.953710 1.002220
Zn5   Zn    Zn3+2 0.726820 0.773140 0.953570 0.974600
Zn6   Zn    Zn3+2 0.273180 0.773140 0.046430 0.974777
Zn7   Zn    Zn3+2 0.226820 0.273140 0.953570 0.974462
Zn8   Zn    Zn3+2 0.773180 0.273140 0.046430 0.974236
O17   O     O_R   0.736630 0.701940 0.973210 -0.616846
O18   O     O_R   0.263370 0.701940 0.026790 -0.616902
O19   O     O_R   0.236630 0.201940 0.973210 -0.616816
O20   O     O_R   0.763370 0.201940 0.026790 -0.616729
O21   O     O_R   0.701920 0.736610 0.903790 -0.614046
O22   O     O_R   0.298080 0.736610 0.096210 -0.613890
O23   O     O_R   0.201920 0.236610 0.903790 -0.614092
O24   O     O_R   0.798080 0.236610 0.096210 -0.614313
O25   O     O_R   0.818270 0.732650 0.034640 -0.619510
O26   O     O_R   0.181730 0.732650 0.965360 -0.619474
O27   O     O_R   0.318270 0.232650 0.034640 -0.619561
O28   O     O_R   0.681730 0.232650 0.965360 -0.619419
O29   O     O_R   0.783570 0.767330 0.965210 -0.621979
O30   O     O_R   0.216430 0.767330 0.034790 -0.621957
O31   O     O_R   0.283570 0.267330 0.965210 -0.622009
O32   O     O_R   0.716430 0.267330 0.034790 -0.622079
C9    C     C_R   0.709363 0.709399 0.918705 0.913218
C10   C     C_R   0.290637 0.709399 0.081295 0.913162
C11   C     C_R   0.209363 0.209399 0.918705 0.913240
C12   C     C_R   0.790637 0.209398 0.081294 0.913363
C13   C     C_R   0.817423 0.749996 0.999920 0.865970
C14   C     C_R   0.182576 0.749996 0.000079 0.866060
C15   C     C_R   0.317423 0.249996 0.999920 0.865896
C16   C     C_R   0.682577 0.249996 0.000080 0.866169
C17   C     C_R   0.615494 0.774407 0.977527 -0.186089
C18   C     C_R   0.384510 0.774406 0.022480 -0.186109
C19   C     C_R   0.115466 0.274395 0.977474 -0.186100
C20   C     C_R   0.884537 0.274394 0.022532 -0.186149
H1    H     H_    0.620376 0.793533 0.960176 0.158409
H2    H     H_    0.379630 0.793531 0.039836 0.158435
H3    H     H_    0.120325 0.293512 0.960078 0.158388
H4    H     H_    0.879680 0.293510 0.039930 0.158406
C21   C     C_R   0.579838 0.774512 0.978022 -0.153823
C22   C     C_R   0.420167 0.774511 0.021987 -0.153810
C23   C     C_R   0.079810 0.274501 0.977969 -0.153868
C24   C     C_R   0.920193 0.274500 0.022038 -0.153863
H5    H     H_    0.557595 0.793624 0.960575 0.152217
H6    H     H_    0.442412 0.793621 0.039439 0.152244
H7    H     H_    0.057545 0.293602 0.960478 0.152162
H8    H     H_    0.942460 0.293600 0.039533 0.152187
C25   C     C_R   0.572656 0.749968 0.000006 0.083194
C26   C     C_R   0.427346 0.749968 0.999998 0.083194
C27   C     C_R   0.072656 0.249969 0.000007 0.083228
C28   C     C_R   0.927346 0.249968 0.999996 0.083232
C29   C     C_R   0.601808 0.725430 0.021983 -0.153500
C30   C     C_R   0.398191 0.725431 0.978014 -0.153573
C31   C     C_R   0.101835 0.225442 0.022039 -0.153474
C32   C     C_R   0.898165 0.225443 0.977960 -0.153555
H9    H     H_    0.597006 0.706315 0.039436 0.152106
H10   H     H_    0.402991 0.706317 0.960557 0.152086
H11   H     H_    0.097054 0.206338 0.039536 0.152099
H12   H     H_    0.902944 0.206339 0.960460 0.152078
C33   C     C_R   0.637948 0.725547 0.022456 -0.183522
C34   C     C_R   0.362050 0.725548 0.977540 -0.183645
C35   C     C_R   0.137975 0.225560 0.022511 -0.183422
C36   C     C_R   0.862024 0.225560 0.977487 -0.183567
H13   H     H_    0.660170 0.706426 0.039795 0.158698
H14   H     H_    0.339826 0.706428 0.960195 0.158685
H15   H     H_    0.160218 0.206448 0.039895 0.158734
H16   H     H_    0.839779 0.206450 0.960099 0.158718
C37   C     C_R   0.644858 0.749980 0.999982 -0.034878
C38   C     C_R   0.355142 0.749980 0.000019 -0.034898
C39   C     C_R   0.144858 0.249980 0.999983 -0.034884
C40   C     C_R   0.855143 0.249980 0.000018 -0.034909
N1    N     N_R   0.517205 0.724058 0.000115 -0.172614
N2    N     N_R   0.482794 0.724058 0.999884 -0.172599
N3    N     N_R   0.017206 0.224059 0.000116 -0.172610
N4    N     N_R   0.982794 0.224059 0.999883 -0.172597
C41   C     C_R   0.465110 0.749964 0.999995 0.286195
C42   C     C_R   0.534892 0.749964 0.000010 0.286214
C43   C     C_R   0.965110 0.249965 0.999994 0.286178
C44   C     C_R   0.034892 0.249965 0.000010 0.286204
N5    N     N_R   0.482910 0.775870 0.000115 -0.170555
N6    N     N_R   0.517096 0.775870 0.999897 -0.170538
N7    N     N_R   0.982909 0.275871 0.000113 -0.170576
N8    N     N_R   0.017095 0.275871 0.999896 -0.170558
C45   C     C_3   0.903715 0.842014 0.268412 0.293110
C46   C     C_3   0.095815 0.842266 0.732086 0.293112
C47   C     C_3   0.403325 0.341822 0.268794 0.293096
C48   C     C_3   0.596148 0.342092 0.731741 0.293111
C49   C     C_3   0.863492 0.881860 0.186989 -0.516974
C50   C     C_3   0.137408 0.882107 0.813507 -0.516949
C51   C     C_3   0.364214 0.381659 0.187393 -0.517018
C52   C     C_3   0.636771 0.381937 0.813165 -0.517002
C53   C     C_3   0.888386 0.906225 0.235655 0.200583
C54   C     C_3   0.112518 0.906478 0.764852 0.200532
C55   C     C_3   0.389121 0.406016 0.236075 0.200656
C56   C     C_3   0.611864 0.406299 0.764492 0.200589
H17   H     H_    0.960750 0.873966 0.328206 0.160527
H18   H     H_    0.039162 0.874555 0.672951 0.160556
H19   H     H_    0.460663 0.373495 0.329153 0.160555
H20   H     H_    0.539216 0.374129 0.672082 0.160598
H21   H     H_    0.830025 0.890009 0.146103 0.231505
H22   H     H_    0.171193 0.890090 0.854055 0.231482
H23   H     H_    0.331010 0.389940 0.146251 0.231518
H24   H     H_    0.670332 0.390043 0.853945 0.231493
H25   H     H_    0.883706 0.876423 0.173591 0.166759
H26   H     H_    0.117564 0.877008 0.827586 0.166797
H27   H     H_    0.384710 0.375951 0.174535 0.166736
H28   H     H_    0.616673 0.376599 0.826775 0.166781
H29   H     H_    0.922313 0.909778 0.248554 0.107681
H30   H     H_    0.078891 0.910371 0.752640 0.107638
H31   H     H_    0.423283 0.409288 0.249531 0.107719
H32   H     H_    0.578017 0.409938 0.751782 0.107679
C57   C     C_1   0.937440 0.937157 0.374786 -0.135679
C58   C     C_1   0.062562 0.937159 0.625219 -0.135692
C59   C     C_1   0.437440 0.437156 0.374788 -0.135720
C60   C     C_1   0.562562 0.437158 0.625217 -0.135718
C61   C     C_3   0.856382 0.853731 0.210380 0.130764
C62   C     C_3   0.143604 0.853746 0.789650 0.130780
C63   C     C_3   0.356369 0.353722 0.210397 0.130782
C64   C     C_3   0.643617 0.353740 0.789638 0.130807
C65   C     C_3   0.927758 0.867550 0.315952 -0.534775
C66   C     C_3   0.071814 0.867803 0.684550 -0.534798
C67   C     C_3   0.427395 0.367352 0.316345 -0.534796
C68   C     C_3   0.572128 0.367621 0.684189 -0.534836
C69   C     C_3   0.896721 0.895327 0.291969 0.144231
C70   C     C_3   0.103279 0.895338 0.708052 0.144248
C71   C     C_3   0.396718 0.395320 0.291982 0.144258
C72   C     C_3   0.603283 0.395333 0.708043 0.144263
C73   C     C_3   0.851403 0.886012 0.276143 -0.340856
C74   C     C_3   0.148099 0.885555 0.722946 -0.340852
C75   C     C_3   0.351006 0.386385 0.275396 -0.340910
C76   C     C_3   0.648466 0.385889 0.723615 -0.340906
C77   C     C_3   0.826237 0.863021 0.225310 -0.366000
C78   C     C_3   0.173303 0.862565 0.773781 -0.365975
C79   C     C_3   0.325875 0.363393 0.224566 -0.365978
C80   C     C_3   0.673639 0.362896 0.774446 -0.365945
C81   C     C_1   0.919018 0.918312 0.337477 -0.027420
C82   C     C_1   0.080983 0.918318 0.662535 -0.027399
C83   C     C_1   0.419017 0.418309 0.337483 -0.027454
C84   C     C_1   0.580985 0.418315 0.662530 -0.027412
C85   C     C_1   0.832491 0.831253 0.163699 -0.014265
C86   C     C_1   0.167498 0.831258 0.836312 -0.014303
C87   C     C_1   0.332483 0.331249 0.163706 -0.014353
C88   C     C_1   0.667505 0.331256 0.836308 -0.014406
C89   C     C_1   0.813159 0.812734 0.125743 -0.129496
C90   C     C_1   0.186835 0.812735 0.874259 -0.129531
C91   C     C_1   0.313155 0.312733 0.125744 -0.129542
C92   C     C_1   0.686838 0.312735 0.874259 -0.129588
H33   H     H_    0.816763 0.843452 0.237978 0.218215
H34   H     H_    0.182143 0.842802 0.760726 0.218283
H35   H     H_    0.315881 0.343986 0.236906 0.218179
H36   H     H_    0.682939 0.343274 0.761672 0.218278
H37   H     H_    0.793786 0.872831 0.185393 0.195955
H38   H     H_    0.206097 0.872215 0.813381 0.195905
H39   H     H_    0.293710 0.373329 0.184400 0.195925
H40   H     H_    0.706187 0.372661 0.814276 0.195856
H41   H     H_    0.858563 0.876155 0.315852 0.201718
H42   H     H_    0.140281 0.875545 0.682928 0.201684
H43   H     H_    0.357629 0.376659 0.314843 0.201694
H44   H     H_    0.641128 0.375992 0.683821 0.201646
H45   H     H_    0.937110 0.860423 0.358509 0.235919
H46   H     H_    0.061847 0.860526 0.641711 0.235880
H47   H     H_    0.436228 0.360344 0.358651 0.235889
H48   H     H_    0.562633 0.360442 0.641573 0.235839
H49   H     H_    0.829163 0.905481 0.263434 0.217718
H50   H     H_    0.170573 0.904823 0.735258 0.217762
H51   H     H_    0.328965 0.406015 0.262369 0.217644
H52   H     H_    0.670773 0.405304 0.736222 0.217713
C93   C     C_R   0.848776 0.761148 0.950905 -0.182662
C94   C     C_R   0.151193 0.761206 0.049039 -0.182803
C95   C     C_R   0.348792 0.261176 0.950932 -0.182638
C96   C     C_R   0.651205 0.261182 0.049062 -0.182467
H53   H     H_    0.816043 0.769713 0.912515 0.159653
H54   H     H_    0.183904 0.769817 0.087390 0.159734
H55   H     H_    0.316070 0.269765 0.912563 0.159651
H56   H     H_    0.683924 0.269777 0.087426 0.159543
C97   C     C_R   0.884575 0.760936 0.950704 -0.151200
C98   C     C_R   0.115393 0.760996 0.049238 -0.151323
C99   C     C_R   0.384591 0.260964 0.950732 -0.151219
C100  C     C_R   0.615406 0.260970 0.049262 -0.151059
H57   H     H_    0.878939 0.769577 0.912348 0.153315
H58   H     H_    0.121007 0.769683 0.087552 0.153306
H59   H     H_    0.378967 0.269628 0.912398 0.153293
H60   H     H_    0.621028 0.269640 0.087592 0.153238
C101  C     C_R   0.927346 0.750077 0.999971 0.081118
C102  C     C_R   0.072648 0.750080 0.000022 0.081105
C103  C     C_R   0.427348 0.250075 0.999974 0.081141
C104  C     C_R   0.572652 0.250074 0.000028 0.081115
C105  C     C_R   0.933781 0.739192 0.049219 -0.150300
C106  C     C_R   0.066240 0.739137 0.950826 -0.150251
C107  C     C_R   0.433769 0.239161 0.049195 -0.150292
C108  C     C_R   0.566234 0.239153 0.950813 -0.150153
H61   H     H_    0.966468 0.730570 0.087589 0.154633
H62   H     H_    0.033574 0.730469 0.912497 0.154688
H63   H     H_    0.466445 0.230515 0.087543 0.154662
H64   H     H_    0.533561 0.230501 0.912470 0.154696
C109  C     C_R   0.897764 0.738923 0.048980 -0.178405
C110  C     C_R   0.102258 0.738869 0.951067 -0.178200
C111  C     C_R   0.397752 0.238894 0.048955 -0.178541
C112  C     C_R   0.602252 0.238886 0.951053 -0.178236
H65   H     H_    0.903375 0.730339 0.087358 0.164182
H66   H     H_    0.096666 0.730239 0.912730 0.164328
H67   H     H_    0.403353 0.230286 0.087311 0.164136
H68   H     H_    0.596653 0.230273 0.912701 0.164254
C113  C     C_R   0.855132 0.750020 0.999932 -0.038423
C114  C     C_R   0.144865 0.750022 0.000065 -0.038545
C115  C     C_R   0.355133 0.250020 0.999932 -0.038414
C116  C     C_R   0.644867 0.250019 0.000068 -0.038425
N9    N     N_R   0.008761 0.750073 0.051889 -0.168932
N10   N     N_R   0.991233 0.750014 0.948104 -0.168819
N11   N     N_R   0.508764 0.250043 0.051893 -0.168904
N12   N     N_R   0.491237 0.250035 0.948109 -0.168865
N13   N     N_R   0.043059 0.750184 0.051900 -0.169976
N14   N     N_R   0.956934 0.750123 0.948092 -0.169864
N15   N     N_R   0.543063 0.250153 0.051905 -0.169809
N16   N     N_R   0.456938 0.250146 0.948096 -0.169840
C117  C     C_R   0.034885 0.750098 0.000008 0.286234
C118  C     C_R   0.965109 0.750096 0.999984 0.286238
C119  C     C_R   0.534889 0.250092 0.000014 0.286301
C120  C     C_R   0.465111 0.250093 0.999988 0.286244
C121  C     C_3   0.635849 0.618593 0.811966 -0.421997
C122  C     C_3   0.362668 0.618179 0.187209 -0.421932
C123  C     C_3   0.135679 0.118642 0.811869 -0.421997
C124  C     C_3   0.866634 0.119337 0.189517 -0.422090
C125  C     C_3   0.600719 0.657647 0.732914 -0.383530
C126  C     C_3   0.400099 0.657305 0.266390 -0.383644
C127  C     C_3   0.100816 0.157685 0.732837 -0.383565
C128  C     C_3   0.897817 0.158166 0.268144 -0.383417
C129  C     C_3   0.576630 0.633381 0.684405 -0.396581
C130  C     C_3   0.424193 0.633044 0.314910 -0.396342
C131  C     C_3   0.076729 0.133418 0.684329 -0.396711
C132  C     C_3   0.921893 0.133890 0.316635 -0.396948
H69   H     H_    0.577870 0.589273 0.750627 0.181436
H70   H     H_    0.420101 0.588292 0.247404 0.181870
H71   H     H_    0.077636 0.089390 0.750397 0.181317
H72   H     H_    0.925460 0.090973 0.252773 0.180986
H73   H     H_    0.613874 0.625353 0.822046 0.183466
H74   H     H_    0.384104 0.624373 0.175987 0.183637
H75   H     H_    0.113648 0.125467 0.821822 0.183421
H76   H     H_    0.889430 0.127044 0.181337 0.183279
H77   H     H_    0.606647 0.677536 0.716608 0.181508
H78   H     H_    0.395262 0.677481 0.283266 0.181548
H79   H     H_    0.106867 0.177540 0.716600 0.181446
H80   H     H_    0.890063 0.177538 0.283417 0.181389
H81   H     H_    0.578158 0.664626 0.741918 0.174034
H82   H     H_    0.422144 0.663715 0.256244 0.174056
H83   H     H_    0.078196 0.164727 0.741710 0.173999
H84   H     H_    0.921169 0.166091 0.261047 0.174038
H85   H     H_    0.542190 0.629150 0.669346 0.175606
H86   H     H_    0.458146 0.628250 0.328839 0.175784
H87   H     H_    0.042234 0.129252 0.669135 0.175536
H88   H     H_    0.957076 0.130600 0.333591 0.175351
H89   H     H_    0.571969 0.641313 0.645249 0.174326
H90   H     H_    0.429947 0.641282 0.354673 0.174274
H91   H     H_    0.072197 0.141314 0.645248 0.174258
H92   H     H_    0.924717 0.141274 0.354693 0.174346
C133  C     C_1   0.562966 0.562779 0.625887 -0.160193
C134  C     C_1   0.437038 0.562782 0.374118 -0.160255
C135  C     C_1   0.062966 0.062779 0.625889 -0.160192
C136  C     C_1   0.937029 0.062775 0.374103 -0.160220
C137  C     C_3   0.646421 0.645739 0.790689 0.290785
C138  C     C_3   0.353613 0.645759 0.209351 0.290713
C139  C     C_3   0.146425 0.145737 0.790693 0.290836
C140  C     C_3   0.853525 0.145707 0.209246 0.290905
C141  C     C_3   0.611498 0.594215 0.763683 -0.378105
C142  C     C_3   0.387013 0.593799 0.235488 -0.377673
C143  C     C_3   0.111324 0.094265 0.763585 -0.378208
C144  C     C_3   0.891000 0.094964 0.237808 -0.378650
C145  C     C_3   0.605017 0.604460 0.708825 0.313737
C146  C     C_3   0.395003 0.604473 0.291201 0.313578
C147  C     C_3   0.105020 0.104458 0.708830 0.313825
C148  C     C_3   0.894951 0.104438 0.291130 0.314042
C149  C     C_3   0.652321 0.610980 0.728239 -0.416370
C150  C     C_3   0.348420 0.611779 0.273368 -0.416751
C151  C     C_3   0.152405 0.110886 0.728428 -0.416269
C152  C     C_3   0.846541 0.109642 0.269068 -0.415948
C153  C     C_3   0.677408 0.635163 0.777438 -0.130295
C154  C     C_3   0.323330 0.635972 0.224190 -0.130101
C155  C     C_3   0.177489 0.135070 0.777623 -0.130330
C156  C     C_3   0.821466 0.133814 0.219849 -0.130476
C157  C     C_1   0.581874 0.581555 0.663318 -0.095839
C158  C     C_1   0.418136 0.581562 0.336695 -0.095897
C159  C     C_1   0.081876 0.081554 0.663321 -0.095845
C160  C     C_1   0.918110 0.081544 0.336659 -0.095860
C161  C     C_1   0.668886 0.668521 0.836637 -0.103379
C162  C     C_1   0.331129 0.668529 0.163378 -0.103341
C163  C     C_1   0.168888 0.168521 0.836639 -0.103401
C164  C     C_1   0.831091 0.168509 0.163338 -0.103437
C165  C     C_1   0.687360 0.687216 0.874223 -0.169672
C166  C     C_1   0.312644 0.687218 0.125780 -0.169657
C167  C     C_1   0.187361 0.187216 0.874224 -0.169686
C168  C     C_1   0.812633 0.187214 0.125772 -0.169706
H93   H     H_    0.708974 0.625294 0.818573 0.133010
H94   H     H_    0.291146 0.626343 0.183538 0.132738
H95   H     H_    0.208985 0.125179 0.818812 0.133092
H96   H     H_    0.791002 0.123592 0.177983 0.133359
H97   H     H_    0.673160 0.590376 0.745692 0.170175
H98   H     H_    0.327020 0.591437 0.256443 0.169740
H99   H     H_    0.173177 0.090253 0.745945 0.170325
H100  H     H_    0.826713 0.088639 0.250796 0.170649
H101  H     H_    0.667915 0.609512 0.853639 0.179275
H102  H     H_    0.330003 0.609340 0.146031 0.179244
H103  H     H_    0.167676 0.109534 0.853595 0.179299
H104  H     H_    0.835638 0.109890 0.147098 0.179269
H105  H     H_    0.631946 0.573462 0.782071 0.188208
H106  H     H_    0.365970 0.573289 0.217598 0.188018
H107  H     H_    0.131699 0.073484 0.782027 0.188279
H108  H     H_    0.871624 0.073842 0.218670 0.188240
H109  H     H_    0.648017 0.617821 0.688762 0.177290
H110  H     H_    0.353802 0.618934 0.313476 0.177180
H111  H     H_    0.148228 0.117686 0.689026 0.177277
H112  H     H_    0.849037 0.115913 0.307415 0.177429
O33   O     O_R   0.059430 0.969340 0.561280 -0.613550
O34   O     O_R   0.940570 0.969340 0.438720 -0.613747
O35   O     O_R   0.559430 0.469340 0.561280 -0.613746
O36   O     O_R   0.440570 0.469340 0.438720 -0.613979
O37   O     O_R   0.001940 0.969340 0.561310 -0.612392
O38   O     O_R   0.998060 0.969340 0.438690 -0.612143
O39   O     O_R   0.501940 0.469340 0.561310 -0.612170
O40   O     O_R   0.498060 0.469340 0.438690 -0.611892
C169  C     C_R   0.040500 0.959471 0.580949 0.906551
C170  C     C_R   0.959499 0.959471 0.419051 0.906530
C171  C     C_R   0.540501 0.459471 0.580949 0.906522
C172  C     C_R   0.459499 0.459471 0.419050 0.906476
Zn9   Zn    Zn3+2 0.538320 0.500060 0.499790 0.992243
Zn10  Zn    Zn3+2 0.461680 0.500060 0.500210 0.991701
Zn11  Zn    Zn3+2 0.038320 0.000060 0.499790 0.992193
Zn12  Zn    Zn3+2 0.961680 0.000060 0.500210 0.991761
O41   O     O_R   0.497920 0.530770 0.438300 -0.615093
O42   O     O_R   0.502080 0.530770 0.561700 -0.615256
O43   O     O_R   0.997920 0.030770 0.438300 -0.615233
O44   O     O_R   0.002080 0.030770 0.561700 -0.615373
O45   O     O_R   0.440430 0.530760 0.438330 -0.616207
O46   O     O_R   0.559570 0.530760 0.561670 -0.616050
O47   O     O_R   0.940430 0.030760 0.438330 -0.616060
O48   O     O_R   0.059570 0.030760 0.561670 -0.615951
C173  C     C_R   0.459292 0.540566 0.418546 0.910207
C174  C     C_R   0.540708 0.540566 0.581454 0.910257
C175  C     C_R   0.959292 0.040566 0.418546 0.910221
C176  C     C_R   0.040708 0.040566 0.581454 0.910249
N17   N     N_R   0.863568 0.934467 0.212921 0.224360
O49   O     O_R   0.820822 0.936034 0.187768 -0.398821
O50   O     O_R   0.883886 0.958122 0.215270 -0.384858
N18   N     N_R   0.137826 0.934550 0.787238 0.224392
O51   O     O_R   0.180426 0.935743 0.811630 -0.398692
O52   O     O_R   0.118125 0.958440 0.785363 -0.385119
N19   N     N_R   0.364720 0.434394 0.213079 0.224315
O53   O     O_R   0.321868 0.436269 0.187319 -0.399049
O54   O     O_R   0.385543 0.457852 0.215821 -0.384672
N20   N     N_R   0.636805 0.434500 0.787120 0.224356
O55   O     O_R   0.679509 0.435974 0.812054 -0.398861
O56   O     O_R   0.616646 0.458216 0.784899 -0.384954
N21   N     N_R   0.897067 0.815456 0.291241 0.215927
O57   O     O_R   0.890451 0.817807 0.328832 -0.395604
O58   O     O_R   0.891554 0.789549 0.267986 -0.366779
N22   N     N_R   0.101583 0.815482 0.708812 0.215931
O59   O     O_R   0.107669 0.817515 0.670658 -0.395613
O60   O     O_R   0.106847 0.789647 0.732155 -0.366825
N23   N     N_R   0.395978 0.315447 0.291251 0.215933
O61   O     O_R   0.388837 0.318055 0.328280 -0.395828
O62   O     O_R   0.390382 0.289475 0.268162 -0.366670
N24   N     N_R   0.602531 0.315460 0.708788 0.215937
O63   O     O_R   0.609128 0.317714 0.671167 -0.395844
O64   O     O_R   0.607831 0.289563 0.731957 -0.366711
C177  C     C_1   0.691783 0.659912 0.760322 0.165828
N25   N     N_1   0.703036 0.679301 0.746945 -0.195910
C178  C     C_1   0.310390 0.661192 0.242251 0.165699
N26   N     N_1   0.300260 0.680949 0.256369 -0.196050
C179  C     C_1   0.192021 0.159765 0.760609 0.165867
N27   N     N_1   0.203397 0.179110 0.747311 -0.195939
C180  C     C_1   0.804720 0.157731 0.235309 0.165955
N28   N     N_1   0.791611 0.176468 0.247393 -0.195819
C181  C     C_1   0.933568 0.833698 0.255460 0.161010
N29   N     N_1   0.956811 0.827219 0.245339 -0.179448
C182  C     C_1   0.066390 0.834416 0.745951 0.160919
N30   N     N_1   0.043482 0.828300 0.756784 -0.179444
C183  C     C_1   0.433515 0.333145 0.256574 0.161197
N31   N     N_1   0.457020 0.326385 0.247022 -0.179349
C184  C     C_1   0.566411 0.333929 0.744958 0.161082
N32   N     N_1   0.543260 0.327570 0.755286 -0.179379

loop_
_geom_bond_atom_site_label_1
_geom_bond_atom_site_label_2
_geom_bond_distance
_ccdc_geom_bond_type
C18   H2    1.083213 S    
C35   H15   1.083208 S    
C80   H36   1.111807 S    
C94   C114  1.401958 A    
C1    C89   1.417027 S    
C53   H29   1.115402 S    
C31   C35   1.391135 A    
C130  H86   1.113227 S    
C4    C92   1.417026 S    
C125  C129  1.547116 S    
C74   C78   1.545330 S    
C8    C40   1.461359 S    
C149  H109  1.114785 S    
C95   C99   1.390910 A    
Zn10  O42   1.995155 S    
C109  H65   1.083225 S    
N16   C120  1.356137 A    
C93   C97   1.390910 A    
Zn6   O22   1.993861 S    
C150  C154  1.555584 S    
N9    N13   1.328654 A    
C106  C110  1.390890 A    
C66   C70   1.551989 S    
C78   H34   1.111812 S    
C72   C76   1.550855 S    
C135  C159  1.195446 T    
C101  C105  1.402612 A    
C71   C75   1.550854 S    
O4    C4    1.273242 A    
C48   C184  1.485428 S    
C28   C43   1.463184 S    
C41   N5    1.356183 A    
C50   H26   1.112594 S    
C127  C139  1.552066 S    
C62   C78   1.552815 S    
C128  C140  1.552060 S    
N18   O51   1.301429 A    
C66   H46   1.111430 S    
C133  C174  1.416673 S    
C85   C89   1.195751 T    
O34   Zn12  1.994811 S    
C124  C144  1.547104 S    
C121  C137  1.550883 S    
C152  H112  1.114783 S    
C34   H14   1.083208 S    
Zn1   O25   2.007371 S    
C161  C165  1.195363 T    
C87   C91   1.195753 T    
Zn3   O19   1.993279 S    
C148  C160  1.455941 S    
Zn4   O28   2.007376 S    
C141  C145  1.548477 S    
C58   C169  1.417214 S    
Zn5   O29   2.008049 S    
N24   O64   1.302822 A    
C108  C112  1.390888 A    
H20   C68   1.115373 S    
C30   H10   1.083099 S    
O11   Zn3   2.008046 S    
C76   C80   1.545328 S    
C24   H8    1.083107 S    
C155  C179  1.478187 S    
C126  C138  1.552069 S    
O9    C5    1.278037 A    
C58   C82   1.195740 T    
O36   Zn10  1.994811 S    
O10   Zn2   2.008045 S    
C142  H106  1.113225 S    
C26   C41   1.463211 S    
C123  H103  1.113288 S    
C61   C77   1.552807 S    
O6    Zn6   1.993094 S    
C47   C183  1.485405 S    
O19   C11   1.273171 A    
C177  N25   1.157249 T    
N23   O61   1.302326 A    
C127  H79   1.112563 S    
C121  H101  1.113287 S    
C43   N7    1.356183 A    
C162  C166  1.195365 T    
C98   H58   1.083099 S    
C21   H5    1.083104 S    
O40   Zn9   1.989780 S    
C156  C180  1.478182 S    
C55   N19   1.469353 S    
C103  C120  1.462832 S    
C45   C65   1.573272 S    
O9    Zn1   2.008046 S    
Zn9   O46   2.000693 S    
C17   H1    1.083211 S    
C146  C158  1.455941 S    
C121  C141  1.547108 S    
C68   H48   1.111438 S    
C179  N27   1.157256 T    
C19   H3    1.083211 S    
C20   H4    1.083210 S    
C20   C24   1.391068 A    
C78   H38   1.113458 S    
C32   C36   1.391139 A    
O24   C12   1.273192 A    
N17   O49   1.301428 A    
C57   C81   1.195740 T    
C22   H6    1.083103 S    
C137  C161  1.459082 S    
C153  H93   1.113293 S    
C7    C39   1.461359 S    
H18   C66   1.115370 S    
C133  C157  1.195444 T    
O3    C3    1.273236 A    
C164  C168  1.195363 T    
C65   H45   1.111417 S    
C25   C29   1.402650 A    
C132  H88   1.113224 S    
C53   C69   1.561807 S    
C27   C31   1.402645 A    
C123  H75   1.113420 S    
N22   O59   1.302321 A    
C17   C21   1.391074 A    
C57   C170  1.417215 S    
O23   C11   1.273182 A    
H72   C144  1.113228 S    
O39   C171  1.278709 A    
C121  H73   1.113419 S    
N1    N2    1.328772 A    
H69   C141  1.113227 S    
C73   H49   1.110491 S    
C143  H107  1.113224 S    
C5    C37   1.461336 S    
C154  H94   1.113292 S    
C47   N23   1.479879 S    
C50   H22   1.113177 S    
C111  H67   1.083222 S    
C17   C37   1.402047 A    
C11   C167  1.416484 S    
C136  C175  1.416678 S    
C151  H111  1.114785 S    
C182  N30   1.157381 T    
O35   Zn9   1.994814 S    
O39   Zn10  1.989784 S    
C75   H43   1.113135 S    
C125  H77   1.112565 S    
N20   O55   1.301431 A    
C80   H40   1.113455 S    
C69   C73   1.550854 S    
C144  H108  1.113221 S    
C19   C23   1.391073 A    
C52   C64   1.555435 S    
C33   C37   1.402058 A    
C96   C116  1.401954 A    
Zn10  O45   2.000690 S    
C48   C68   1.573210 S    
C35   C39   1.402072 A    
N7    N8    1.328738 A    
C54   H30   1.115403 S    
C47   C63   1.579315 S    
O41   C173  1.278802 A    
C15   C115  1.460791 S    
C142  C146  1.548477 S    
O29   C13   1.277873 A    
C73   C77   1.545331 S    
C6    C38   1.461336 S    
C99   C103  1.402611 A    
C97   C101  1.402617 A    
C124  H104  1.113289 S    
C95   H55   1.083219 S    
O45   C173  1.278516 A    
C75   C79   1.545331 S    
O40   C172  1.278715 A    
C144  C148  1.548469 S    
C106  H62   1.083101 S    
C107  C111  1.390890 A    
C104  C108  1.402605 A    
C52   C56   1.552931 S    
C137  C153  1.561946 S    
C67   C71   1.551986 S    
O5    C1    1.273552 A    
C62   C86   1.461326 S    
C52   H28   1.112595 S    
C88   C92   1.195754 T    
O8    C4    1.273551 A    
C63   C87   1.461326 S    
O2    Zn2   1.993860 S    
C50   C54   1.552921 S    
O25   C13   1.277858 A    
C129  H89   1.113219 S    
C49   C53   1.552911 S    
O27   C15   1.277861 A    
C150  H110  1.114787 S    
C51   C55   1.552917 S    
C152  H100  1.113468 S    
C64   C80   1.552815 S    
Zn5   O21   1.993862 S    
Zn11  O48   2.000693 S    
Zn2   O26   2.007376 S    
O16   Zn8   2.007757 S    
C122  C142  1.547108 S    
O14   C6    1.277996 A    
Zn6   O30   2.008042 S    
C108  H64   1.083101 S    
N15   C119  1.356139 A    
C86   C90   1.195754 T    
C24   C28   1.402626 A    
O35   C171  1.278943 A    
C61   C85   1.461329 S    
O42   C174  1.278805 A    
N13   C117  1.356139 A    
O10   C6    1.278035 A    
O3    Zn3   1.993860 S    
C181  N29   1.157383 T    
C136  C160  1.195447 T    
C94   H54   1.083218 S    
C49   C61   1.555434 S    
O46   C174  1.278513 A    
N21   O58   1.302819 A    
C122  C138  1.550881 S    
N9    C118  1.356142 A    
C79   H35   1.111823 S    
C23   C27   1.402624 A    
C110  C114  1.401961 A    
C77   H33   1.111827 S    
C123  C143  1.547107 S    
C150  H98   1.113466 S    
C149  C153  1.555588 S    
C45   C61   1.579309 S    
C124  H76   1.113416 S    
C46   C66   1.573246 S    
C14   C114  1.460808 S    
Zn1   O17   1.993279 S    
C126  C130  1.547118 S    
C147  C159  1.455940 S    
C36   C40   1.402066 A    
O13   Zn5   2.007756 S    
C93   C113  1.401946 A    
C32   H12   1.083103 S    
O15   Zn7   2.007756 S    
N18   O52   1.301042 A    
C76   H44   1.113133 S    
C138  C162  1.459082 S    
C56   N20   1.469347 S    
N12   C119  1.356142 A    
C104  C119  1.462829 S    
C163  C167  1.195366 T    
C134  C158  1.195444 T    
O37   Zn12  1.989784 S    
Zn11  O43   1.995154 S    
O17   C9    1.273171 A    
N19   O53   1.301431 A    
C94   C98   1.390907 A    
C112  H68   1.083224 S    
N10   N14   1.328656 A    
C54   C70   1.561815 S    
C105  C109  1.390892 A    
C128  H80   1.112562 S    
N1    C42   1.356201 A    
C122  H74   1.113417 S    
C131  H91   1.113219 S    
H70   C142  1.113230 S    
N3    C44   1.356201 A    
C74   H50   1.110489 S    
Zn7   O31   2.008049 S    
Zn8   O32   2.008042 S    
C45   N21   1.479882 S    
C134  C173  1.416673 S    
C111  C115  1.401953 A    
C183  N31   1.157377 T    
C46   C182  1.485406 S    
C70   C82   1.458529 S    
C125  H81   1.113291 S    
O1    C1    1.273237 A    
C126  H78   1.112565 S    
C131  C147  1.549110 S    
O38   C170  1.278708 A    
C132  C148  1.549114 S    
C33   H13   1.083211 S    
C67   H47   1.111425 S    
C59   C172  1.417214 S    
N4    C43   1.356200 A    
C55   H31   1.115403 S    
C131  H87   1.113227 S    
C56   H32   1.115402 S    
C129  C145  1.549106 S    
O13   C5    1.277990 A    
C107  H63   1.083101 S    
O21   C9    1.273182 A    
O28   C16   1.277864 A    
C127  C131  1.547119 S    
C29   H9    1.083099 S    
O30   C14   1.277887 A    
C53   N17   1.469353 S    
C20   C40   1.402062 A    
C141  H105  1.113220 S    
C25   C42   1.463211 S    
C73   H41   1.113133 S    
C27   C44   1.463186 S    
C60   C84   1.195738 T    
C122  H102  1.113286 S    
C3    C91   1.417027 S    
C44   N8    1.356185 A    
N22   O60   1.302822 A    
O37   C169  1.278706 A    
C12   C168  1.416484 S    
N11   N15   1.328652 A    
C138  C154  1.561952 S    
C102  C117  1.462838 S    
C79   H39   1.113455 S    
O6    C2    1.273551 A    
C147  C151  1.549538 S    
C180  N28   1.157267 T    
C63   C79   1.552808 S    
C2    C90   1.417028 S    
N2    C41   1.356200 A    
N5    N6    1.328734 A    
C153  C177  1.478188 S    
C149  H97   1.113464 S    
C48   N24   1.479876 S    
N17   O50   1.301040 A    
N24   O63   1.302325 A    
C129  H85   1.113230 S    
O26   C14   1.277870 A    
C31   H11   1.083102 S    
C130  H90   1.113219 S    
C135  C176  1.416671 S    
O33   Zn11  1.994814 S    
Zn12  O44   1.995155 S    
C59   C83   1.195735 T    
C23   H7    1.083106 S    
C145  C149  1.549538 S    
N20   O56   1.301037 A    
N11   C120  1.356141 A    
O38   Zn11  1.989780 S    
Zn3   O27   2.007371 S    
C148  C152  1.549539 S    
Zn4   O20   1.993279 S    
C26   C30   1.402648 A    
C109  C113  1.401946 A    
C143  C147  1.548473 S    
O47   C175  1.278512 A    
C151  C155  1.555586 S    
C65   C69   1.551990 S    
C152  C156  1.555590 S    
C13   C113  1.460767 S    
C22   C26   1.402636 A    
O12   Zn4   2.008045 S    
C103  C107  1.402603 A    
O15   C7    1.277996 A    
C184  N32   1.157376 T    
C96   H56   1.083219 S    
C21   C25   1.402634 A    
C178  N26   1.157265 T    
C51   H27   1.112593 S    
O7    C3    1.273557 A    
C49   H25   1.112597 S    
C64   C88   1.461321 S    
C50   C62   1.555442 S    
O44   C176  1.278805 A    
C47   C67   1.573252 S    
C112  C116  1.401955 A    
C155  H95   1.113292 S    
C156  H96   1.113293 S    
C49   H21   1.113176 S    
C110  H66   1.083220 S    
C51   H23   1.113174 S    
C16   C116  1.460793 S    
C46   C62   1.579314 S    
C34   C38   1.402060 A    
C154  C178  1.478175 S    
C18   C22   1.391070 A    
C36   H16   1.083214 S    
N19   O54   1.301038 A    
O14   Zn6   2.007757 S    
C60   C171  1.417218 S    
C128  C132  1.547121 S    
O33   C169  1.278946 A    
C30   C34   1.391141 A    
O11   C7    1.278042 A    
O12   C8    1.278041 A    
C125  C137  1.552066 S    
O1    Zn1   1.993860 S    
C140  C156  1.561948 S    
C100  C104  1.402611 A    
C19   C39   1.402057 A    
C98   C102  1.402609 A    
O4    Zn4   1.993860 S    
Zn2   O18   1.993279 S    
O5    Zn5   1.993092 S    
C55   C71   1.561814 S    
C51   C63   1.555439 S    
C68   C72   1.551990 S    
O18   C10   1.273178 A    
O7    Zn7   1.993092 S    
O8    Zn8   1.993094 S    
O16   C8    1.278002 A    
C123  C139  1.550882 S    
C127  H83   1.113286 S    
C124  C140  1.550885 S    
C105  H61   1.083103 S    
C128  H84   1.113291 S    
C45   C181  1.485391 S    
C102  C106  1.402603 A    
C99   H59   1.083099 S    
N12   N16   1.328656 A    
N23   O62   1.302822 A    
C145  C157  1.455942 S    
C96   C100  1.390908 A    
N3    N4    1.328773 A    
H71   C143  1.113230 S    
C95   C115  1.401951 A    
C77   H37   1.113454 S    
N21   O57   1.302325 A    
C72   C84   1.458530 S    
C75   H51   1.110489 S    
C100  H60   1.083102 S    
C76   H52   1.110491 S    
H19   C67   1.115369 S    
C56   C72   1.561831 S    
C71   C83   1.458530 S    
C52   H24   1.113174 S    
H17   C65   1.115371 S    
C28   C32   1.402641 A    
C126  H82   1.113288 S    
O2    C2    1.273242 A    
Zn9   O41   1.995154 S    
O48   C176  1.278513 A    
C9    C165  1.416484 S    
O31   C15   1.277882 A    
O32   C16   1.277884 A    
C97   H57   1.083100 S    
C46   N22   1.479882 S    
C132  H92   1.113221 S    
C130  C146  1.549102 S    
O20   C12   1.273162 A    
C101  C118  1.462834 S    
O22   C10   1.273176 A    
O43   C175  1.278808 A    
N14   C118  1.356139 A    
O34   C170  1.278951 A    
C48   C64   1.579315 S    
C18   C38   1.402049 A    
C146  C150  1.549540 S    
C93   H53   1.083224 S    
C74   H42   1.113136 S    
Zn7   O23   1.993862 S    
C42   N6    1.356183 A    
Zn8   O24   1.993861 S    
N10   C117  1.356143 A    
C29   C33   1.391139 A    
C10   C166  1.416485 S    
C69   C81   1.458529 S    
C151  H99   1.113466 S    
C70   C74   1.550853 S    
Zn12  O47   2.000690 S    
C54   N18   1.469351 S    
C139  C155  1.561950 S    
O36   C172  1.278944 A    
C139  C163  1.459080 S    
C140  C164  1.459076 S    
