data_mof_unit_67562.cif
_audit_creation_date              2012-10-26T18:48:19-0400
_audit_creation_method            fapswitch 2.2
_symmetry_space_group_name_H-M    P1
_symmetry_Int_Tables_number       1
_space_group_crystal_system       triclinic
_cell_length_a                    10.737382
_cell_length_b                    8.755396
_cell_length_c                    7.688242
_cell_angle_alpha                 103.564951
_cell_angle_beta                  90.594675
_cell_angle_gamma                 92.398243
_cell_volume                      701.842755445

loop_
_atom_site_label
_atom_site_type_symbol
_atom_type_description
_atom_site_fract_x
_atom_site_fract_y
_atom_site_fract_z
_atom_type_partial_charge
Br1   Br    Br    0.008520 0.367685 0.852226 -0.278748
Br2   Br    Br    0.940548 0.680396 0.180748 -0.348934
Br3   Br    Br    0.901485 0.796977 0.808746 -0.297770
Br4   Br    Br    0.098012 0.220448 0.182369 -0.422437
Br5   Br    Br    0.297512 0.445342 0.974012 -0.315990
Br6   Br    Br    0.698318 0.496370 0.999581 -0.135387
C1    C     C_R   0.499101 0.201355 0.453621 0.556483
C2    C     C_3   0.121663 0.492107 0.516713 -0.069041
C3    C     C_3   0.958439 0.613352 0.640010 0.174469
C4    C     C_3   0.038541 0.400419 0.355902 0.137376
C5    C     C_2   0.510314 0.033218 0.429603 0.244971
C6    C     C_2   0.495669 0.966638 0.571052 0.254967
C7    C     C_3   0.939544 0.101046 0.483374 0.027733
C8    C     C_3   0.185785 0.809842 0.381261 -0.079544
C9    C     C_3   0.464484 0.941660 0.128807 -0.031546
C10   C     C_3   0.336752 0.036913 0.763718 -0.095507
C11   C     C_R   0.504969 0.798638 0.546118 0.543237
C12   C     C_R   0.260051 0.494177 0.506132 0.551651
C13   C     C_R   0.739116 0.511914 0.494706 0.609948
C14   C     C_3   0.022958 0.462037 0.653221 0.147909
C15   C     C_3   0.971661 0.553643 0.346939 0.156520
C16   C     C_3   0.942180 0.370752 0.492558 0.219045
C17   C     C_3   0.055941 0.642318 0.505147 0.213711
C18   C     C_3   0.876544 0.520760 0.483683 -0.022971
Cu1   Cu    Cu3+1 0.514140 0.517380 0.684380 1.164865
Cu2   Cu    Cu3+1 0.485860 0.482620 0.315620 1.142886
H1    H     H_    0.038932 0.130624 0.525384 0.137388
H2    H     H_    0.306593 0.912501 0.756552 0.158359
H3    H     H_    0.283160 0.085849 0.666226 0.144675
H4    H     H_    0.314320 0.104531 0.899451 0.205308
H5    H     H_    0.935067 0.022524 0.347446 0.211333
H6    H     H_    0.897648 0.034435 0.575886 0.212244
H7    H     H_    0.191623 0.701414 0.273301 0.203432
H8    H     H_    0.281153 0.848993 0.426069 0.091060
H9    H     H_    0.147475 0.903115 0.323517 0.163304
H10   H     H_    0.497371 0.025219 0.049805 0.225098
H11   H     H_    0.367702 0.967285 0.174757 0.069493
H12   H     H_    0.459917 0.822937 0.038968 0.178139
N1    N     N_2   0.464560 0.456420 0.038510 0.010422
N2    N     N_2   0.535440 0.543580 0.961490 -0.005612
O1    O     O_R   0.509190 0.286130 0.619780 -0.450990
O2    O     O_3   0.114912 0.793971 0.530351 -0.566858
O3    O     O_3   0.552508 0.945942 0.267589 -0.546503
O4    O     O_3   0.466312 0.053518 0.739765 -0.581688
O5    O     O_R   0.490810 0.713870 0.380220 -0.506354
O6    O     O_R   0.485310 0.256770 0.308360 -0.508392
O7    O     O_R   0.514690 0.743230 0.691640 -0.513092
O8    O     O_R   0.328790 0.514640 0.655680 -0.484111
O9    O     O_R   0.671210 0.485360 0.344320 -0.453275
O10   O     O_R   0.304910 0.485280 0.344260 -0.481623
O11   O     O_R   0.695090 0.514720 0.655740 -0.439080
O12   O     O_3   0.867204 0.231907 0.484299 -0.520574

loop_
_geom_bond_atom_site_label_1
_geom_bond_atom_site_label_2
_ccdc_geom_bond_type
C6    C11   S    
C10   H2    S    
C12   O8    A    
C5    C6    D    
Cu1   O11   S    
C3    C18   S    
C5    O3    S    
Br3   C3    S    
C2    C12   S    
C7    O12   S    
Cu1   O7    S    
C7    H6    S    
C8    O2    S    
C8    H7    S    
C1    O1    A    
C13   C18   S    
C10   H3    S    
C9    O3    S    
C9    H12   S    
C13   O9    A    
C4    C16   S    
C1    C5    S    
Cu1   O8    S    
C2    C14   S    
C17   O2    S    
C8    H8    S    
Br2   C15   S    
C16   O12   S    
C11   O5    A    
C16   C18   S    
Cu2   O10   S    
Cu1   N2    S    
Br6   N2    S    
Cu2   N1    S    
C15   C18   S    
Cu2   O6    S    
C10   H4    S    
C1    O6    A    
C13   O11   A    
C9    H10   S    
N1    N2    D    
C2    C17   S    
C12   O10   A    
C2    C4    S    
C6    O4    S    
Cu1   O1    S    
C8    H9    S    
Br5   N1    S    
C10   O4    S    
C9    H11   S    
Br1   C14   S    
C3    C17   S    
C3    C14   S    
Cu2   O5    S    
Cu1   Cu2   S    
C4    C15   S    
C15   C17   S    
C7    H5    S    
C7    H1    S    
C11   O7    A    
Br4   C4    S    
C14   C16   S    
Cu2   O9    S    
