data_mof_unit_20608.cif
_audit_creation_date              2013-03-05T15:41:32-0500
_audit_creation_method            fapswitch 2.2
_symmetry_space_group_name_H-M    P1
_symmetry_Int_Tables_number       1
_space_group_crystal_system       triclinic
_cell_length_a                    15.842974
_cell_length_b                    8.690781
_cell_length_c                    7.52676
_cell_angle_alpha                 103.536123
_cell_angle_beta                  94.775757
_cell_angle_gamma                 92.583611
_cell_volume                      1001.82618497

loop_
_atom_site_label
_atom_site_type_symbol
_atom_site_description
_atom_site_fract_x
_atom_site_fract_y
_atom_site_fract_z
_atom_type_partial_charge
O1    O     O_R   0.506070 0.286130 0.619780 -0.569200
O2    O     O_R   0.493930 0.713870 0.380220 -0.569303
O3    O     O_R   0.490300 0.256770 0.308360 -0.579142
O4    O     O_R   0.509700 0.743230 0.691640 -0.579155
C1    C     C_R   0.497397 0.199762 0.452925 0.852438
C2    C     C_R   0.502604 0.800238 0.547075 0.852370
O5    O     O_R   0.386960 0.514660 0.655680 -0.548809
O6    O     O_R   0.613040 0.485340 0.344320 -0.548771
O7    O     O_R   0.371190 0.485310 0.344260 -0.546870
O8    O     O_R   0.628810 0.514690 0.655740 -0.546861
C3    C     C_R   0.340276 0.500347 0.501179 0.801768
C4    C     C_R   0.659724 0.499652 0.498821 0.801756
Cu1   Cu    Cu3+1 0.509330 0.517380 0.684380 1.122244
Cu2   Cu    Cu3+1 0.490670 0.482620 0.315620 1.122229
C5    C     C_2   0.496102 0.031290 0.427162 -0.297586
C6    C     C_2   0.503901 0.968710 0.572838 -0.297500
C7    C     C_3   0.971702 0.362832 0.535017 -0.172920
C8    C     C_3   0.028297 0.637158 0.464980 -0.172921
C9    C     C_3   0.019776 0.376871 0.368293 -0.181505
C10   C     C_3   0.980224 0.623120 0.631704 -0.181506
C11   C     C_1   0.250973 0.502214 0.502486 -0.040465
C12   C     C_1   0.749027 0.497782 0.497513 -0.040438
C13   C     C_3   0.035650 0.488231 0.661424 0.355076
C14   C     C_3   0.964350 0.511759 0.338573 0.355078
C15   C     C_3   0.083852 0.502223 0.496273 -0.073551
C16   C     C_3   0.916147 0.497768 0.503724 -0.073553
N1    N     N_2   0.476600 0.456420 0.038510 0.011861
N2    N     N_2   0.523400 0.543580 0.961490 0.011817
H1    H     H_    0.488704 0.958496 0.287356 0.204239
H2    H     H_    0.511299 0.041504 0.712645 0.204309
C17   C     C_1   0.175496 0.503036 0.499648 0.083896
C18   C     C_1   0.824503 0.496957 0.500350 0.083900
C19   C     C_1   0.043408 0.244507 0.224828 0.437468
N3    N     N_1   0.062328 0.140458 0.111800 -0.171116
C20   C     C_1   0.956591 0.755483 0.775169 0.437462
N4    N     N_1   0.937671 0.859532 0.888197 -0.171113
C21   C     C_1   0.940260 0.214473 0.575416 0.405428
N5    N     N_1   0.915395 0.097516 0.607106 -0.229388
C22   C     C_1   0.059739 0.785518 0.424581 0.405421
N6    N     N_1   0.084604 0.902474 0.392891 -0.229393
N7    N     N_R   0.921711 0.526800 0.164732 0.155199
O9    O     O_R   0.918045 0.410015 0.019736 -0.332954
O10   O     O_R   0.879366 0.650600 0.159262 -0.311390
N8    N     N_R   0.078288 0.473189 0.835265 0.155196
O11   O     O_R   0.081953 0.589974 0.980262 -0.332967
O12   O     O_R   0.120632 0.349388 0.840735 -0.311387
N9    N     N_R   0.396180 0.409493 0.950048 0.265061
O13   O     O_R   0.377841 0.260526 0.870891 -0.344036
O14   O     O_R   0.334580 0.502550 0.986948 -0.295759
N10   N     N_R   0.603849 0.590324 0.049842 0.265094
O15   O     O_R   0.622310 0.739260 0.128917 -0.343940
O16   O     O_R   0.665358 0.497062 0.012959 -0.295813

loop_
_geom_bond_atom_site_label_1
_geom_bond_atom_site_label_2
_geom_bond_distance
_ccdc_geom_bond_type
C15   C17   1.449695 S    
N10   O16   1.301751 A    
O7    Cu2   1.923467 S    
C6    H2    1.087394 S    
Cu1   N2    2.036550 S    
C16   C18   1.449695 S    
C21   N5    1.156839 T    
O3    Cu2   1.950475 S    
Cu2   N1    2.036550 S    
C11   C17   1.194556 T    
N7    O9    1.300064 A    
N9    O13   1.300644 A    
C10   C13   1.542150 S    
O6    C4    1.302153 A    
C8    C22   1.467615 S    
O3    C1    1.295801 A    
C13   C15   1.537403 S    
C9    C14   1.542150 S    
N9    O14   1.301835 A    
C7    C13   1.540745 S    
Cu1   Cu2   2.710212 S    
O5    C3    1.302154 A    
C14   N7    1.458193 S    
N7    O10   1.300223 A    
O2    C2    1.296227 A    
C8    C15   1.547000 S    
C12   C18   1.194555 T    
O1    C1    1.296226 A    
C7    C16   1.546999 S    
O8    C4    1.296830 A    
N1    N2    1.298501 D    
C7    C9    1.546658 S    
C14   C16   1.537402 S    
C5    H1    1.087390 S    
C8    C10   1.546658 S    
O7    C3    1.296831 A    
O2    Cu2   1.951199 S    
C8    C14   1.540745 S    
C1    C5    1.430205 S    
O1    Cu1   1.951198 S    
C9    C15   1.546439 S    
C2    C6    1.430206 S    
C5    C6    1.332649 D    
C4    C12   1.416475 S    
O5    Cu1   1.931204 S    
C19   N3    1.156749 T    
N8    O11   1.300065 A    
O4    C2    1.295800 A    
C9    C19   1.467710 S    
N1    N9    1.384825 S    
C22   N6    1.156838 T    
C7    C21   1.467615 S    
O6    Cu2   1.931204 S    
N10   O15   1.300546 A    
C10   C20   1.467709 S    
N2    N10   1.384725 S    
C3    C11   1.416476 S    
C13   N8    1.458192 S    
C20   N4    1.156749 T    
O4    Cu1   1.950476 S    
N8    O12   1.300224 A    
C10   C16   1.546439 S    
O8    Cu1   1.923467 S    
