data_mof_unit_45777.cif
_audit_creation_date              2012-12-10T17:34:55-0500
_audit_creation_method            fapswitch 2.2
_symmetry_space_group_name_H-M    P1
_symmetry_Int_Tables_number       1
_space_group_crystal_system       triclinic
_cell_length_a                    12.038781
_cell_length_b                    12.85493
_cell_length_c                    15.758363
_cell_angle_alpha                 90.914265
_cell_angle_beta                  86.297753
_cell_angle_gamma                 93.674991
_cell_volume                      2428.46308289

loop_
_atom_site_label
_atom_site_type_symbol
_atom_type_description
_atom_site_fract_x
_atom_site_fract_y
_atom_site_fract_z
_atom_type_partial_charge
C1    C     C_R   0.522936 0.700527 0.501607 0.955003
C2    C     C_3   0.374988 0.530808 0.055637 0.178190
C3    C     C_3   0.494953 0.512338 0.084279 -0.094149
C4    C     C_3   0.524129 0.403660 0.047334 -0.547923
C5    C     C_3   0.536984 0.407769 0.949424 -0.302418
C6    C     C_1   0.496174 0.506071 0.175237 0.119941
C7    C     C_1   0.498648 0.509996 0.826075 0.089363
C8    C     C_1   0.500421 0.506069 0.750638 -0.048437
C9    C     C_R   0.464780 0.188032 0.497721 -0.131740
C10   C     C_R   0.539982 0.812596 0.502899 -0.249604
C11   C     C_R   0.650306 0.974059 0.522676 0.284533
C12   C     C_R   0.500209 0.501143 0.661698 0.911715
C13   C     C_R   0.637074 0.865581 0.533031 0.198787
C14   C     C_R   0.455036 0.866654 0.471754 -0.205437
C15   C     C_R   0.457092 0.973757 0.478002 -0.000624
C16   C     C_R   0.555300 0.027551 0.505335 -0.040805
C17   C     C_R   0.554997 0.133822 0.518266 -0.095797
C18   C     C_R   0.369164 0.136593 0.468298 -0.258630
C19   C     C_R   0.363325 0.028736 0.458812 0.407896
C20   C     C_R   0.959387 0.493847 0.389520 0.269974
C21   C     C_R   0.845354 0.462521 0.405169 0.437993
C22   C     C_R   0.855095 0.509254 0.551254 0.024313
C23   C     C_R   0.477714 0.299625 0.500945 0.910952
C24   C     C_R   0.973953 0.516884 0.541395 -0.099043
C25   C     C_R   0.026023 0.507080 0.458916 -0.153081
C26   C     C_R   0.143802 0.506344 0.448074 0.085296
C27   C     C_R   0.159618 0.536756 0.594748 -0.024750
C28   C     C_R   0.043065 0.535937 0.610048 0.368635
C29   C     C_R   0.499538 0.499341 0.338541 0.911411
C30   C     C_3   0.374891 0.526986 0.956554 0.168710
C31   C     C_3   0.573207 0.606209 0.950720 0.010470
C32   C     C_3   0.588750 0.592252 0.046825 0.250065
C33   C     C_1   0.498113 0.501751 0.250115 -0.005409
C34   C     C_3   0.496438 0.512003 0.917976 -0.081299
H1    H     H_    0.624536 0.175816 0.546248 0.220335
H2    H     H_    0.384575 0.823463 0.446210 0.246358
H3    H     H_    0.349454 0.602558 0.933078 0.149511
H4    H     H_    0.212212 0.549270 0.647263 0.210302
H5    H     H_    0.812132 0.524111 0.611989 0.235907
H6    H     H_    0.490428 0.339599 0.921467 0.256606
H7    H     H_    0.626002 0.400393 0.928546 0.237037
H8    H     H_    0.458061 0.342866 0.067408 0.260221
N1    N     N_R   0.207800 0.519340 0.515510 -0.153180
N2    N     N_R   0.792190 0.480660 0.484490 -0.196271
O1    O     O_R   0.421690 0.658830 0.504140 -0.605556
O2    O     O_R   0.609320 0.646410 0.494190 -0.594987
O3    O     O_R   0.406150 0.506210 0.627840 -0.623984
O4    O     O_R   0.593770 0.493790 0.617880 -0.594490
O5    O     O_R   0.390680 0.353590 0.505810 -0.625052
O6    O     O_R   0.578310 0.341170 0.495860 -0.572632
O7    O     O_R   0.406230 0.506210 0.382120 -0.622911
O8    O     O_R   0.593850 0.493790 0.372160 -0.555770
Zn1   Zn    Zn3+2 0.374720 0.508290 0.506640 1.015585
Zn2   Zn    Zn3+2 0.625280 0.491710 0.493360 1.081305
S1    S     S_3+6 0.310791 0.645169 0.098429 0.106736
O9    O     O_2   0.313405 0.648968 0.193610 -0.196393
O10   O     O_2   0.367937 0.742782 0.061079 -0.230316
O11   O     O_3   0.176888 0.638220 0.073325 -0.479710
H9    H     H_    0.144065 0.698964 0.102444 0.412414
S2    S     S_3+6 0.269264 0.430816 0.922589 0.062760
O12   O     O_2   0.156598 0.464468 0.954343 -0.189495
O13   O     O_2   0.272578 0.422294 0.827262 -0.267649
O14   O     O_3   0.287041 0.313281 0.963175 -0.563013
H10   H     H_    0.224312 0.267366 0.943599 0.415200
H11   H     H_    0.319015 0.465286 0.082063 0.192170
H12   H     H_    0.603086 0.379044 0.071741 0.213950
H13   H     H_    0.300309 0.180875 0.451806 0.201848
S3    S     S_3+6 0.784983 0.041921 0.523694 0.096373
O15   O     O_2   0.794901 0.127889 0.459533 -0.254649
O16   O     O_2   0.799370 0.089254 0.610413 -0.208096
O17   O     O_3   0.888579 0.962592 0.499953 -0.425448
H14   H     H_    0.883324 0.945193 0.438819 0.375800
S4    S     S_3+6 0.237879 0.966732 0.423902 0.083865
O18   O     O_2   0.262619 0.911047 0.340907 -0.199208
O19   O     O_2   0.190476 0.888379 0.488533 -0.252665
O20   O     O_3   0.142594 0.054017 0.409579 -0.476761
H15   H     H_    0.112949 0.072498 0.467600 0.389200
S5    S     S_3+6 0.732116 0.800129 0.593480 0.141691
O21   O     O_2   0.786600 0.874194 0.655234 -0.101911
O22   O     O_2   0.670913 0.713613 0.643667 -0.291716
O23   O     O_3   0.831955 0.749413 0.528617 -0.469340
H16   H     H_    0.804804 0.750930 0.470697 0.341643
H17   H     H_    0.185049 0.490581 0.386777 0.199197
S6    S     S_3+6 0.016267 0.526707 0.285088 0.105867
O24   O     O_2   0.100576 0.617571 0.290902 -0.238313
O25   O     O_2   0.072840 0.435306 0.245413 -0.234176
O26   O     O_3   0.917053 0.561668 0.222970 -0.450461
H18   H     H_    0.955270 0.571223 0.165799 0.412643
S7    S     S_3+6 0.988384 0.555099 0.715557 0.110637
O27   O     O_2   0.912853 0.643931 0.718122 -0.154673
O28   O     O_2   0.923063 0.457094 0.744444 -0.234811
O29   O     O_3   0.091450 0.582702 0.781096 -0.502137
H19   H     H_    0.052956 0.594969 0.837498 0.432195
S8    S     S_3+6 0.788376 0.373028 0.328812 0.128553
O30   O     O_2   0.879829 0.308361 0.291959 -0.206905
O31   O     O_2   0.698332 0.299669 0.367376 -0.260006
O32   O     O_3   0.737775 0.436389 0.248698 -0.512293
H20   H     H_    0.719958 0.381688 0.205832 0.369734
S9    S     S_3+6 0.706534 0.629322 0.890915 0.124692
O33   O     O_2   0.796986 0.661085 0.949283 -0.170102
O34   O     O_2   0.738961 0.533736 0.841799 -0.235263
O35   O     O_3   0.697013 0.727123 0.822754 -0.385219
H21   H     H_    0.618765 0.721629 0.806507 0.345255
H22   H     H_    0.528249 0.677903 0.943076 0.154274
S10   S     S_3+6 0.614094 0.715334 0.103477 0.123314
O36   O     O_2   0.731926 0.720055 0.130323 -0.222285
O37   O     O_2   0.602211 0.806029 0.046379 -0.200734
O38   O     O_3   0.528914 0.727819 0.191268 -0.494769
H23   H     H_    0.555567 0.793928 0.218542 0.391846
H24   H     H_    0.668294 0.553705 0.051741 0.164227

loop_
_geom_bond_atom_site_label_1
_geom_bond_atom_site_label_2
_ccdc_geom_bond_type
O26   H18   S    
C26   H17   S    
S4    O18   D    
S6    O26   S    
C12   O4    A    
C2    H11   S    
O23   H16   S    
C7    C8    T    
O4    Zn2   S    
S10   O37   D    
O6    Zn2   S    
C32   H24   S    
S2    O14   S    
S6    O25   D    
C2    S1    S    
C14   H2    S    
S5    O22   D    
C1    O2    A    
C23   O5    A    
C20   C25   A    
C27   H4    S    
C15   C16   A    
C29   C33   S    
O38   H23   S    
S2    O13   D    
C18   C19   A    
S3    O15   D    
S6    O24   D    
N1    Zn1   S    
C22   N2    A    
C31   C32   S    
C16   C17   A    
C30   S2    S    
C28   S7    S    
C31   S9    S    
S7    O28   D    
O3    Zn1   S    
C3    C6    S    
O1    Zn1   S    
S4    O19   D    
O35   H21   S    
C12   O3    A    
O8    Zn2   S    
C26   N1    A    
O32   H20   S    
S10   O38   S    
C30   C34   S    
C19   S4    S    
C24   C25   A    
C10   C14   A    
S5    O21   D    
C9    C23   S    
C23   O6    A    
S8    O32   S    
C18   H13   S    
C30   H3    S    
S2    O12   D    
O7    Zn1   S    
C15   C19   A    
N2    Zn2   S    
C21   N2    A    
C11   C16   A    
S9    O33   D    
C8    C12   S    
C5    C34   S    
O2    Zn2   S    
S1    O9    D    
C31   C34   S    
S8    O30   D    
O20   H15   S    
S7    O29   S    
S8    O31   D    
C9    C17   A    
S9    O34   D    
C32   S10   S    
C20   S6    S    
C7    C34   S    
C22   C24   A    
O11   H9    S    
C3    C4    S    
C11   S3    S    
C29   O7    A    
C5    H7    S    
C13   S5    S    
C1    C10   S    
C24   C28   A    
C4    C5    S    
C10   C13   A    
S10   O36   D    
C6    C33   T    
C2    C30   S    
C31   H22   S    
S1    O10   D    
C2    C3    S    
C25   C26   A    
O17   H14   S    
C4    H12   S    
C11   C13   A    
S5    O23   S    
C1    O1    A    
C4    H8    S    
S3    O17   S    
O5    Zn1   S    
C22   H5    S    
O29   H19   S    
S4    O20   S    
C3    C32   S    
O14   H10   S    
C27   N1    A    
C9    C18   A    
S9    O35   S    
C20   C21   A    
S3    O16   D    
C21   S8    S    
S1    O11   S    
C27   C28   A    
C14   C15   A    
C17   H1    S    
S7    O27   D    
C5    H6    S    
C29   O8    A    
