data_mof_unit_55675.cif
_audit_creation_date              2012-12-11T17:45:23-0500
_audit_creation_method            fapswitch 2.2
_symmetry_space_group_name_H-M    P1
_symmetry_Int_Tables_number       1
_space_group_crystal_system       triclinic
_cell_length_a                    15.007067
_cell_length_b                    15.001131
_cell_length_c                    15.111863
_cell_angle_alpha                 110.624547
_cell_angle_beta                  108.240782
_cell_angle_gamma                 109.255894
_cell_volume                      2627.42979332

loop_
_atom_site_label
_atom_site_type_symbol
_atom_type_description
_atom_site_fract_x
_atom_site_fract_y
_atom_site_fract_z
_atom_type_partial_charge
C1    C     C_R   0.979122 0.255003 0.066800 -0.085050
C2    C     C_R   0.709842 0.191861 0.798246 0.402742
C3    C     C_R   0.776059 0.591750 0.032751 -0.127204
C4    C     C_R   0.313980 0.766468 0.223518 -0.119997
C5    C     C_R   0.949338 0.410833 0.685769 -0.166859
C6    C     C_R   0.675110 0.499919 0.957665 0.006169
C7    C     C_R   0.974969 0.505465 0.678813 0.053061
C8    C     C_R   0.710752 0.124819 0.708215 -0.167374
C9    C     C_R   0.024339 0.846574 0.031776 0.178781
C10   C     C_R   0.589818 0.248549 0.109163 0.110779
C11   C     C_R   0.680547 0.339559 0.204553 -0.158553
C12   C     C_R   0.321282 0.801780 0.324901 0.129628
C13   C     C_R   0.740828 0.326281 0.286338 -0.015823
C14   C     C_R   0.706840 0.220050 0.271395 -0.197997
C15   C     C_R   0.613708 0.129196 0.177977 0.596160
C16   C     C_R   0.207689 0.411412 0.898556 -0.162231
C17   C     C_R   0.555311 0.144033 0.096763 -0.343373
C18   C     C_R   0.856369 0.427341 0.486279 -0.235533
C19   C     C_R   0.950975 0.512658 0.582106 0.059388
C20   C     C_R   0.022137 0.603226 0.583584 0.023576
C21   C     C_R   0.996740 0.604930 0.489248 -0.225229
C22   C     C_R   0.914288 0.511299 0.390526 0.051425
C23   C     C_R   0.295949 0.503024 0.921594 -0.010334
C24   C     C_R   0.838082 0.422930 0.387934 0.084950
C25   C     C_R   0.164374 0.799588 0.717817 -0.144325
C26   C     C_R   0.272009 0.879655 0.793295 -0.058817
C27   C     C_R   0.349589 0.848641 0.823065 -0.118661
C28   C     C_R   0.990391 0.592354 0.295130 -0.137520
C29   C     C_R   0.319491 0.737827 0.778646 -0.044173
C30   C     C_R   0.211782 0.657348 0.704362 -0.108314
C31   C     C_R   0.133307 0.687702 0.673283 0.081038
C32   C     C_R   0.262986 0.114075 0.452175 -0.400426
C33   C     C_R   0.335728 0.075960 0.445340 0.563352
C34   C     C_R   0.930772 0.503008 0.298821 0.043763
C35   C     C_R   0.342901 0.004107 0.483508 -0.178575
C36   C     C_R   0.275384 0.968969 0.526522 0.271267
C37   C     C_R   0.194893 0.998618 0.520894 0.527903
C38   C     C_R   0.194498 0.076573 0.490814 -0.345491
C39   C     C_R   0.530314 0.057677 0.581603 -0.209716
C40   C     C_R   0.291878 0.591968 0.984320 0.423022
C41   C     C_R   0.612793 0.033600 0.612372 0.044831
C42   C     C_R   0.598001 0.928597 0.551299 0.127710
C43   C     C_R   0.500751 0.851970 0.453734 -0.059465
C44   C     C_R   0.418924 0.878543 0.425716 0.007214
C45   C     C_R   0.686253 0.407946 0.937574 -0.126140
C46   C     C_R   0.431734 0.979370 0.493437 0.127366
C47   C     C_R   0.734936 0.868716 0.546013 0.529414
C48   C     C_R   0.785763 0.810127 0.570982 -0.316485
C49   C     C_R   0.771024 0.771095 0.639586 -0.081183
C50   C     C_R   0.707599 0.791961 0.685807 -0.116361
C51   C     C_R   0.658577 0.851739 0.663363 -0.300074
C52   C     C_R   0.905716 0.410364 0.209400 -0.089033
C53   C     C_R   0.671098 0.889760 0.592950 0.038399
C54   C     C_3   0.473206 0.390632 0.844642 -0.432677
C55   C     C_3   0.371204 0.400577 0.827468 -0.439471
C56   C     C_R   0.037387 0.594690 0.781527 -0.084383
C57   C     C_3   0.569418 0.521763 0.047462 -0.523335
C58   C     C_3   0.569153 0.591406 0.915810 -0.439810
C59   C     C_3   0.573584 0.500598 0.940724 0.348158
C60   C     C_3   0.397764 0.505907 0.926948 0.197299
C61   C     C_3   0.459705 0.509117 0.033775 0.396543
C62   C     C_3   0.474664 0.606572 0.924656 -0.135743
C63   C     C_R   0.041737 0.088653 0.726626 -0.167903
C64   C     C_R   0.219309 0.761323 0.313630 -0.164214
C65   C     C_R   0.023617 0.075626 0.808000 0.055903
C66   C     C_R   0.109638 0.096048 0.898991 0.156594
C67   C     C_R   0.796235 0.192198 0.704893 0.456055
C68   C     C_R   0.210900 0.123431 0.904932 -0.220525
C69   C     C_R   0.227782 0.135181 0.823072 -0.145822
C70   C     C_R   0.144132 0.120901 0.735905 -0.040580
C71   C     C_R   0.059526 0.974630 0.968146 0.426461
C72   C     C_R   0.033594 0.949444 0.040475 -0.076431
C73   C     C_R   0.028871 0.025896 0.123809 -0.191914
C74   C     C_R   0.073049 0.134904 0.147759 0.448814
C75   C     C_R   0.089477 0.157792 0.070262 -0.061512
C76   C     C_R   0.084300 0.278022 0.992247 -0.144617
C77   C     C_R   0.091493 0.079598 0.984269 -0.197361
C78   C     C_R   0.978483 0.790543 0.074794 -0.181412
C79   C     C_R   0.838992 0.966346 0.085253 -0.182015
C80   C     C_R   0.758813 0.943030 0.115135 -0.203225
C81   C     C_R   0.780350 0.940583 0.211007 0.052021
C82   C     C_R   0.882940 0.960901 0.277130 0.522644
C83   C     C_R   0.964619 0.988413 0.248450 -0.428097
C84   C     C_R   0.942604 0.989519 0.151914 0.175822
C85   C     C_R   0.064496 0.240855 0.058315 0.171855
C86   C     C_R   0.076728 0.796002 0.990656 -0.075748
H1    H     H_    0.940001 0.233104 0.110839 0.143941
H2    H     H_    0.752699 0.207177 0.332252 0.145627
H3    H     H_    0.798949 0.362247 0.488011 0.140758
H4    H     H_    0.055229 0.673646 0.492779 0.146612
H5    H     H_    0.105496 0.824428 0.692374 0.129626
H6    H     H_    0.295689 0.965621 0.826924 0.114804
H7    H     H_    0.433451 0.910122 0.879060 0.096664
H8    H     H_    0.380333 0.714683 0.800079 0.095558
H9    H     H_    0.190062 0.571704 0.668682 0.112411
H10   H     H_    0.138514 0.106471 0.494514 0.180816
H11   H     H_    0.178717 0.326976 0.843217 0.122794
H12   H     H_    0.068594 0.680011 0.806191 0.124578
H13   H     H_    0.258319 0.172008 0.426430 0.167510
H14   H     H_    0.541021 0.137667 0.630002 0.141628
H15   H     H_    0.835709 0.793620 0.536400 0.149697
H16   H     H_    0.809578 0.725468 0.657679 0.158429
H17   H     H_    0.696445 0.761844 0.739107 0.128655
H18   H     H_    0.010440 0.676320 0.342716 0.105852
H19   H     H_    0.607015 0.864472 0.697240 0.143056
H20   H     H_    0.466059 0.322955 0.861505 0.152907
H21   H     H_    0.479741 0.369035 0.769392 0.172749
H22   H     H_    0.338909 0.404366 0.752586 0.173005
H23   H     H_    0.945327 0.813315 0.126248 0.123144
H24   H     H_    0.309234 0.324562 0.812990 0.166048
H25   H     H_    0.585942 0.465669 0.073548 0.191572
H26   H     H_    0.646306 0.670418 0.970823 0.167852
H27   H     H_    0.557417 0.567927 0.832741 0.157925
H28   H     H_    0.427075 0.605516 0.850879 0.140118
H29   H     H_    0.633844 0.606595 0.113690 0.146503
H30   H     H_    0.474892 0.580671 0.104812 0.074403
H31   H     H_    0.159150 0.137024 0.676341 0.147833
H32   H     H_    0.977732 0.076532 0.657530 0.182022
H33   H     H_    0.275909 0.134889 0.972718 0.130752
H34   H     H_    0.138139 0.829465 0.970621 0.117836
H35   H     H_    0.306048 0.156967 0.827764 0.112373
H36   H     H_    0.853625 0.325843 0.182193 0.114028
H37   H     H_    0.821246 0.969180 0.011356 0.126994
H38   H     H_    0.680076 0.927645 0.063872 0.157818
H39   H     H_    0.044037 0.005378 0.298426 0.162059
H40   H     H_    0.195666 0.770288 0.375053 0.143902
H41   H     H_    0.150685 0.288142 0.976050 0.157666
H42   H     H_    0.623895 0.323097 0.887408 0.150198
H43   H     H_    0.913922 0.210845 0.675160 0.297350
H44   H     H_    0.601634 0.077166 0.797202 0.312858
H45   H     H_    0.794006 0.675354 0.074937 0.097330
H46   H     H_    0.530599 0.213399 0.954605 0.136684
H47   H     H_    0.453122 0.233047 0.010906 0.097110
H48   H     H_    0.515247 0.972227 0.098172 0.309051
H49   H     H_    0.387717 0.160288 0.382217 0.314807
H50   H     H_    0.347494 0.895579 0.578954 0.325219
H51   H     H_    0.119697 0.893272 0.555500 0.350701
H52   H     H_    0.488217 0.705143 0.430679 0.123895
H53   H     H_    0.537222 0.751645 0.358847 0.142215
H54   H     H_    0.788719 0.879455 0.447180 0.346221
H55   H     H_    0.395534 0.352153 0.984195 0.326512
H56   H     H_    0.901755 0.327314 0.619304 0.139465
H57   H     H_    0.295959 0.729657 0.014429 0.313724
H58   H     H_    0.506089 0.767692 0.995911 0.164065
H59   H     H_    0.501754 0.715167 0.078667 0.137448
H60   H     H_    0.889873 0.980247 0.804114 0.152263
H61   H     H_    0.869781 0.048566 0.738155 0.148763
H62   H     H_    0.091782 0.915647 0.852177 0.314319
H63   H     H_    0.084978 0.193572 0.290779 0.325495
H64   H     H_    0.724891 0.983140 0.315823 0.207117
H65   H     H_    0.684403 0.848050 0.248659 0.129912
H66   H     H_    0.969498 0.952740 0.396185 0.344953
H67   H     H_    0.482958 0.074987 0.024123 0.113109
H68   H     H_    0.704473 0.420374 0.214336 0.128937
H69   H     H_    0.379178 0.785670 0.204583 0.125873
N1    N     N_R   0.947080 0.293830 0.002870 -0.056262
N2    N     N_R   0.153670 0.443180 0.946090 -0.063644
N3    N     N_R   0.002360 0.556820 0.208890 -0.041505
N4    N     N_R   0.210070 0.556820 0.002870 -0.087983
N5    N     N_R   0.945960 0.443180 0.152110 -0.041164
N6    N     N_R   0.151710 0.706170 0.208890 -0.042397
N7    N     N_R   0.004320 0.293830 0.946090 -0.061867
N8    N     N_R   0.789930 0.443180 0.997130 -0.029359
N9    N     N_3   0.532440 0.262789 0.024934 -0.226467
N10   N     N_3   0.480467 0.744233 0.385826 -0.209338
N11   N     N_3   0.523651 0.715410 0.019921 -0.205766
N12   N     N_R   0.054040 0.556820 0.847890 -0.043642
N13   N     N_3   0.922667 0.054372 0.806332 -0.217879
N14   N     N_3   0.697154 0.916850 0.240370 -0.174260
N15   N     N_R   0.848290 0.293830 0.791110 -0.134467
N16   N     N_R   0.995680 0.706170 0.053910 -0.044866
N17   N     N_R   0.052920 0.706170 0.997130 -0.061006
N18   N     N_R   0.791050 0.293830 0.847890 -0.091240
N19   N     N_R   0.846330 0.556820 0.053910 -0.041982
N20   N     N_R   0.997640 0.443180 0.791110 -0.049653
N21   N     N_R   0.208950 0.706170 0.152110 -0.059352
Ni1   Ni    Ni4+2 0.869690 0.369690 0.000000 0.254012
Ni2   Ni    Ni4+2 0.130310 0.630310 0.000000 0.216747
Ni3   Ni    Ni4+2 0.000970 0.369690 0.869780 0.195654
Ni4   Ni    Ni4+2 0.999030 0.630310 0.130220 0.215411
O1    O     O_3   0.837529 0.153946 0.640282 -0.735255
O2    O     O_3   0.035911 0.889759 0.872404 -0.784245
O3    O     O_3   0.083875 0.216828 0.236878 -0.764790
O4    O     O_3   0.900783 0.953262 0.368595 -0.783496
O5    O     O_3   0.649252 0.157734 0.843793 -0.784328
O6    O     O_3   0.581767 0.027487 0.168602 -0.773009
O7    O     O_3   0.403130 0.110494 0.405515 -0.742503
O8    O     O_3   0.285537 0.907059 0.574886 -0.786103
O9    O     O_3   0.115328 0.953037 0.543999 -0.787697
O10   O     O_3   0.745056 0.904663 0.475488 -0.740085
O11   O     O_3   0.399765 0.417069 0.037491 -0.754716
O12   O     O_3   0.326314 0.687096 0.980804 -0.808612

loop_
_geom_bond_atom_site_label_1
_geom_bond_atom_site_label_2
_ccdc_geom_bond_type
C25   C31   A    
C64   N6    A    
C66   C68   A    
N16   N17   A    
C63   C65   A    
C1    H1    S    
C6    C45   A    
H63   O3    S    
C27   C29   A    
H54   O10   S    
C41   C42   A    
H48   O6    S    
C40   N4    A    
C76   N7    A    
C35   C36   A    
H55   O11   S    
C9    C72   S    
C56   H12   S    
C3    C6    A    
C17   H67   S    
C81   C82   A    
C5    H56   S    
H44   O5    S    
C57   H29   S    
C9    C78   A    
C65   N13   S    
C26   C27   A    
C30   H9    S    
C54   H21   S    
H52   N10   S    
C3    H45   S    
C36   C37   A    
C62   H28   S    
C42   C53   S    
C30   C31   A    
C12   C64   A    
C16   H11   S    
C57   C59   S    
H64   N14   S    
C45   H42   S    
C26   H6    S    
C23   C40   A    
C82   O4    S    
C60   C62   S    
C18   C19   A    
N2    Ni3   S    
C70   H31   S    
H53   N10   S    
N3    Ni4   S    
H60   N13   S    
C67   O1    S    
C11   H68   S    
C52   H36   S    
C75   C85   S    
C47   C48   A    
C68   C69   A    
N8    Ni1   S    
C58   H27   S    
H57   O12   S    
C32   C38   A    
C4    C12   A    
C29   C30   A    
C73   C84   S    
C47   C53   A    
N8    N19   A    
N21   Ni2   S    
N1    N7    A    
C50   H17   S    
N2    N4    A    
C21   C22   A    
H50   O8    S    
N3    N5    A    
C5    N20   A    
C71   O2    S    
C7    C56   A    
C83   H39   S    
C68   H33   S    
H49   O7    S    
C44   C46   A    
C54   C59   S    
C43   N10   S    
C67   N15   A    
C1    C85   A    
C23   C60   S    
C22   C34   S    
C15   O6    S    
C25   H5    S    
C74   C75   A    
C54   H20   S    
C13   C14   A    
C8    C41   S    
C39   C41   A    
H61   N13   S    
C49   H16   S    
C5    C7    A    
N6    N21   A    
C72   C73   A    
N20   Ni3   S    
C74   O3    S    
C25   C26   A    
C79   H37   S    
C82   C83   A    
C58   H26   S    
C13   C24   S    
H58   N11   S    
C60   C61   S    
C36   O8    S    
C1    N1    A    
C43   C44   A    
H46   N9    S    
C37   C38   A    
C9    C86   A    
N1    Ni1   S    
C28   H18   S    
C3    N19   A    
C83   C84   A    
C40   O12   S    
C63   C70   A    
C69   H35   S    
C51   H19   S    
N12   Ni2   S    
C61   H30   S    
C28   N3    A    
C50   C51   A    
C33   O7    S    
N6    Ni4   S    
C57   C61   S    
C75   C77   A    
N7    Ni3   S    
C58   C62   S    
C39   C46   A    
H51   O9    S    
C48   C49   A    
C62   N11   S    
C65   C66   A    
C16   C23   A    
C64   H40   S    
C37   O9    S    
C55   H24   S    
C29   H8    S    
C86   N17   A    
C18   C24   A    
N16   Ni4   S    
C27   H7    S    
H66   O4    S    
C42   C43   A    
N4    Ni2   S    
H47   N9    S    
N19   Ni4   S    
C71   C77   A    
N12   N20   A    
C80   H38   S    
N17   Ni2   S    
C63   H32   S    
C66   C77   S    
H43   O1    S    
C54   C55   S    
C73   C74   A    
C10   N9    S    
C79   C84   A    
C16   N2    A    
C18   H3    S    
C34   C52   A    
C6    C59   S    
C2    C8    A    
C80   C81   A    
C15   C17   A    
C55   H22   S    
C7    C19   S    
C81   N14   S    
H65   N14   S    
C32   H13   S    
N15   Ni3   S    
C32   C33   A    
C19   C20   A    
C58   C59   S    
C2    O5    S    
C14   H2    S    
C71   C72   A    
C2    N18   A    
C11   C13   A    
C39   H14   S    
C57   H25   S    
C47   O10   S    
C48   H15   S    
C76   C85   A    
C56   N12   A    
C78   N16   A    
C33   C35   A    
C78   H23   S    
C22   C24   A    
H59   N11   S    
C45   N8    A    
C69   C70   A    
N5    Ni1   S    
C21   H4    S    
C10   C11   A    
C28   C34   A    
C79   C80   A    
C4    H69   S    
C20   C21   A    
C8    C67   A    
H62   O2    S    
C49   C50   A    
C4    N21   A    
C38   H10   S    
C61   O11   S    
C76   H41   S    
C14   C15   A    
C12   C44   S    
C86   H34   S    
C10   C17   A    
C51   C53   A    
N18   Ni1   S    
C55   C60   S    
C35   C46   S    
C52   N5    A    
N15   N18   A    
C20   C31   S    
