data_mof_unit_12048.cif
_audit_creation_date              2012-10-26T20:43:02-0400
_audit_creation_method            fapswitch 2.2
_symmetry_space_group_name_H-M    P1
_symmetry_Int_Tables_number       1
_space_group_crystal_system       triclinic
_cell_length_a                    10.830209
_cell_length_b                    9.522199
_cell_length_c                    15.043688
_cell_angle_alpha                 90.2456
_cell_angle_beta                  90.010494
_cell_angle_gamma                 89.951715
_cell_volume                      1551.40168072

loop_
_atom_site_label
_atom_site_type_symbol
_atom_type_description
_atom_site_fract_x
_atom_site_fract_y
_atom_site_fract_z
_atom_type_partial_charge
C1    C     C_R   0.262074 0.500033 0.499845 0.552330
C2    C     C_R   0.128229 0.500048 0.499777 0.030290
C3    C     C_R   0.418917 0.074089 0.448186 0.016103
C4    C     C_R   0.581083 0.925911 0.551814 0.016102
C5    C     C_R   0.581056 0.074694 0.551845 0.017856
C6    C     C_R   0.418944 0.925306 0.448155 0.017856
C7    C     C_R   0.496482 0.499681 0.329002 0.539836
C8    C     C_R   0.503515 0.500319 0.670997 0.539845
C9    C     C_R   0.604441 0.567692 0.814449 -0.001076
C10   C     C_R   0.395559 0.432290 0.185552 -0.001081
C11   C     C_R   0.507626 0.501130 0.767491 -0.026439
C12   C     C_R   0.737926 0.499967 0.500155 0.552338
C13   C     C_R   0.492369 0.498871 0.232508 -0.026443
C14   C     C_R   0.414063 0.429967 0.812162 -0.133957
C15   C     C_R   0.585922 0.570051 0.187837 -0.133954
C16   C     C_R   0.411364 0.427826 0.904392 0.010320
C17   C     C_R   0.588627 0.572180 0.095607 0.010319
C18   C     C_R   0.502860 0.499690 0.953174 0.041353
C19   C     C_R   0.497136 0.500303 0.046826 0.041352
C20   C     C_R   0.599869 0.570751 0.908538 0.033070
C21   C     C_R   0.400132 0.429233 0.091463 0.033072
C22   C     C_R   0.317725 0.355011 0.948323 -0.130694
C23   C     C_R   0.312669 0.354413 0.040624 -0.095623
C24   C     C_R   0.682268 0.644992 0.051675 -0.130692
C25   C     C_2   0.711875 0.624705 0.764387 0.200249
C26   C     C_2   0.288130 0.375260 0.235615 0.200245
C27   C     C_R   0.687334 0.645570 0.959374 -0.095628
C28   C     C_R   0.063975 0.372539 0.495712 -0.121355
C29   C     C_R   0.936025 0.627461 0.504288 -0.121358
C30   C     C_R   0.936244 0.372488 0.496001 -0.120507
C31   C     C_R   0.063756 0.627512 0.503999 -0.120512
C32   C     C_R   0.871771 0.499951 0.500223 0.030294
Cu1   Cu    Cu3+1 0.500000 0.640660 0.500000 0.944474
Cu2   Cu    Cu3+1 0.500000 0.359340 0.500000 0.944477
H1    H     H_    0.342308 0.376875 0.774489 0.126144
H2    H     H_    0.111726 0.727180 0.507273 0.129705
H3    H     H_    0.353861 0.129792 0.406737 0.097980
H4    H     H_    0.646139 0.870207 0.593263 0.097981
H5    H     H_    0.645970 0.130957 0.593425 0.116056
H6    H     H_    0.354030 0.869043 0.406575 0.116055
H7    H     H_    0.698112 0.682767 0.703463 0.122318
H8    H     H_    0.301897 0.317229 0.296551 0.122334
H9    H     H_    0.657670 0.623160 0.225508 0.126146
H10   H     H_    0.248285 0.297613 0.911134 0.124474
H11   H     H_    0.751705 0.702397 0.088863 0.124470
H12   H     H_    0.240653 0.292749 0.071138 0.171873
H13   H     H_    0.759355 0.707221 0.928858 0.171853
H14   H     H_    0.112115 0.272900 0.492208 0.127138
H15   H     H_    0.887885 0.727100 0.507791 0.127137
H16   H     H_    0.888274 0.272820 0.492727 0.129706
N1    N     N_R   0.500000 0.852070 0.500000 -0.226412
N2    N     N_R   0.500000 0.147930 0.500000 -0.226412
O1    O     O_R   0.319640 0.618740 0.499990 -0.506452
O2    O     O_2   0.182525 0.398959 0.211516 -0.513703
O3    O     O_R   0.680360 0.381260 0.500010 -0.506450
O4    O     O_R   0.680360 0.618740 0.500010 -0.517358
O5    O     O_R   0.319640 0.381260 0.499990 -0.517361
O6    O     O_R   0.499970 0.618800 0.370260 -0.494076
O7    O     O_R   0.500030 0.381200 0.629740 -0.494073
O8    O     O_R   0.500030 0.618800 0.629740 -0.513922
O9    O     O_R   0.499970 0.381200 0.370260 -0.513923
O10   O     O_2   0.817476 0.600962 0.788477 -0.513690

loop_
_geom_bond_atom_site_label_1
_geom_bond_atom_site_label_2
_ccdc_geom_bond_type
C8    O8    A    
Cu2   O5    S    
C16   C22   A    
C3    N2    A    
C5    N2    A    
Cu1   O6    S    
C20   C27   A    
C1    O5    A    
C6    N1    A    
Cu1   N1    S    
C2    C31   A    
C7    O6    A    
Cu2   N2    S    
C7    O9    A    
C24   C27   A    
C3    C6    A    
C10   C26   S    
Cu1   O4    S    
C28   C30   A    
Cu1   Cu2   S    
C30   H16   S    
C9    C25   S    
Cu2   O3    S    
C29   C31   A    
C23   H12   S    
C29   H15   S    
C12   C32   S    
C30   C32   A    
Cu1   O8    S    
C9    C11   A    
C3    H3    S    
C12   O4    A    
C8    C11   S    
C24   H11   S    
C26   O2    D    
C27   H13   S    
C17   C19   A    
C28   H14   S    
C4    H4    S    
C1    C2    S    
C29   C32   A    
C18   C20   A    
C25   O10   D    
C13   C15   A    
C10   C21   A    
Cu1   O1    S    
Cu2   O7    S    
C11   C14   A    
C14   C16   A    
C12   O3    A    
C4    N1    A    
C15   H9    S    
C17   C24   A    
C7    C13   S    
C6    H6    S    
C26   H8    S    
C16   C18   A    
C18   C19   A    
C8    O7    A    
C14   H1    S    
C15   C17   A    
C5    H5    S    
C1    O1    A    
C31   H2    S    
C25   H7    S    
C2    C28   A    
C9    C20   A    
C19   C21   A    
C22   C23   A    
C21   C23   A    
Cu2   O9    S    
C22   H10   S    
C4    C5    A    
C10   C13   A    
