data_mof_unit_43390.cif
_audit_creation_date              2013-03-05T16:04:07-0500
_audit_creation_method            fapswitch 2.2
_symmetry_space_group_name_H-M    P1
_symmetry_Int_Tables_number       1
_space_group_crystal_system       triclinic
_cell_length_a                    10.866619
_cell_length_b                    9.534461
_cell_length_c                    10.879458
_cell_angle_alpha                 90.005249
_cell_angle_beta                  90.442056
_cell_angle_gamma                 89.958942
_cell_volume                      1127.15802561

loop_
_atom_site_label
_atom_site_type_symbol
_atom_site_description
_atom_site_fract_x
_atom_site_fract_y
_atom_site_fract_z
_atom_type_partial_charge
O1    O     O_R   0.319640 0.618740 0.499990 -0.592964
O2    O     O_R   0.680360 0.618740 0.500010 -0.592984
O3    O     O_R   0.319620 0.381170 0.499990 -0.572522
O4    O     O_R   0.680380 0.381170 0.500010 -0.572155
C1    C     C_R   0.262193 0.499386 0.506140 0.830320
C2    C     C_R   0.737842 0.499277 0.493993 0.830352
O5    O     O_R   0.500000 0.618810 0.319650 -0.572458
O6    O     O_R   0.500000 0.618810 0.680350 -0.572405
O7    O     O_R   0.499970 0.381240 0.319640 -0.530308
O8    O     O_R   0.500030 0.381240 0.680360 -0.530452
C3    C     C_R   0.513033 0.500634 0.262383 0.867333
C4    C     C_R   0.486988 0.500655 0.737622 0.867298
Cu1   Cu    Cu3+1 0.500000 0.640660 0.500000 1.007283
Cu2   Cu    Cu3+1 0.500000 0.359340 0.500000 1.064863
C5    C     C_R   0.550251 0.763489 0.116987 0.118447
C6    C     C_R   0.449501 0.763473 0.883050 0.118162
C7    C     C_R   0.508431 0.886423 0.062871 0.399558
C8    C     C_R   0.491286 0.886396 0.937099 0.399603
C9    C     C_R   0.479034 0.632858 0.938176 -0.094199
C10   C     C_R   0.520890 0.632859 0.061848 -0.094254
C11   C     C_R   0.526789 0.504041 0.126897 -0.206693
C12   C     C_R   0.473266 0.504053 0.873112 -0.206548
C13   C     C_R   0.520022 0.377798 0.060955 0.353597
C14   C     C_R   0.480192 0.377806 0.939037 0.353652
C15   C     C_R   0.062710 0.368935 0.515643 0.141815
C16   C     C_R   0.937645 0.368582 0.486633 0.141960
C17   C     C_R   0.872023 0.496719 0.489854 -0.113146
C18   C     C_R   0.128062 0.497005 0.510542 -0.113208
C19   C     C_R   0.936316 0.623811 0.497393 -0.162069
C20   C     C_R   0.063573 0.623893 0.501290 -0.161986
H1    H     H_    0.888568 0.723615 0.497382 0.192012
H2    H     H_    0.111173 0.723695 0.499826 0.191534
C21   C     C_R   0.411273 0.074319 0.438113 0.109027
C22   C     C_R   0.588611 0.074183 0.562041 0.109150
H3    H     H_    0.340713 0.130109 0.387349 0.170466
H4    H     H_    0.659035 0.129871 0.612995 0.170855
C23   C     C_R   0.410006 0.925675 0.439962 0.058746
C24   C     C_R   0.589928 0.925543 0.560128 0.059033
H5    H     H_    0.337595 0.869822 0.392033 0.161635
H6    H     H_    0.662310 0.869587 0.608106 0.162090
N1    N     N_R   0.500000 0.852070 0.500000 -0.188346
N2    N     N_R   0.500000 0.147940 0.500000 -0.185418
Cl1   Cl    Cl    0.583116 0.222313 0.122407 -0.445656
Cl2   Cl    Cl    0.417264 0.222343 0.877582 -0.445794
I1    I     I_    0.712631 0.789980 0.225312 -0.194721
I2    I     I_    0.287070 0.789940 0.774752 -0.194402
Cl3   Cl    Cl    0.391465 0.971980 0.143288 -0.553298
Cl4   Cl    Cl    0.608520 0.971357 0.856766 -0.553290
I3    I     I_    0.138159 0.179328 0.592479 -0.212867
I4    I     I_    0.862989 0.177285 0.412394 -0.216649

loop_
_geom_bond_atom_site_label_1
_geom_bond_atom_site_label_2
_geom_bond_distance
_ccdc_geom_bond_type
C24   H6    1.081132 S    
O7    Cu2   1.973314 S    
C19   C20   1.383184 A    
O6    C4    1.295783 A    
C17   C19   1.401243 A    
C1    C18   1.458898 S    
C7    Cl3   1.749840 S    
C9    C10   1.416957 A    
C22   N2    1.366156 A    
Cu2   N2    2.015585 S    
C13   C14   1.392054 A    
C18   C20   1.400923 A    
C7    C8    1.379533 A    
C23   H5    1.081135 S    
C6    C8    1.386383 A    
Cu1   Cu2   2.682235 S    
C15   C18   1.414317 A    
O5    C3    1.295677 A    
O7    C3    1.306057 A    
C16   C17   1.414731 A    
O2    C2    1.300538 A    
O3    Cu2   1.970991 S    
O8    C4    1.305947 A    
C6    C9    1.417795 A    
O1    C1    1.300318 A    
C21   N2    1.366207 A    
C12   C14   1.402909 A    
Cu1   N1    2.015680 S    
C21   H3    1.081111 S    
C22   H4    1.081124 S    
C16   I4    2.151484 S    
C11   C13   1.402868 A    
O4    Cu2   1.971287 S    
C5    C10   1.417871 A    
C14   Cl2   1.762365 S    
C15   I3    2.150977 S    
O4    C2    1.289931 A    
O1    Cu1   1.971163 S    
C5    I1    2.129491 S    
C20   H2    1.083557 S    
O6    Cu1   1.973158 S    
C4    C12   1.483075 S    
O5    Cu1   1.973121 S    
C9    C12   1.418610 A    
C13   Cl1   1.762501 S    
C10   C11   1.418734 A    
C24   N1    1.365520 A    
C19   H1    1.083515 S    
O8    Cu2   1.973275 S    
C6    I2    2.129481 S    
C5    C7    1.386445 A    
O2    Cu1   1.970865 S    
C15   C16   1.392828 A    
C22   C24   1.417423 A    
C23   N1    1.365554 A    
C3    C11   1.483073 S    
C21   C23   1.417466 A    
C2    C17   1.459320 S    
O3    C1    1.289936 A    
C8    Cl4   1.749779 S    
