data_mof_unit_37560.cif
_audit_creation_date              2012-12-11T17:47:35-0500
_audit_creation_method            fapswitch 2.2
_symmetry_space_group_name_H-M    P1
_symmetry_Int_Tables_number       1
_space_group_crystal_system       triclinic
_cell_length_a                    14.850351
_cell_length_b                    14.904704
_cell_length_c                    15.153628
_cell_angle_alpha                 111.152955
_cell_angle_beta                  108.411355
_cell_angle_gamma                 108.210013
_cell_volume                      2600.54113498

loop_
_atom_site_label
_atom_site_type_symbol
_atom_type_description
_atom_site_fract_x
_atom_site_fract_y
_atom_site_fract_z
_atom_type_partial_charge
C1    C     C_R   0.972626 0.247048 0.059746 -0.120028
C2    C     C_R   0.063651 0.142046 0.160747 -0.131050
C3    C     C_R   0.145630 0.004931 0.785213 -0.245741
C4    C     C_R   0.836744 0.996057 0.255201 -0.209235
C5    C     C_R   0.115389 0.016410 0.865365 0.463910
C6    C     C_R   0.935431 0.038013 0.255532 0.439798
C7    C     C_R   0.596623 0.310464 0.131140 -0.118265
C8    C     C_R   0.328617 0.681774 0.808138 -0.123272
C9    C     C_R   0.691751 0.387451 0.229059 -0.114489
C10   C     C_R   0.223540 0.612617 0.720908 -0.108892
C11   C     C_R   0.744541 0.353325 0.294411 0.106973
C12   C     C_R   0.089454 0.804335 0.005272 -0.051978
C13   C     C_R   0.162953 0.657283 0.679046 0.095992
C14   C     C_R   0.698627 0.241121 0.261380 -0.151179
C15   C     C_R   0.210152 0.771726 0.724192 -0.154850
C16   C     C_R   0.313637 0.753493 0.223098 -0.105894
C17   C     C_R   0.696771 0.202757 0.785428 -0.062528
C18   C     C_R   0.602796 0.164437 0.163680 -0.104716
C19   C     C_R   0.315013 0.840572 0.811886 -0.105127
C20   C     C_R   0.552160 0.198984 0.098312 -0.101331
C21   C     C_R   0.374165 0.795589 0.854049 -0.106651
C22   C     C_R   0.865369 0.433715 0.489797 -0.203116
C23   C     C_R   0.319885 0.775316 0.322878 0.199137
C24   C     C_R   0.033822 0.587946 0.493305 -0.212756
C25   C     C_R   0.965314 0.507289 0.583722 0.077617
C26   C     C_R   0.936397 0.511171 0.397785 0.066964
C27   C     C_R   0.051280 0.584764 0.585927 0.028713
C28   C     C_R   0.849705 0.434018 0.394739 0.024108
C29   C     C_R   0.182405 0.111149 0.969836 -0.033878
C30   C     C_R   0.941980 0.988609 0.160051 -0.061569
C31   C     C_R   0.311337 0.176207 0.912233 -0.118760
C32   C     C_R   0.749280 0.858760 0.066260 -0.127075
C33   C     C_R   0.157972 0.983894 0.372350 -0.068835
C34   C     C_R   0.690199 0.151427 0.685958 0.155746
C35   C     C_R   0.895144 0.019812 0.686584 -0.061018
C36   C     C_R   0.255317 0.982305 0.391014 -0.086935
C37   C     C_R   0.788481 0.995579 0.661504 -0.107677
C38   C     C_R   0.301240 0.955854 0.467371 0.235926
C39   C     C_R   0.714141 0.966021 0.558129 0.207587
C40   C     C_R   0.214179 0.408459 0.908198 -0.144049
C41   C     C_R   0.775816 0.593013 0.026811 -0.152861
C42   C     C_R   0.250083 0.933381 0.526416 -0.152700
C43   C     C_R   0.746466 0.953698 0.478510 -0.100623
C44   C     C_R   0.151088 0.932563 0.505248 -0.177097
C45   C     C_R   0.306386 0.500304 0.941849 0.033991
C46   C     C_R   0.851894 0.972639 0.502791 -0.124461
C47   C     C_R   0.104983 0.957789 0.428136 -0.043594
C48   C     C_R   0.926828 0.007857 0.607317 -0.105297
C49   C     C_R   0.498033 0.050197 0.569573 0.438287
C50   C     C_R   0.512487 0.864180 0.450780 0.436521
C51   C     C_R   0.597850 0.051960 0.594963 -0.153268
C52   C     C_R   0.412687 0.862972 0.425120 -0.149642
C53   C     C_R   0.606915 0.959928 0.536029 -0.167093
C54   C     C_R   0.404874 0.954512 0.487995 -0.181180
C55   C     C_R   0.243310 0.084750 0.808448 -0.174336
C56   C     C_R   0.675502 0.501246 0.952878 0.061454
C57   C     C_R   0.744311 0.906181 0.161317 -0.165904
C58   C     C_R   0.040045 0.040319 0.151670 0.076676
C59   C     C_R   0.158355 0.115812 0.058230 0.097381
C60   C     C_R   0.281418 0.190116 0.992969 -0.222416
C61   C     C_R   0.846898 0.900501 0.065103 -0.170648
C62   C     C_R   0.092480 0.985274 0.109310 0.043395
C63   C     C_R   0.099119 0.165772 0.092484 0.033857
C64   C     C_R   0.994930 0.593489 0.298261 -0.161552
C65   C     C_R   0.953419 0.409027 0.686052 -0.122333
C66   C     C_3   0.466306 0.397628 0.880889 -0.153531
C67   C     C_R   0.939403 0.504172 0.302486 0.055124
C68   C     C_3   0.506092 0.606311 0.981086 -0.181216
C69   C     C_3   0.407538 0.448286 0.827749 -0.103933
C70   C     C_3   0.563817 0.555659 0.033911 -0.120538
C71   C     C_3   0.398902 0.502194 0.929572 0.158896
C72   C     C_3   0.574059 0.501514 0.932918 0.172835
C73   C     C_3   0.456303 0.452116 0.982422 -0.164395
C74   C     C_3   0.517715 0.552418 0.879705 -0.158103
C75   C     C_R   0.302979 0.591575 0.000902 -0.083724
C76   C     C_R   0.685658 0.408837 0.936570 -0.093545
C77   C     C_R   0.909218 0.410753 0.210762 -0.110802
C78   C     C_R   0.978508 0.502971 0.679003 0.049306
C79   C     C_R   0.037962 0.594001 0.780930 -0.092006
C80   C     C_R   0.216932 0.736976 0.308986 -0.136172
C81   C     C_R   0.785842 0.208854 0.690941 -0.133488
C82   C     C_R   0.068178 0.250127 0.971243 -0.143348
C83   C     C_R   0.999202 0.803325 0.097436 -0.166732
C84   C     C_R   0.051255 0.220743 0.044170 0.089138
C85   C     C_R   0.057914 0.867955 0.069098 0.084264
C86   C     C_R   0.170077 0.040276 0.087444 -0.168453
Cl1   Cl    Cl    0.994970 0.908155 0.833060 -0.718291
Cl2   Cl    Cl    0.047003 0.155577 0.375719 -0.718909
Cl3   Cl    Cl    0.488703 0.171717 0.632040 -0.698029
Cl4   Cl    Cl    0.517843 0.743902 0.378299 -0.669783
H1    H     H_    0.936172 0.234020 0.108175 0.097285
H2    H     H_    0.374796 0.647065 0.839879 0.116161
H3    H     H_    0.725146 0.473453 0.253090 0.118546
H4    H     H_    0.189379 0.524567 0.686161 0.127756
H5    H     H_    0.738280 0.212698 0.309871 0.118600
H6    H     H_    0.165279 0.807280 0.691720 0.120865
H7    H     H_    0.568446 0.078060 0.138051 0.104641
H8    H     H_    0.350436 0.928686 0.846899 0.114527
H9    H     H_    0.800058 0.376212 0.490923 0.136050
H10   H     H_    0.101487 0.644312 0.493775 0.130714
H11   H     H_    0.430474 0.414964 0.027632 0.129287
H12   H     H_    0.147163 0.831445 0.979282 0.093295
H13   H     H_    0.545417 0.592941 0.837542 0.131737
H14   H     H_    0.379921 0.776596 0.206006 0.119237
H15   H     H_    0.641036 0.171238 0.811958 0.104081
H16   H     H_    0.336518 0.260312 0.073886 0.152641
H17   H     H_    0.848009 0.865249 0.989437 0.175628
H18   H     H_    0.028517 0.957445 0.411819 0.121794
H19   H     H_    0.009583 0.027135 0.626870 0.122154
H20   H     H_    0.123812 0.005065 0.314202 0.143617
H21   H     H_    0.953555 0.050469 0.768244 0.148191
H22   H     H_    0.294744 0.001301 0.346099 0.115455
H23   H     H_    0.093899 0.932884 0.705272 0.148309
H24   H     H_    0.765662 0.006365 0.724298 0.123070
H25   H     H_    0.285517 0.913903 0.586487 0.116464
H26   H     H_    0.690958 0.932281 0.398608 0.123871
H27   H     H_    0.220040 0.006860 0.066129 0.114708
H28   H     H_    0.029668 0.187219 0.199177 0.154512
H29   H     H_    0.340415 0.404672 0.743780 0.146170
H30   H     H_    0.629184 0.599748 0.118927 0.129618
H31   H     H_    0.449907 0.311684 0.837116 0.148071
H32   H     H_    0.520346 0.691711 0.021970 0.105387
H33   H     H_    0.188209 0.324402 0.851242 0.112818
H34   H     H_    0.830953 0.034916 0.327307 0.142825
H35   H     H_    0.794262 0.677964 0.061871 0.122332
H36   H     H_    0.356687 0.675859 0.028987 0.079297
H37   H     H_    0.622125 0.324659 0.889768 0.124325
H38   H     H_    0.857169 0.326718 0.184708 0.107746
H39   H     H_    0.071713 0.679512 0.804038 0.132389
H40   H     H_    0.193554 0.739943 0.369912 0.114042
H41   H     H_    0.811334 0.184383 0.631036 0.103618
H42   H     H_    0.123279 0.243616 0.940710 0.119499
H43   H     H_    0.977678 0.829818 0.160220 0.106690
H44   H     H_    0.267577 0.074713 0.746808 0.154957
H45   H     H_    0.388871 0.234200 0.930491 0.111157
H46   H     H_    0.668340 0.875024 0.161895 0.122457
H47   H     H_    0.109947 0.912056 0.548159 0.112132
H48   H     H_    0.876409 0.962741 0.441448 0.121423
H49   H     H_    0.020015 0.678385 0.351824 0.106426
H50   H     H_    0.913257 0.325157 0.620815 0.107728
H51   H     H_    0.676992 0.791051 0.992709 0.123889
H52   H     H_    0.478810 0.139187 0.022150 0.112876
H53   H     H_    0.455472 0.848806 0.921826 0.101444
H54   H     H_    0.558336 0.337726 0.080724 0.103486
N1    N     N_R   0.947560 0.293820 0.002910 -0.048275
N2    N     N_R   0.789450 0.443190 0.997090 -0.048760
N3    N     N_R   0.945970 0.443180 0.152110 -0.040530
N4    N     N_R   0.054030 0.556820 0.847890 -0.050895
N5    N     N_R   0.151530 0.706170 0.208880 -0.053476
N6    N     N_R   0.848470 0.293830 0.791120 -0.045075
N7    N     N_R   0.004980 0.293810 0.946140 -0.047568
N8    N     N_R   0.995020 0.706190 0.053860 -0.036076
N9    N     N_R   0.052440 0.706180 0.997090 -0.049364
N10   N     N_R   0.208960 0.706170 0.152110 -0.060412
N11   N     N_R   0.791040 0.293830 0.847890 -0.048765
N12   N     N_R   0.154330 0.443160 0.946140 -0.038125
N13   N     N_R   0.845670 0.556840 0.053860 -0.041185
N14   N     N_R   0.002190 0.556820 0.208880 -0.034687
N15   N     N_R   0.997810 0.443180 0.791120 -0.042256
N16   N     N_R   0.210550 0.556810 0.002910 -0.036994
Ni1   Ni    Ni4+2 0.869690 0.369690 0.000000 0.218922
Ni2   Ni    Ni4+2 0.130310 0.630310 0.000000 0.215406
Ni3   Ni    Ni4+2 0.001390 0.369680 0.869810 0.221954
Ni4   Ni    Ni4+2 0.998610 0.630320 0.130190 0.217462

loop_
_geom_bond_atom_site_label_1
_geom_bond_atom_site_label_2
_ccdc_geom_bond_type
C75   N16   A    
C58   C62   A    
C44   H47   S    
C56   C76   A    
C45   C71   S    
C14   C18   A    
C1    N1    A    
C67   C77   A    
C24   C27   A    
C12   N9    A    
C65   N15   A    
C2    H28   S    
C35   H21   S    
N2    N13   A    
C26   C28   A    
N11   Ni1   S    
C1    C84   A    
C15   C19   A    
N6    Ni3   S    
C62   C86   A    
C34   C51   S    
C12   C85   A    
C26   C67   S    
C19   C21   A    
C24   C26   A    
C32   C61   A    
C38   C42   A    
C17   H15   S    
C11   C14   A    
C81   H41   S    
C66   C69   S    
C10   H4    S    
C68   C74   S    
C81   N6    A    
C79   H39   S    
C33   C36   A    
C6    Cl2   S    
C4    H34   S    
C69   C71   S    
C65   H50   S    
C3    C55   A    
C16   H14   S    
C66   C72   S    
C29   C59   S    
N12   Ni3   S    
C70   H30   S    
C49   C51   A    
C22   C25   A    
C50   Cl4   S    
C4    C57   A    
C36   H22   S    
C50   C52   A    
C57   H46   S    
C8    H2    S    
C18   H7    S    
C23   C80   A    
C77   N3    A    
C82   N7    A    
C44   C47   A    
N14   Ni4   S    
C46   H48   S    
C68   C70   S    
C73   H11   S    
C48   H19   S    
C76   N2    A    
C1    H1    S    
C22   C28   A    
C80   N5    A    
C42   C44   A    
C32   C57   A    
C35   C48   A    
C7    H54   S    
N2    Ni1   S    
C19   H8    S    
C52   C54   A    
C5    C29   A    
C40   C45   A    
C62   C85   S    
C46   C48   A    
C50   C53   A    
C80   H40   S    
C25   C78   S    
C64   C67   A    
C20   H52   S    
N12   N16   A    
C21   H53   S    
C72   C74   S    
N3    Ni1   S    
C68   H32   S    
C15   H6    S    
C71   C73   S    
C78   C79   A    
C39   C43   A    
C37   H24   S    
C56   C72   S    
C66   C73   S    
C69   H29   S    
C51   C53   A    
N4    N15   A    
N16   Ni2   S    
C31   C60   A    
N5    N10   A    
C41   C56   A    
C12   H12   S    
C41   H35   S    
C43   H26   S    
C38   C54   S    
C29   C60   A    
C70   C73   S    
C8    C21   A    
C66   H31   S    
C69   C74   S    
N5    Ni4   S    
N1    N7    A    
C9    C11   A    
N13   Ni4   S    
C32   H51   S    
N8    Ni4   S    
C77   H38   S    
C41   N13   A    
C31   H45   S    
C83   C85   A    
C7    C20   A    
C16   C23   A    
N7    Ni3   S    
N6    N11   A    
C13   C15   A    
C3    H23   S    
C33   C47   A    
N15   Ni3   S    
C4    C6    A    
C17   C34   A    
C82   H42   S    
C17   N11   A    
C9    H3    S    
C14   H5    S    
C60   H16   S    
C2    C63   A    
C35   C37   A    
C83   N8    A    
C7    C9    A    
C40   H33   S    
C22   H9    S    
C6    C30   A    
C24   H10   S    
C59   C63   A    
N10   Ni2   S    
C40   N12   A    
C49   Cl3   S    
C3    C5    A    
C10   C13   A    
C2    C58   A    
C79   N4    A    
C25   C27   A    
C55   H44   S    
C63   C84   S    
C82   C84   A    
C45   C75   A    
N9    Ni2   S    
C65   C78   A    
C75   H36   S    
N4    Ni2   S    
C36   C38   A    
C59   C86   A    
C37   C39   A    
C16   N10   A    
C23   C52   S    
C39   C53   S    
N1    Ni1   S    
C11   C28   S    
C68   C71   S    
C30   C58   S    
C86   H27   S    
C18   C20   A    
C61   H17   S    
C43   C46   A    
C83   H43   S    
C5    Cl1   S    
C42   H25   S    
N8    N9    A    
C8    C10   A    
C47   H18   S    
C30   C61   A    
C64   N14   A    
C76   H37   S    
C13   C27   S    
C70   C72   S    
C33   H20   S    
C31   C55   A    
N3    N14   A    
C34   C81   A    
C49   C54   A    
C74   H13   S    
C64   H49   S    
