data_mof_unit_36804.cif
_audit_creation_date              2012-10-26T21:08:07-0400
_audit_creation_method            fapswitch 2.2
_symmetry_space_group_name_H-M    P1
_symmetry_Int_Tables_number       1
_space_group_crystal_system       triclinic
_cell_length_a                    15.86611
_cell_length_b                    10.816588
_cell_length_c                    9.622425
_cell_angle_alpha                 88.402181
_cell_angle_beta                  89.725171
_cell_angle_gamma                 94.052662
_cell_volume                      1646.56575005

loop_
_atom_site_label
_atom_site_type_symbol
_atom_type_description
_atom_site_fract_x
_atom_site_fract_y
_atom_site_fract_z
_atom_type_partial_charge
C1    C     C_R   0.499329 0.262732 0.502176 0.534969
C2    C     C_R   0.706801 0.089014 0.689465 -0.140758
C3    C     C_R   0.721891 0.970608 0.649475 -0.123795
C4    C     C_R   0.340003 0.499234 0.500276 0.564782
C5    C     C_R   0.661737 0.900980 0.572923 -0.011571
C6    C     C_R   0.581181 0.946237 0.546530 -0.019817
C7    C     C_R   0.571903 0.073435 0.568828 0.004886
C8    C     C_R   0.503010 0.129469 0.507492 -0.022487
C9    C     C_R   0.440159 0.059190 0.438635 -0.145744
C10   C     C_R   0.442736 0.931420 0.432397 0.109539
C11   C     C_R   0.511890 0.873539 0.489691 0.021626
C12   C     C_3   0.082715 0.490022 0.501843 0.019546
C13   C     C_R   0.612330 0.666306 0.138299 -0.076493
C14   C     C_R   0.669797 0.745747 0.064625 -0.153634
C15   C     C_R   0.671701 0.744090 0.921552 -0.163105
C16   C     C_R   0.506645 0.737961 0.497544 0.570890
C17   C     C_R   0.615120 0.664801 0.851165 -0.078418
C18   C     C_R   0.556003 0.581471 0.922535 0.127097
C19   C     C_R   0.555456 0.581694 0.071727 0.128421
C20   C     C_R   0.446707 0.422269 0.077267 0.007418
C21   C     C_R   0.447155 0.420669 0.929082 0.237057
C22   C     C_R   0.659371 0.492839 0.500229 0.556181
C23   C     C_3   0.974443 0.599878 0.530893 -0.136975
C24   C     C_3   0.969168 0.404665 0.600593 0.015912
C25   C     C_3   0.023590 0.374679 0.475178 0.170242
C26   C     C_1   0.250202 0.496791 0.500933 -0.029297
C27   C     C_1   0.748607 0.485050 0.501097 0.015026
C28   C     C_3   0.028733 0.520757 0.628641 -0.139512
C29   C     C_3   0.990442 0.155640 0.421980 -0.301683
C30   C     C_1   0.695713 0.809807 0.487440 0.146558
C31   C     C_3   0.380713 0.857076 0.219885 -0.276919
C32   C     C_3   0.408646 0.206790 0.879787 -0.292833
C33   C     C_1   0.936718 0.317202 0.710647 0.180556
C34   C     C_3   0.915689 0.483014 0.503787 0.020118
C35   C     C_3   0.997247 0.409938 0.135152 -0.298096
C36   C     C_3   0.030061 0.570054 0.404074 -0.096898
C37   C     C_3   0.970898 0.453459 0.379244 0.173005
C38   C     C_1   0.174545 0.493949 0.501355 -0.056636
C39   C     C_1   0.823960 0.482158 0.502524 -0.027564
C40   C     C_R   0.634690 0.142632 0.643827 -0.117788
Cu1   Cu    Cu3+1 0.499990 0.499990 0.640660 0.956961
Cu2   Cu    Cu3+1 0.500010 0.500010 0.359340 0.937632
H1    H     H_    0.783437 0.936594 0.669945 0.115674
H2    H     H_    0.387825 0.103799 0.391409 0.111388
H3    H     H_    0.630306 0.238903 0.666759 0.151284
H4    H     H_    0.754181 0.143078 0.746569 0.153563
H5    H     H_    0.103161 0.259104 0.375708 0.243861
H6    H     H_    0.020233 0.065798 0.424649 0.143988
H7    H     H_    0.961743 0.168474 0.318199 0.138834
H8    H     H_    0.940319 0.151348 0.503067 0.168069
H9    H     H_    0.316196 0.885265 0.401837 0.240582
H10   H     H_    0.329686 0.791930 0.180516 0.142620
H11   H     H_    0.442458 0.824395 0.187431 0.180118
H12   H     H_    0.403028 0.359109 0.135671 0.114670
H13   H     H_    0.373612 0.950707 0.172648 0.116897
H14   H     H_    0.328299 0.349109 0.880692 0.226585
H15   H     H_    0.476069 0.194084 0.856101 0.175045
H16   H     H_    0.368838 0.149043 0.808440 0.145688
H17   H     H_    0.394235 0.174379 0.988481 0.100727
H18   H     H_    0.890612 0.346633 0.251490 0.252656
H19   H     H_    0.963589 0.392737 0.035972 0.173555
H20   H     H_    0.037588 0.332131 0.157449 0.138643
H21   H     H_    0.037514 0.497744 0.122224 0.144772
H22   H     H_    0.614796 0.673898 0.247302 0.208045
H23   H     H_    0.713292 0.808783 0.119077 0.148293
H24   H     H_    0.717481 0.804793 0.864882 0.127338
H25   H     H_    0.620734 0.672450 0.741258 0.184965
H26   H     H_    0.056069 0.638139 0.323765 0.108323
H27   H     H_    0.952907 0.692525 0.554414 0.125615
H28   H     H_    0.053733 0.548742 0.731543 0.113671
N1    N     N_R   0.500800 0.501210 0.147910 -0.265570
N2    N     N_R   0.500830 0.501290 0.852040 -0.223864
N3    N     N_2   0.054170 0.254721 0.446799 -0.515145
N4    N     N_1   0.727042 0.741981 0.416186 -0.348032
N5    N     N_2   0.374735 0.860747 0.369825 -0.498018
N6    N     N_2   0.390771 0.335523 0.860124 -0.460653
N7    N     N_1   0.911493 0.248225 0.797693 -0.351136
N8    N     N_2   0.936222 0.419322 0.245673 -0.505866
O1    O     O_R   0.499990 0.319640 0.618810 -0.490385
O2    O     O_R   0.500000 0.319660 0.381240 -0.502021
O3    O     O_R   0.379070 0.499980 0.618770 -0.465217
O4    O     O_R   0.379080 0.500000 0.381190 -0.498206
O5    O     O_R   0.500000 0.680340 0.618760 -0.519102
O6    O     O_R   0.500010 0.680360 0.381190 -0.506058
O7    O     O_R   0.620920 0.500000 0.618810 -0.535210
O8    O     O_R   0.620930 0.500020 0.381230 -0.499390

loop_
_geom_bond_atom_site_label_1
_geom_bond_atom_site_label_2
_ccdc_geom_bond_type
Cu2   O2    S    
H14   N6    S    
C34   C37   S    
Cu1   Cu2   S    
C23   H27   S    
C19   N1    A    
Cu2   O4    S    
C32   H16   S    
C31   H10   S    
C7    C8    A    
C29   H7    S    
C2    H4    S    
C21   N6    S    
C3    H1    S    
C12   C28   S    
C36   C37   S    
H9    N5    S    
C5    C6    A    
C30   N4    T    
C29   N3    S    
C1    C8    S    
C16   O6    A    
C18   C19   A    
C10   N5    S    
C22   O7    A    
C25   C37   S    
C4    O3    A    
C27   C39   T    
C8    C9    A    
C7    C40   A    
C20   N1    A    
Cu2   O8    S    
C12   C36   S    
C9    C10   A    
C13   C14   A    
C32   H15   S    
C29   H8    S    
C18   N2    A    
C40   H3    S    
C17   H25   S    
C13   C19   A    
C29   H6    S    
C34   C39   S    
Cu2   O6    S    
C24   C25   S    
H5    N3    S    
C20   H12   S    
C6    C11   A    
C26   C38   T    
C21   N2    A    
C15   H24   S    
C16   O5    A    
C24   C34   S    
C32   N6    S    
C11   C16   S    
C31   N5    S    
C23   C34   S    
Cu1   O3    S    
C17   C18   A    
C35   H19   S    
C23   C28   S    
C31   H11   S    
Cu1   N2    S    
C22   C27   S    
C1    O1    A    
C5    C30   S    
C15   C17   A    
C9    H2    S    
C28   H28   S    
C24   C28   S    
C3    C5    A    
Cu1   O1    S    
C4    C26   S    
C36   H26   S    
C6    C7    A    
Cu1   O7    S    
C37   N8    S    
C35   N8    S    
C24   C33   S    
C12   C25   S    
C2    C3    A    
C33   N7    T    
C13   H22   S    
Cu2   N1    S    
C14   H23   S    
C35   H20   S    
C25   N3    S    
C22   O8    A    
C12   C38   S    
H18   N8    S    
C10   C11   A    
C2    C40   A    
C4    O4    A    
C20   C21   A    
C23   C36   S    
C1    O2    A    
C14   C15   A    
C35   H21   S    
C32   H17   S    
C31   H13   S    
Cu1   O5    S    
