data_mof_unit_9804.cif
_audit_creation_date              2012-12-10T18:09:48-0500
_audit_creation_method            fapswitch 2.2
_symmetry_space_group_name_H-M    P1
_symmetry_Int_Tables_number       1
_space_group_crystal_system       triclinic
_cell_length_a                    10.705537
_cell_length_b                    12.691024
_cell_length_c                    13.135274
_cell_angle_alpha                 81.427016
_cell_angle_beta                  93.66613
_cell_angle_gamma                 101.178184
_cell_volume                      1730.06641797

loop_
_atom_site_label
_atom_site_type_symbol
_atom_type_description
_atom_site_fract_x
_atom_site_fract_y
_atom_site_fract_z
_atom_type_partial_charge
C1    C     C_R   0.482068 0.439099 0.691807 0.844383
C2    C     C_R   0.569907 0.465504 0.967075 0.086368
C3    C     C_R   0.501553 0.481645 0.871960 0.087803
C4    C     C_R   0.741091 0.499883 0.500916 0.838675
C5    C     C_R   0.581233 0.545515 0.034771 0.023894
C6    C     C_R   0.555103 0.650036 0.993883 0.092924
C7    C     C_R   0.492158 0.664902 0.898235 -0.238887
C8    C     C_R   0.453402 0.578189 0.844755 -0.154839
C9    C     C_R   0.596745 0.522429 0.143423 -0.059745
C10   C     C_R   0.574960 0.705489 0.161834 -0.234431
C11   C     C_R   0.485963 0.402498 0.804184 -0.172433
C12   C     C_3   0.120667 0.500636 0.502743 0.021262
C13   C     C_R   0.411724 0.132418 0.298667 -0.080367
C14   C     C_R   0.633111 0.787933 0.644702 -0.005444
C15   C     C_R   0.670035 0.888592 0.676440 -0.278577
C16   C     C_R   0.527580 0.560207 0.310554 0.900128
C17   C     C_R   0.636924 0.980055 0.616645 0.042044
C18   C     C_R   0.561001 0.969600 0.523573 -0.038127
C19   C     C_R   0.530610 0.864837 0.491773 0.156494
C20   C     C_R   0.508991 0.055617 0.462288 -0.036176
C21   C     C_R   0.465162 0.046861 0.357823 0.064644
C22   C     C_R   0.463522 0.948737 0.321022 -0.112686
C23   C     C_3   0.094219 0.618232 0.508475 -0.146920
C24   C     C_R   0.468608 0.856668 0.393198 -0.104010
C25   C     C_R   0.490631 0.147383 0.502624 -0.020982
C26   C     C_R   0.391985 0.216296 0.346768 -0.005568
C27   C     C_R   0.258299 0.499707 0.501307 0.843138
C28   C     C_3   0.910854 0.468999 0.398641 -0.438026
C29   C     C_3   0.051681 0.457894 0.403035 -0.189811
C30   C     C_3   0.952169 0.614668 0.514165 -0.422350
C31   C     C_3   0.914075 0.418163 0.592806 -0.414092
C32   C     C_3   0.877256 0.500154 0.501588 0.103229
C33   C     C_1   0.117358 0.440147 0.697245 0.174662
C34   C     C_3   0.059045 0.419023 0.595649 -0.180946
C35   C     C_1   0.161315 0.672597 0.594385 0.220655
C36   C     C_1   0.587631 0.846219 0.011156 0.168571
C37   C     C_1   0.631141 0.422242 0.195192 0.166203
C38   C     C_1   0.460874 0.204028 0.793125 0.232478
C39   C     C_1   0.428165 0.934156 0.214243 0.172034
C40   C     C_1   0.375908 0.141273 0.190003 0.171725
C41   C     C_1   0.695362 0.081793 0.650488 0.144975
C42   C     C_1   0.379806 0.764739 0.366671 0.287986
C43   C     C_1   0.110339 0.506837 0.304263 0.183927
C44   C     C_R   0.575464 0.733536 0.055579 0.011523
C45   C     C_R   0.568182 0.596854 0.204428 -0.130577
C46   C     C_R   0.510419 0.298256 0.842809 0.001030
C47   C     C_R   0.584514 0.284794 0.932876 -0.157450
C48   C     C_R   0.622994 0.370588 0.989119 -0.202661
H1    H     H_    0.889385 0.531539 0.334253 0.171969
H2    H     H_    0.072767 0.335988 0.587355 0.146853
H3    H     H_    0.460246 0.740206 0.869600 0.174788
H4    H     H_    0.696709 0.361209 0.047288 0.163315
H5    H     H_    0.387837 0.589211 0.779731 0.196293
H6    H     H_    0.518474 0.161939 0.579519 0.154978
H7    H     H_    0.054319 0.369889 0.408645 0.153493
H8    H     H_    0.922658 0.676038 0.452105 0.175464
H9    H     H_    0.124281 0.671593 0.436611 0.155369
H10   H     H_    0.882876 0.436985 0.666352 0.173047
H11   H     H_    0.928294 0.636544 0.588915 0.190462
H12   H     H_    0.572609 0.766846 0.210402 0.171296
H13   H     H_    0.616180 0.208654 0.958094 0.168448
H14   H     H_    0.851160 0.390264 0.384001 0.199682
H15   H     H_    0.352414 0.282689 0.303936 0.151202
H16   H     H_    0.661511 0.718035 0.690880 0.157563
H17   H     H_    0.727438 0.895302 0.747104 0.164682
H18   H     H_    0.862512 0.335641 0.582330 0.198370
N1    N     N_R   0.433240 0.222190 0.444680 -0.126018
N2    N     N_1   0.742526 0.162329 0.679619 -0.230670
N3    N     N_1   0.307433 0.696706 0.334758 -0.219505
N4    N     N_1   0.154240 0.542842 0.225429 -0.177660
N5    N     N_R   0.566070 0.776970 0.554790 -0.126304
N6    N     N_1   0.161938 0.455653 0.777476 -0.206306
N7    N     N_1   0.213687 0.715527 0.661087 -0.202506
N8    N     N_1   0.598250 0.936278 0.974925 -0.192577
N9    N     N_1   0.658624 0.342816 0.237804 -0.211118
N10   N     N_1   0.419664 0.127403 0.755207 -0.206381
N11   N     N_1   0.397712 0.920978 0.130282 -0.171358
N12   N     N_1   0.347034 0.150156 0.103108 -0.171140
O1    O     O_R   0.468120 0.366740 0.627160 -0.603807
O2    O     O_R   0.510770 0.544830 0.662520 -0.628759
O3    O     O_R   0.663880 0.410950 0.482330 -0.612085
O4    O     O_R   0.706530 0.589040 0.517700 -0.632136
O5    O     O_R   0.489230 0.455170 0.337480 -0.611603
O6    O     O_R   0.531880 0.633260 0.372840 -0.621584
O7    O     O_R   0.293470 0.410960 0.482300 -0.624379
O8    O     O_R   0.336120 0.589050 0.517670 -0.613768
Zn1   Zn    Zn3+2 0.471520 0.381090 0.476390 0.961690
Zn2   Zn    Zn3+2 0.528480 0.618910 0.523610 0.945050

loop_
_geom_bond_atom_site_label_1
_geom_bond_atom_site_label_2
_ccdc_geom_bond_type
C31   H18   S    
O5    Zn1   S    
C9    C45   A    
C12   C29   S    
C24   C42   S    
C14   N5    A    
C19   N5    A    
C25   N1    A    
O1    Zn1   S    
C7    C8    A    
C38   N10   T    
C12   C23   S    
C26   N1    A    
C39   N11   T    
C31   H10   S    
C28   C29   S    
C5    C6    A    
O8    Zn2   S    
C20   C25   A    
C15   H17   S    
C16   O6    A    
C15   C17   A    
C18   C19   A    
C27   O7    A    
C13   C40   S    
C33   N6    T    
C4    O3    A    
C47   C48   A    
C1    C11   S    
C18   C20   A    
C37   N9    T    
C6    C44   A    
C21   C22   A    
C29   C43   S    
C33   C34   S    
C41   N2    T    
O7    Zn1   S    
C34   H2    S    
C12   C27   S    
C10   C44   A    
C23   C30   S    
C28   C32   S    
C25   H6    S    
C3    C8    A    
C29   H7    S    
C2    C48   A    
C30   H8    S    
C16   O5    A    
C8    H5    S    
C27   O8    A    
C10   H12   S    
C26   H15   S    
C5    C9    A    
C28   H1    S    
C31   C32   S    
C14   H16   S    
C30   H11   S    
C10   C45   A    
C9    C37   S    
C17   C18   A    
C31   C34   S    
C13   C21   A    
C4    C32   S    
O3    Zn1   S    
C36   N8    T    
C43   N4    T    
C23   C35   S    
C1    O1    A    
C40   N12   T    
C13   C26   A    
C36   C44   S    
C2    C5    A    
C12   C34   S    
C23   H9    S    
C46   C47   A    
C35   N7    T    
O6    Zn2   S    
C16   C45   S    
C47   H13   S    
C6    C7    A    
N1    Zn1   S    
C19   C24   A    
C7    H3    S    
O2    Zn2   S    
C30   C32   S    
O4    Zn2   S    
C22   C39   S    
C2    C3    A    
C22   C24   A    
C42   N3    T    
C17   C41   S    
C38   C46   S    
C3    C11   A    
N5    Zn2   S    
C48   H4    S    
C4    O4    A    
C20   C21   A    
C1    O2    A    
C14   C15   A    
C11   C46   A    
C28   H14   S    
