data_mof_unit_58256.cif
_audit_creation_date              2012-12-10T17:24:13-0500
_audit_creation_method            fapswitch 2.2
_symmetry_space_group_name_H-M    P1
_symmetry_Int_Tables_number       1
_space_group_crystal_system       triclinic
_cell_length_a                    19.378953
_cell_length_b                    10.768385
_cell_length_c                    9.713688
_cell_angle_alpha                 90.309758
_cell_angle_beta                  89.403721
_cell_angle_gamma                 96.978589
_cell_volume                      2011.90902889

loop_
_atom_site_label
_atom_site_type_symbol
_atom_type_description
_atom_site_fract_x
_atom_site_fract_y
_atom_site_fract_z
_atom_type_partial_charge
C1    C     C_R   0.498470 0.262772 0.499474 0.756586
C2    C     C_R   0.291910 0.500773 0.504923 -0.064683
C3    C     C_R   0.930352 0.498189 0.512921 0.458124
C4    C     C_R   0.070583 0.501583 0.515563 0.393493
C5    C     C_R   0.813232 0.479644 0.632293 0.515647
C6    C     C_R   0.740954 0.476283 0.624511 -0.353800
C7    C     C_R   0.708337 0.495527 0.499333 -0.211257
C8    C     C_R   0.749058 0.512034 0.377948 0.484802
C9    C     C_R   0.821327 0.514712 0.385507 -0.322024
C10   C     C_R   0.853975 0.496739 0.510978 -0.108894
C11   C     C_R   0.372631 0.101598 0.578003 -0.191694
C12   C     C_R   0.367733 0.499024 0.500916 0.741053
C13   C     C_R   0.314244 0.024189 0.624673 -0.126283
C14   C     C_R   0.316087 0.895734 0.634751 -0.128013
C15   C     C_R   0.375944 0.843880 0.596024 -0.172729
C16   C     C_R   0.435600 0.920528 0.548044 0.088965
C17   C     C_R   0.434487 0.051423 0.542554 0.096032
C18   C     C_R   0.494759 0.128028 0.497620 -0.077884
C19   C     C_R   0.552973 0.075827 0.449647 -0.191051
C20   C     C_R   0.553166 0.947472 0.450215 -0.199772
C21   C     C_R   0.495730 0.870087 0.501262 -0.078475
C22   C     C_R   0.595264 0.664640 0.151606 -0.049017
C23   C     C_R   0.499290 0.736853 0.500328 0.807753
C24   C     C_R   0.646827 0.745510 0.091499 0.132409
C25   C     C_R   0.650611 0.751330 0.951291 -0.320700
C26   C     C_R   0.603665 0.675581 0.865764 0.505560
C27   C     C_R   0.549521 0.584478 0.927043 0.040445
C28   C     C_R   0.547724 0.582323 0.076341 0.029680
C29   C     C_R   0.454445 0.419299 0.074304 0.271233
C30   C     C_R   0.454188 0.419854 0.926651 0.248819
C31   C     C_R   0.632230 0.498287 0.499202 0.850511
C32   C     C_R   0.258139 0.516689 0.631215 -0.200617
C33   C     C_R   0.186082 0.518605 0.638442 0.180806
C34   C     C_R   0.146780 0.502765 0.515922 0.059470
C35   C     C_R   0.181155 0.488875 0.389652 -0.200537
C36   C     C_R   0.252916 0.487793 0.384106 -0.186332
Cu1   Cu    Cu3+1 0.500000 0.499990 0.640660 0.966985
Cu2   Cu    Cu3+1 0.500000 0.500010 0.359340 0.936861
H1    H     H_    0.288092 0.528733 0.724948 0.159520
H2    H     H_    0.368375 0.200141 0.566659 0.111392
H3    H     H_    0.267249 0.063922 0.652079 0.140956
H4    H     H_    0.270649 0.835761 0.670737 0.145643
H5    H     H_    0.374756 0.743729 0.602995 0.139387
H6    H     H_    0.598788 0.908311 0.412993 0.129681
H7    H     H_    0.594937 0.669405 0.259753 0.214000
H8    H     H_    0.690671 0.820327 0.910834 0.162719
H9    H     H_    0.152208 0.477089 0.294698 0.159221
H10   H     H_    0.277703 0.475925 0.285283 0.159233
H11   H     H_    0.710397 0.459359 0.718012 0.189648
H12   H     H_    0.851880 0.530833 0.291891 0.184381
H13   H     H_    0.598669 0.134955 0.412940 0.137083
N1    N     N_R   0.038964 0.550016 0.407772 -0.241848
N2    N     N_R   0.970224 0.548469 0.406593 -0.251190
N3    N     N_R   0.962017 0.448084 0.619517 -0.161450
N4    N     N_R   0.030701 0.449547 0.620661 -0.235519
N5    N     N_R   0.500660 0.501210 0.147910 -0.199551
N6    N     N_R   0.500680 0.501290 0.852040 -0.191908
O1    O     O_R   0.499990 0.319640 0.618810 -0.583959
O2    O     O_R   0.500000 0.319660 0.381240 -0.585493
O3    O     O_R   0.400140 0.499970 0.618820 -0.604278
O4    O     O_R   0.400150 0.500000 0.381250 -0.581768
O5    O     O_R   0.500000 0.680340 0.618760 -0.505904
O6    O     O_R   0.500010 0.680360 0.381190 -0.606309
O7    O     O_R   0.599850 0.500000 0.618750 -0.526111
O8    O     O_R   0.599860 0.500030 0.381180 -0.565847
C37   C     C_3   0.402179 0.324137 0.146510 -0.777526
H14   H     H_    0.411266 0.227990 0.116015 0.206125
H15   H     H_    0.403181 0.324385 0.258015 0.272896
H16   H     H_    0.348488 0.339994 0.119384 0.191811
C38   C     C_3   0.698282 0.828298 0.176894 -0.806552
H17   H     H_    0.690775 0.810352 0.288840 0.211267
H18   H     H_    0.751957 0.810733 0.148787 0.248400
H19   H     H_    0.692616 0.928011 0.157142 0.219259
O9    O     O_3   0.606533 0.697278 0.725487 -0.520762
C39   C     C_3   0.667497 0.766257 0.670962 -0.346269
H20   H     H_    0.715287 0.728372 0.705600 0.155483
H21   H     H_    0.668473 0.867488 0.694813 0.167643
H22   H     H_    0.666309 0.757873 0.557182 0.159258
C40   C     C_3   0.153486 0.542029 0.776414 -0.854154
H23   H     H_    0.121437 0.620417 0.768585 0.240767
H24   H     H_    0.120824 0.456210 0.811968 0.256524
H25   H     H_    0.193341 0.567875 0.856320 0.218386
C41   C     C_3   0.400935 0.327044 0.855789 -0.788055
H26   H     H_    0.402776 0.328998 0.744923 0.274627
H27   H     H_    0.408667 0.229954 0.883611 0.212185
H28   H     H_    0.347573 0.345333 0.884945 0.196157
O10   O     O_3   0.843587 0.460448 0.757572 -0.559972
C42   C     C_3   0.840110 0.566423 0.842356 -0.307636
H29   H     H_    0.785827 0.574116 0.876422 0.155579
H30   H     H_    0.862864 0.654043 0.790142 0.155061
H31   H     H_    0.871020 0.555953 0.936157 0.201010
O11   O     O_3   0.719334 0.536233 0.253709 -0.574582
C43   C     C_3   0.717536 0.429306 0.168739 -0.279088
H32   H     H_    0.689232 0.345382 0.219672 0.158256
H33   H     H_    0.770773 0.411201 0.137432 0.158744
H34   H     H_    0.689036 0.446320 0.073510 0.181958

loop_
_geom_bond_atom_site_label_1
_geom_bond_atom_site_label_2
_ccdc_geom_bond_type
C8    C9    A    
C37   H15   S    
O10   C42   S    
C16   C21   A    
C11   C13   A    
C19   C20   A    
C2    C12   S    
C13   H3    S    
Cu1   O5    S    
C28   N5    A    
C24   C38   S    
C7    C8    A    
C1    C18   S    
C43   H32   S    
C4    N1    A    
Cu1   Cu2   S    
C18   C19   A    
C1    O2    A    
C5    C6    A    
C3    N3    A    
C37   H16   S    
C15   C16   A    
C30   N6    A    
C2    C32   A    
C34   C35   A    
C32   H1    S    
C30   C41   S    
C23   O5    A    
C35   C36   A    
C16   C17   A    
Cu2   O8    S    
C38   H17   S    
C8    O11   S    
C9    C10   A    
Cu1   O1    S    
C14   H4    S    
Cu2   O4    S    
Cu2   O2    S    
C23   O6    A    
C37   H14   S    
C35   H9    S    
C43   H33   S    
C22   C28   A    
C13   C14   A    
C20   H6    S    
C33   C34   A    
C4    C34   S    
C7    C31   S    
O9    C39   S    
C24   C25   A    
C27   N6    A    
C40   H24   S    
C33   C40   S    
C25   C26   A    
C40   H23   S    
C12   O3    A    
C39   H20   S    
C29   C30   A    
C41   H26   S    
C42   H31   S    
C41   H28   S    
C38   H19   S    
C17   C18   A    
C26   C27   A    
C20   C21   A    
C39   H21   S    
C41   H27   S    
C42   H30   S    
C43   H34   S    
C21   C23   S    
C4    N4    A    
C22   C24   A    
Cu1   O7    S    
N1    N2    A    
Cu2   O6    S    
C2    C36   A    
C31   O8    A    
N3    N4    A    
C11   C17   A    
C31   O7    A    
C9    H12   S    
C40   H25   S    
C6    C7    A    
C29   N5    A    
C32   C33   A    
C15   H5    S    
C5    C10   A    
C3    C10   S    
C1    O1    A    
C12   O4    A    
C3    N2    A    
O11   C43   S    
C26   O9    S    
C36   H10   S    
C6    H11   S    
C11   H2    S    
C39   H22   S    
Cu1   O3    S    
C29   C37   S    
C5    O10   S    
C19   H13   S    
C22   H7    S    
Cu2   N5    S    
C42   H29   S    
C27   C28   A    
C14   C15   A    
C38   H18   S    
C25   H8    S    
Cu1   N6    S    
