data_mof_unit_34956.cif
_audit_creation_date              2012-12-11T14:38:19-0500
_audit_creation_method            fapswitch 2.2
_symmetry_space_group_name_H-M    P1
_symmetry_Int_Tables_number       1
_space_group_crystal_system       triclinic
_cell_length_a                    19.60783
_cell_length_b                    11.088806
_cell_length_c                    19.610963
_cell_angle_alpha                 89.687239
_cell_angle_beta                  97.031117
_cell_angle_gamma                 89.529423
_cell_volume                      4231.66289406

loop_
_atom_site_label
_atom_site_type_symbol
_atom_type_description
_atom_site_fract_x
_atom_site_fract_y
_atom_site_fract_z
_atom_type_partial_charge
C1    C     C_R   0.725603 0.951006 0.359428 0.537961
C2    C     C_3   0.177033 0.487571 0.468806 -0.228215
C3    C     C_3   0.322810 0.986394 0.530091 -0.229605
C4    C     C_3   0.677607 0.977738 0.466815 -0.221634
C5    C     C_3   0.765800 0.285294 0.561798 -0.246268
C6    C     C_3   0.235584 0.293726 0.446325 -0.267531
C7    C     C_3   0.265291 0.794264 0.554790 -0.263349
C8    C     C_3   0.736763 0.784291 0.445692 -0.276780
C9    C     C_3   0.760722 0.421664 0.567755 -0.002795
C10   C     C_3   0.237204 0.428769 0.433447 0.004684
C11   C     C_3   0.262982 0.929454 0.566342 0.001876
C12   C     C_R   0.275860 0.955797 0.639016 0.556765
C13   C     C_3   0.738582 0.920160 0.431947 0.015239
C14   C     C_3   0.738311 0.364134 0.439137 0.050665
C15   C     C_3   0.253120 0.392161 0.564832 0.059997
C16   C     C_3   0.246684 0.891652 0.435188 0.059393
C17   C     C_3   0.753502 0.887003 0.563802 0.063751
C18   C     C_3   0.792939 0.464523 0.448419 -0.225277
C19   C     C_3   0.194239 0.483200 0.547236 -0.253414
C20   C     C_3   0.305397 0.981289 0.451723 -0.251374
C21   C     C_3   0.693981 0.975904 0.545116 -0.251015
C22   C     C_3   0.766755 0.257114 0.485689 -0.285350
C23   C     C_R   0.224361 0.455135 0.360713 0.547925
C24   C     C_3   0.232536 0.275990 0.523161 -0.271453
C25   C     C_3   0.267526 0.775353 0.477937 -0.271180
C26   C     C_3   0.733425 0.768962 0.523215 -0.275681
C27   C     C_3   0.553103 0.273740 0.948205 -0.232074
C28   C     C_3   0.576385 0.275875 0.025787 -0.241383
C29   C     C_3   0.053101 0.773736 0.948207 -0.232055
C30   C     C_3   0.076381 0.775871 0.025790 -0.241055
C31   C     C_3   0.437462 0.193808 0.972106 -0.228674
C32   C     C_3   0.558575 0.052094 0.031239 -0.231292
C33   C     C_3   0.937456 0.693816 0.972107 -0.229605
C34   C     C_R   0.776152 0.456270 0.638939 0.549832
C35   C     C_3   0.058565 0.552091 0.031242 -0.231028
C36   C     C_3   0.533578 0.050018 0.953230 -0.239335
C37   C     C_3   0.461095 0.193933 0.049249 -0.221194
C38   C     C_3   0.033569 0.550015 0.953234 -0.239513
C39   C     C_3   0.961088 0.693937 0.049251 -0.221517
C40   C     C_R   0.559180 0.182631 0.347678 0.526522
C41   C     C_R   0.464852 0.180162 0.662234 0.529719
C42   C     C_R   0.034949 0.680276 0.337733 0.536971
C43   C     C_R   0.938365 0.683763 0.652084 0.533382
C44   C     C_3   0.499269 0.172731 0.930902 0.054992
C45   C     C_3   0.670659 0.411958 0.463881 0.242491
C46   C     C_3   0.539942 0.175312 0.062552 0.043131
C47   C     C_3   0.999264 0.672731 0.930903 0.052661
C48   C     C_3   0.039935 0.675311 0.062554 0.045034
C49   C     C_1   0.781083 0.474213 0.914622 -0.018569
C50   C     C_1   0.238358 0.425414 0.096159 -0.013072
C51   C     C_1   0.281085 0.974219 0.914623 -0.017855
C52   C     C_1   0.738358 0.925415 0.096158 -0.014118
C53   C     C_1   0.758130 0.436724 0.041665 -0.047501
C54   C     C_1   0.252958 0.404204 0.966064 -0.052051
C55   C     C_1   0.258132 0.936729 0.041665 -0.046889
C56   C     C_3   0.321016 0.440735 0.541922 0.247142
C57   C     C_1   0.752958 0.904207 0.966063 -0.052230
C58   C     C_1   0.770241 0.458280 0.973183 -0.049786
C59   C     C_1   0.246856 0.413500 0.036760 -0.051785
C60   C     C_1   0.270243 0.958287 0.973184 -0.049679
C61   C     C_1   0.746856 0.913502 0.036759 -0.051986
C62   C     C_1   0.748126 0.409752 0.099206 -0.016133
C63   C     C_1   0.257394 0.390559 0.905870 -0.011827
C64   C     C_1   0.248126 0.909753 0.099204 -0.013785
C65   C     C_1   0.757393 0.890562 0.905868 -0.012992
C66   C     C_R   0.727418 0.320430 0.368155 0.540733
C67   C     C_3   0.178797 0.942159 0.457844 0.246845
C68   C     C_R   0.261235 0.359799 0.637827 0.564467
C69   C     C_R   0.238527 0.859309 0.362347 0.566082
C70   C     C_R   0.761531 0.858175 0.637305 0.559596
C71   C     C_R   0.722193 0.953857 0.163522 0.536753
C72   C     C_R   0.294789 0.996718 0.845491 0.553030
C73   C     C_R   0.222193 0.453856 0.163522 0.537260
C74   C     C_R   0.794788 0.496715 0.845490 0.553658
C75   C     C_R   0.562000 0.182223 0.137132 0.547004
C76   C     C_R   0.470918 0.178550 0.857804 0.526473
C77   C     C_R   0.061996 0.682223 0.137131 0.544293
C78   C     C_3   0.821253 0.935944 0.540856 0.247292
C79   C     C_R   0.970917 0.678550 0.857803 0.535929
C80   C     C_R   0.736621 0.361537 0.164777 0.544640
C81   C     C_R   0.264282 0.357541 0.836544 0.539175
C82   C     C_R   0.236619 0.861531 0.164773 0.539167
C83   C     C_R   0.764281 0.857544 0.836543 0.539561
C84   C     C_1   0.491617 0.172444 0.597795 -0.020271
C85   C     C_1   0.536842 0.174615 0.414301 -0.025806
C86   C     C_1   0.958491 0.676464 0.584351 -0.031261
C87   C     C_1   0.006584 0.672602 0.401551 -0.021177
C88   C     C_1   0.522654 0.170526 0.472226 -0.063075
C89   C     C_3   0.816676 0.476229 0.525618 -0.244546
C90   C     C_1   0.507556 0.169628 0.540532 -0.059914
C91   C     C_1   0.989036 0.670527 0.458296 -0.057643
C92   C     C_1   0.972543 0.672302 0.526290 -0.064146
C93   C     C_3   0.686064 0.457370 0.537775 -0.175228
C94   C     C_3   0.309975 0.470047 0.465081 -0.179216
C95   C     C_3   0.189950 0.971709 0.534487 -0.180013
C96   C     C_3   0.811407 0.960786 0.463594 -0.178002
Cr1   Cr    Cr6+3 0.765780 0.160710 0.267420 1.015319
Cr2   Cr    Cr6+3 0.383970 0.323720 0.751490 1.059307
Cr3   Cr    Cr6+3 0.116030 0.823720 0.248510 1.058157
Cr4   Cr    Cr6+3 0.883970 0.823720 0.751490 1.055613
Cr5   Cr    Cr6+3 0.234220 0.160710 0.732580 1.025168
Cr6   Cr    Cr6+3 0.265780 0.660710 0.267420 1.025516
Cr7   Cr    Cr6+3 0.734220 0.660710 0.732580 1.017868
Cr8   Cr    Cr6+3 0.612200 0.009560 0.248850 1.024753
Cr9   Cr    Cr6+3 0.387800 0.009560 0.751150 1.025327
Cr10  Cr    Cr6+3 0.112200 0.509560 0.248850 1.028701
Cr11  Cr    Cr6+3 0.887800 0.509560 0.751150 1.025550
Cr12  Cr    Cr6+3 0.616030 0.323720 0.248510 1.065198
F1    F     F_    0.641405 0.505334 0.422534 -0.636805
F2    F     F_    0.343401 0.541992 0.578760 -0.659838
F3    F     F_    0.156120 0.043701 0.420129 -0.660095
F4    F     F_    0.842297 0.039432 0.576126 -0.663439
H1    H     H_    0.678308 0.555181 0.539185 0.170908
H2    H     H_    0.129764 0.433174 0.455434 0.155691
H3    H     H_    0.370259 0.931034 0.543933 0.154750
H4    H     H_    0.630832 0.921919 0.453697 0.157810
H5    H     H_    0.838461 0.443990 0.421612 0.142798
H6    H     H_    0.147671 0.456791 0.570854 0.127489
H7    H     H_    0.351975 0.953193 0.428354 0.128027
H8    H     H_    0.647365 0.948594 0.568401 0.126060
H9    H     H_    0.531258 0.364008 0.932420 0.152701
H10   H     H_    0.633063 0.262434 0.035257 0.111046
H11   H     H_    0.031258 0.864006 0.932422 0.152727
H12   H     H_    0.318343 0.565426 0.455880 0.171480
H13   H     H_    0.133059 0.762428 0.035262 0.111162
H14   H     H_    0.598227 0.258233 0.919908 0.124069
H15   H     H_    0.564616 0.366226 0.046138 0.148054
H16   H     H_    0.098226 0.758224 0.919914 0.126026
H17   H     H_    0.064613 0.866224 0.046139 0.148415
H18   H     H_    0.411590 0.281561 0.957304 0.138922
H19   H     H_    0.615067 0.037695 0.039642 0.123128
H20   H     H_    0.911588 0.781572 0.957305 0.138693
H21   H     H_    0.115057 0.537687 0.039645 0.122947
H22   H     H_    0.445581 0.281121 0.070926 0.149743
H23   H     H_    0.181022 0.067233 0.542853 0.169918
H24   H     H_    0.577777 0.032320 0.923997 0.124295
H25   H     H_    0.945576 0.781126 0.070930 0.148822
H26   H     H_    0.077768 0.532309 0.924002 0.125844
H27   H     H_    0.496347 0.975352 0.942187 0.143489
H28   H     H_    0.434695 0.120797 0.074675 0.136914
H29   H     H_    0.996335 0.475352 0.942192 0.143253
H30   H     H_    0.934688 0.620803 0.074677 0.135532
H31   H     H_    0.534433 0.976354 0.056665 0.150717
H32   H     H_    0.398579 0.122000 0.960347 0.110479
H33   H     H_    0.034422 0.476354 0.056668 0.150643
H34   H     H_    0.822057 0.054939 0.452294 0.169251
H35   H     H_    0.898570 0.622012 0.960347 0.110368
H36   H     H_    0.648360 0.417857 0.569516 0.097456
H37   H     H_    0.350257 0.423015 0.439463 0.092270
H38   H     H_    0.150020 0.925401 0.560623 0.090794
H39   H     H_    0.851298 0.909848 0.439437 0.086303
H40   H     H_    0.633069 0.337640 0.462457 0.113429
H41   H     H_    0.361911 0.370179 0.551431 0.140337
H42   H     H_    0.138029 0.872614 0.449002 0.139174
H43   H     H_    0.862632 0.867035 0.552184 0.133280
H44   H     H_    0.340135 0.076235 0.548037 0.103489
H45   H     H_    0.821023 0.240043 0.477180 0.173376
H46   H     H_    0.659556 0.066520 0.446280 0.085261
H47   H     H_    0.834841 0.566816 0.539483 0.091435
H48   H     H_    0.159736 0.577658 0.449611 0.103324
H49   H     H_    0.289335 0.069027 0.429610 0.159344
H50   H     H_    0.708235 0.064556 0.565404 0.155703
H51   H     H_    0.770118 0.549329 0.426519 0.171599
H52   H     H_    0.210065 0.570952 0.568125 0.159355
H53   H     H_    0.813131 0.248108 0.591740 0.235057
H54   H     H_    0.190494 0.251050 0.416448 0.232856
H55   H     H_    0.310999 0.751391 0.584605 0.232547
H56   H     H_    0.178393 0.254806 0.529821 0.167944
H57   H     H_    0.691497 0.740991 0.416125 0.205743
H58   H     H_    0.720879 0.246159 0.582654 0.107881
H59   H     H_    0.283048 0.253839 0.430638 0.106015
H60   H     H_    0.218498 0.755227 0.571852 0.107612
H61   H     H_    0.784001 0.741113 0.430866 0.105013
H62   H     H_    0.737901 0.177291 0.472972 0.112282
H63   H     H_    0.265224 0.201436 0.542941 0.117495
H64   H     H_    0.234378 0.701859 0.459543 0.116127
H65   H     H_    0.765608 0.695655 0.545057 0.110064
H66   H     H_    0.321482 0.752036 0.470943 0.169493
H67   H     H_    0.679467 0.746622 0.530026 0.164429
H68   H     H_    0.865131 0.422771 0.537450 0.152567
O1    O     O_R   0.783100 0.287550 0.345460 -0.532403
O2    O     O_R   0.454350 0.284910 0.836260 -0.522604
O3    O     O_R   0.045650 0.784910 0.163740 -0.520453
O4    O     O_R   0.954350 0.784910 0.836260 -0.519132
O5    O     O_R   0.677950 0.374280 0.185410 -0.509243
O6    O     O_R   0.322050 0.374280 0.814590 -0.494353
O7    O     O_R   0.177950 0.874280 0.185410 -0.510848
O8    O     O_R   0.822050 0.874280 0.814590 -0.494005
O9    O     O_3   0.664670 0.164660 0.254930 -0.316288
O10   O     O_3   0.335330 0.164660 0.745070 -0.291210
O11   O     O_3   0.164670 0.664660 0.254930 -0.290244
O12   O     O_R   0.216900 0.287550 0.654540 -0.541978
O13   O     O_3   0.835330 0.664660 0.745070 -0.306526
O14   O     O_R   0.760020 0.037400 0.337700 -0.525696
O15   O     O_R   0.239980 0.037400 0.662300 -0.510017
O16   O     O_R   0.260020 0.537400 0.337700 -0.513542
O17   O     O_R   0.739980 0.537400 0.662300 -0.511623
O18   O     O_R   0.666600 0.921990 0.332020 -0.513534
O19   O     O_R   0.333400 0.921990 0.667980 -0.507046
O20   O     O_R   0.166600 0.421990 0.332020 -0.508459
O21   O     O_R   0.833400 0.421990 0.667980 -0.513661
O22   O     O_R   0.557260 0.082670 0.312540 -0.487231
O23   O     O_R   0.283100 0.787550 0.345460 -0.541048
O24   O     O_R   0.442740 0.082670 0.687460 -0.502296
O25   O     O_R   0.057260 0.582670 0.312540 -0.495139
O26   O     O_R   0.942740 0.582670 0.687460 -0.491511
O27   O     O_R   0.548410 0.285740 0.316480 -0.471061
O28   O     O_R   0.451590 0.285740 0.683520 -0.492341
O29   O     O_R   0.048410 0.785740 0.316480 -0.491422
O30   O     O_R   0.951590 0.785740 0.683520 -0.484432
O31   O     O_R   0.680500 0.375040 0.327000 -0.430191
O32   O     O_R   0.319500 0.375040 0.673000 -0.445293
O33   O     O_R   0.180500 0.875040 0.327000 -0.448198
O34   O     O_R   0.716900 0.787550 0.654540 -0.541123
O35   O     O_R   0.819500 0.875040 0.673000 -0.458278
O36   O     O_R   0.780350 0.286720 0.192720 -0.498982
O37   O     O_R   0.219650 0.286720 0.807280 -0.512803
O38   O     O_R   0.280350 0.786720 0.192720 -0.502120
O39   O     O_R   0.719650 0.786720 0.807280 -0.512281
O40   O     O_R   0.757470 0.036630 0.196110 -0.492957
O41   O     O_R   0.242530 0.036630 0.803890 -0.486830
O42   O     O_R   0.257470 0.536630 0.196110 -0.493233
O43   O     O_R   0.742530 0.536630 0.803890 -0.486475
O44   O     O_R   0.663840 0.921160 0.179280 -0.513830
O45   O     O_R   0.554710 0.081900 0.170950 -0.497796
O46   O     O_R   0.336160 0.921160 0.820720 -0.497638
O47   O     O_R   0.163840 0.421160 0.179280 -0.514127
O48   O     O_R   0.836160 0.421160 0.820720 -0.498245
O49   O     O_R   0.445290 0.081900 0.829050 -0.521783
O50   O     O_R   0.054710 0.581900 0.170950 -0.504475
O51   O     O_R   0.945290 0.581900 0.829050 -0.517470
O52   O     O_R   0.545650 0.284910 0.163740 -0.515946

loop_
_geom_bond_atom_site_label_1
_geom_bond_atom_site_label_2
_ccdc_geom_bond_type
Cr1   O14   S    
Cr7   O34   S    
C6    H54   S    
Cr4   O35   S    
C8    C13   S    
C87   C91   T    
C8    C26   S    
C14   C18   S    
C95   H38   S    
C1    O18   A    
C34   O17   A    
C47   C79   S    
Cr2   O10   S    
Cr5   O12   S    
C45   C93   S    
C35   H21   S    
Cr10  O25   S    
C39   H25   S    
C27   H9    S    
Cr8   O45   S    
C80   O36   A    
C26   H67   S    
C94   H37   S    
C15   C19   S    
C23   O20   A    
C28   C46   S    
C77   O50   A    
C33   C39   S    
C73   O42   A    
C63   C81   S    
C67   H42   S    
C17   C26   S    
C32   C36   S    
C30   C48   S    
C24   H56   S    
C19   H52   S    
Cr11  O21   S    
C21   H8    S    
Cr11  O51   S    
C52   C61   T    
C35   H33   S    
C27   H14   S    
C45   F1    S    
C78   H43   S    
C65   C83   S    
C54   C63   T    
C10   C94   S    
C34   O21   A    
Cr5   O41   S    
C4    C13   S    
C79   O4    A    
C42   O25   A    
Cr7   O17   S    
C89   H68   S    
C31   H32   S    
C44   C76   S    
C43   O30   A    
C3    H44   S    
Cr11  O26   S    
C74   O48   A    
C33   H35   S    
Cr7   O43   S    
C27   C44   S    
C4    H46   S    
C5    C22   S    
C19   H6    S    
C78   C96   S    
C32   H31   S    
C37   H28   S    
C23   O16   A    
C64   C82   S    
Cr4   O4    S    
C5    H58   S    
C71   O44   A    
C5    H53   S    
Cr3   O3    S    
C28   H15   S    
C50   C59   T    
C54   C59   S    
C27   C28   S    
Cr1   O9    S    
C30   H13   S    
C6    C24   S    
C17   C70   S    
C49   C74   S    
C72   O46   A    
C7    H60   S    
Cr11  O48   S    
C43   O26   A    
C67   C95   S    
C18   C89   S    
Cr2   O28   S    
C84   C90   T    
Cr10  O11   S    
Cr12  O27   S    
C76   O2    A    
C35   C48   S    
C36   H24   S    
C56   F2    S    
C46   C75   S    
C22   H62   S    
C89   H47   S    
C14   C45   S    
C6    H59   S    
C14   C66   S    
C94   H12   S    
C31   C44   S    
C13   C96   S    
C70   O34   A    
Cr12  O5    S    
C75   O45   A    
C35   C38   S    
C69   O33   A    
Cr5   O10   S    
C50   C73   S    
C9    C89   S    
C91   C92   S    
C73   O47   A    
Cr6   O38   S    
C8    H61   S    
Cr9   O24   S    
C93   H36   S    
Cr3   O33   S    
Cr4   O13   S    
C41   C84   S    
Cr2   O32   S    
C74   O43   A    
Cr1   O36   S    
C17   C21   S    
C49   C58   T    
C31   C37   S    
Cr6   O16   S    
Cr9   O49   S    
C40   C85   S    
Cr2   O2    S    
C56   C94   S    
Cr6   O23   S    
C5    C9    S    
C29   C30   S    
C29   C47   S    
C83   O39   A    
C18   H51   S    
C7    C11   S    
C82   O38   A    
C39   H30   S    
C16   C20   S    
C81   O37   A    
C55   C64   T    
C48   C77   S    
C95   H23   S    
Cr6   O11   S    
C38   H26   S    
Cr1   O40   S    
C3    C20   S    
C16   C67   S    
C93   H1    S    
Cr9   O46   S    
C41   O24   A    
C57   C61   S    
C18   H5    S    
C79   O51   A    
C38   C47   S    
C42   O29   A    
C33   H20   S    
C67   F3    S    
C15   C24   S    
C66   O1    A    
C88   C90   S    
C62   C80   S    
C2    H2    S    
C9    C34   S    
C33   C47   S    
C12   O15   A    
Cr12  O9    S    
C36   C44   S    
C1    C13   S    
C51   C72   S    
C70   O35   A    
C2    C10   S    
C9    C93   S    
C81   O6    A    
Cr11  O13   S    
Cr12  O31   S    
C8    H57   S    
Cr6   O42   S    
Cr10  O20   S    
Cr3   O29   S    
C26   H65   S    
C11   C95   S    
C16   C25   S    
C7    H55   S    
C25   H66   S    
C21   H50   S    
Cr4   O8    S    
C2    C19   S    
C37   H22   S    
C43   C86   S    
C32   C46   S    
Cr9   O10   S    
C4    H4    S    
C16   C69   S    
C40   O22   A    
C56   H41   S    
Cr12  O52   S    
C6    C10   S    
C78   F4    S    
C53   C58   S    
Cr10  O50   S    
Cr1   O1    S    
C51   C60   T    
C22   H45   S    
C10   C23   S    
C31   H18   S    
C30   H17   S    
C96   H34   S    
C15   C68   S    
C66   O31   A    
C7    C25   S    
C82   O7    A    
C80   O5    A    
C15   C56   S    
C45   H40   S    
C41   O28   A    
C1    O14   A    
Cr3   O7    S    
Cr5   O15   S    
Cr2   O6    S    
C52   C71   S    
C3    H3    S    
Cr3   O11   S    
C4    C21   S    
C96   H39   S    
C25   H64   S    
C14   C22   S    
C72   O41   A    
C29   H11   S    
Cr4   O30   S    
C17   C78   S    
C38   H29   S    
C12   O19   A    
Cr8   O44   S    
C28   H10   S    
C85   C88   T    
C32   H19   S    
C75   O52   A    
C83   O8    A    
C36   H27   S    
Cr8   O18   S    
C40   O27   A    
C3    C11   S    
C71   O40   A    
C20   H49   S    
Cr5   O37   S    
Cr9   O19   S    
C53   C62   T    
C2    H48   S    
C29   H16   S    
Cr7   O39   S    
C76   O49   A    
C68   O12   A    
Cr10  O47   S    
C86   C92   T    
C42   C87   S    
Cr7   O13   S    
C37   C46   S    
C55   C60   S    
C24   H63   S    
Cr8   O9    S    
C69   O23   A    
C20   H7    S    
C77   O3    A    
C11   C12   S    
Cr8   O22   S    
C39   C48   S    
C57   C65   T    
C68   O32   A    
