data_mof_unit_17576.cif
_audit_creation_date              2012-12-10T20:36:38-0500
_audit_creation_method            fapswitch 2.2
_symmetry_space_group_name_H-M    P1
_symmetry_Int_Tables_number       1
_space_group_crystal_system       triclinic
_cell_length_a                    10.502691
_cell_length_b                    10.704987
_cell_length_c                    9.886906
_cell_angle_alpha                 90.233751
_cell_angle_beta                  89.853012
_cell_angle_gamma                 90.341232
_cell_volume                      1111.56386192

loop_
_atom_site_label
_atom_site_type_symbol
_atom_type_description
_atom_site_fract_x
_atom_site_fract_y
_atom_site_fract_z
_atom_type_partial_charge
C1    C     C_R   0.497448 0.260234 0.499790 0.946770
C2    C     C_R   0.487017 0.937414 0.623108 -0.007213
C3    C     C_3   0.572616 0.931968 0.744371 0.613621
C4    C     C_R   0.257532 0.502642 0.500276 0.960139
C5    C     C_3   0.574965 0.075074 0.741827 0.160411
C6    C     C_R   0.426487 0.416273 0.070858 0.097819
C7    C     C_R   0.582567 0.573254 0.071090 0.428678
C8    C     C_R   0.583173 0.571904 0.927524 -0.070767
C9    C     C_R   0.425990 0.417032 0.928504 0.129739
C10   C     C_3   0.284825 0.405723 0.922159 -0.483530
C11   C     C_3   0.284951 0.404102 0.075882 0.212360
C12   C     C_3   0.959112 0.457549 0.379020 -0.200853
C13   C     C_R   0.497606 0.739871 0.500295 0.935824
C14   C     C_R   0.742471 0.498576 0.499839 0.976889
C15   C     C_3   0.039928 0.544679 0.621151 -0.241568
C16   C     C_3   0.957957 0.425720 0.600211 -0.157021
C17   C     C_3   0.877200 0.498883 0.499475 -0.148879
C18   C     C_3   0.955907 0.617945 0.520964 -0.123546
C19   C     C_3   0.040323 0.575898 0.402102 0.389562
C20   C     C_3   0.042311 0.386135 0.480399 0.397508
C21   C     C_3   0.122633 0.503560 0.501161 -0.192792
C22   C     C_R   0.488505 0.064474 0.621954 -0.061193
C23   C     C_R   0.482822 0.128678 0.500174 -0.035439
C24   C     C_R   0.456761 0.063806 0.379836 -0.091019
C25   C     C_R   0.456631 0.934601 0.380382 -0.096111
C26   C     C_R   0.482531 0.871425 0.501333 -0.088303
Cl1   Cl    Cl    0.721544 0.855340 0.713827 -0.506715
Cl2   Cl    Cl    0.726066 0.145435 0.702203 -0.505631
Cl3   Cl    Cl    0.687848 0.675440 0.154074 -0.475140
Cl4   Cl    Cl    0.237016 0.256828 0.142893 -0.492843
Cl5   Cl    Cl    0.096118 0.678300 0.272995 -0.515709
Cl6   Cl    Cl    0.102765 0.232178 0.459350 -0.471665
Cl7   Cl    Cl    0.490979 0.871757 0.888848 -0.557465
H1    H     H_    0.920228 0.363751 0.680826 0.227847
H2    H     H_    0.923121 0.421872 0.280588 0.213423
H3    H     H_    0.443483 0.885214 0.285514 0.219082
H4    H     H_    0.648550 0.631533 0.872729 0.225386
H5    H     H_    0.239493 0.490596 0.880017 0.199887
H6    H     H_    0.254105 0.316472 0.874100 0.250404
H7    H     H_    0.237251 0.485834 0.122794 0.180790
H8    H     H_    0.443957 0.111872 0.284733 0.215074
H9    H     H_    0.526632 0.119831 0.829538 0.151924
H10   H     H_    0.076167 0.580692 0.719278 0.207036
H11   H     H_    0.916128 0.712793 0.536293 0.228662
N1    N     N_R   0.499140 0.499140 0.142800 -0.171816
N2    N     N_R   0.499140 0.499180 0.857150 -0.130682
O1    O     O_R   0.500020 0.316790 0.614690 -0.604404
O2    O     O_R   0.500000 0.316760 0.385350 -0.617680
O3    O     O_R   0.313960 0.499990 0.614650 -0.631791
O4    O     O_R   0.313940 0.499950 0.385310 -0.595160
O5    O     O_R   0.500000 0.683240 0.614650 -0.591543
O6    O     O_R   0.499980 0.683210 0.385310 -0.587781
O7    O     O_R   0.686060 0.500050 0.614690 -0.606342
O8    O     O_R   0.686040 0.500010 0.385350 -0.586732
Zn1   Zn    Zn3+2 0.500010 0.500020 0.653130 1.022358
Zn2   Zn    Zn3+2 0.499990 0.499980 0.346870 1.056138

loop_
_geom_bond_atom_site_label_1
_geom_bond_atom_site_label_2
_ccdc_geom_bond_type
N2    Zn1   S    
C12   C17   S    
C15   C18   S    
C5    H9    S    
C1    O2    A    
C2    C22   A    
C7    Cl3   S    
C6    N1    A    
C18   H11   S    
C8    H4    S    
C5    Cl2   S    
C9    C10   S    
C10   H5    S    
C4    O3    A    
C23   C24   A    
C19   Cl5   S    
C12   C20   S    
C6    C9    A    
C3    Cl1   S    
C2    C3    S    
C15   H10   S    
C7    C8    A    
C2    C26   A    
O3    Zn1   S    
C24   C25   A    
C12   H2    S    
C4    C21   S    
C14   C17   S    
C15   C21   S    
C24   H8    S    
C7    N1    A    
C12   C19   S    
C16   C20   S    
C14   O8    A    
C17   C18   S    
C1    C23   S    
O5    Zn1   S    
O7    Zn1   S    
C11   H7    S    
O8    Zn2   S    
C13   C26   S    
C10   C11   S    
C3    Cl7   S    
C25   H3    S    
C15   C16   S    
C13   O6    A    
C3    C5    S    
C9    N2    A    
C14   O7    A    
C20   C21   S    
N1    Zn2   S    
O1    Zn1   S    
C18   C19   S    
C20   Cl6   S    
C6    C11   S    
O2    Zn2   S    
C22   C23   A    
C1    O1    A    
C8    N2    A    
C16   H1    S    
C25   C26   A    
C13   O5    A    
C10   H6    S    
O4    Zn2   S    
C5    C22   S    
O6    Zn2   S    
C11   Cl4   S    
C4    O4    A    
C16   C17   S    
C19   C21   S    
