data_mof_unit_65133.cif
_audit_creation_date              2012-12-10T20:47:23-0500
_audit_creation_method            fapswitch 2.2
_symmetry_space_group_name_H-M    P1
_symmetry_Int_Tables_number       1
_space_group_crystal_system       triclinic
_cell_length_a                    17.917282
_cell_length_b                    19.233591
_cell_length_c                    19.214016
_cell_angle_alpha                 94.618068
_cell_angle_beta                  99.245052
_cell_angle_gamma                 103.604164
_cell_volume                      6303.55988975

loop_
_atom_site_label
_atom_site_type_symbol
_atom_type_description
_atom_site_fract_x
_atom_site_fract_y
_atom_site_fract_z
_atom_type_partial_charge
C1    C     C_R   0.493108 0.505618 0.688320 0.491886
C2    C     C_R   0.921082 0.442490 0.432362 -0.127033
C3    C     C_R   0.961442 0.407826 0.391237 -0.123921
C4    C     C_R   0.508339 0.494754 0.312102 0.514231
C5    C     C_R   0.042149 0.420396 0.409002 0.048397
C6    C     C_R   0.084096 0.468446 0.470275 0.033681
C7    C     C_R   0.081394 0.385003 0.365765 -0.120570
C8    C     C_R   0.162166 0.396977 0.382262 -0.119844
C9    C     C_R   0.165851 0.478774 0.486061 -0.115705
C10   C     C_R   0.515810 0.498573 0.237183 -0.053471
C11   C     C_R   0.478261 0.542537 0.197102 -0.093037
C12   C     C_R   0.839840 0.592831 0.628404 0.236931
C13   C     C_R   0.489201 0.551370 0.127864 0.222379
C14   C     C_R   0.535701 0.512111 0.096300 0.264102
C15   C     C_R   0.574340 0.468744 0.136302 0.236487
C16   C     C_R   0.492372 0.309462 0.491929 0.493305
C17   C     C_R   0.564116 0.462135 0.206675 -0.162824
C18   C     C_R   0.559428 0.528759 0.888227 -0.014192
C19   C     C_R   0.563459 0.527954 0.816236 0.223030
C20   C     C_R   0.487228 0.504850 0.910250 0.171644
C21   C     C_R   0.493389 0.505788 0.764845 0.026977
C22   C     C_R   0.421731 0.482742 0.787199 -0.172443
C23   C     C_R   0.838186 0.521201 0.517690 -0.162087
C24   C     C_R   0.418835 0.482444 0.859157 -0.114748
C25   C     C_R   0.510146 0.768396 0.513928 0.026301
C26   C     C_R   0.469772 0.794787 0.457417 -0.146325
C27   C     C_R   0.469690 0.867298 0.461564 -0.077915
C28   C     C_R   0.508231 0.691315 0.509398 0.513605
C29   C     C_R   0.510172 0.915067 0.522741 0.225117
C30   C     C_R   0.549996 0.888535 0.579200 -0.102459
C31   C     C_R   0.550513 0.815855 0.574829 -0.139288
C32   C     C_R   0.486369 0.123486 0.545677 -0.071153
C33   C     C_R   0.488943 0.196792 0.551598 0.209078
C34   C     C_R   0.919208 0.528310 0.535605 0.018938
C35   C     C_R   0.487853 0.085530 0.480230 0.222845
C36   C     C_R   0.490595 0.232758 0.490087 -0.002034
C37   C     C_R   0.490888 0.194643 0.424832 -0.174173
C38   C     C_R   0.488872 0.121007 0.419412 0.249106
C39   C     C_R   0.288411 0.459068 0.458891 0.499049
C40   C     C_R   0.712274 0.538987 0.541507 0.499916
C41   C     C_R   0.797804 0.551839 0.563337 0.012705
C42   C     C_R   0.203943 0.443624 0.442481 0.042908
C43   C     C_R   0.920860 0.605795 0.643496 -0.063924
C44   C     C_R   0.960515 0.573393 0.598568 0.001070
C45   C     C_R   0.960251 0.492066 0.493038 0.045104
C46   C     C_R   0.042998 0.504373 0.512982 0.038939
C47   C     C_R   0.081743 0.551682 0.575264 -0.121783
C48   C     C_R   0.041059 0.584947 0.617215 -0.125087
H1    H     H_    0.073092 0.619798 0.665130 0.117489
H2    H     H_    0.581743 0.796723 0.619313 0.152681
H3    H     H_    0.491959 0.222255 0.377847 0.124285
H4    H     H_    0.437385 0.885554 0.417137 0.160661
H5    H     H_    0.437993 0.759356 0.409873 0.148322
H6    H     H_    0.192104 0.370117 0.348120 0.116001
H7    H     H_    0.143730 0.563774 0.594302 0.107698
H8    H     H_    0.858656 0.427826 0.415332 0.112073
H9    H     H_    0.635223 0.522007 0.751530 0.333088
H10   H     H_    0.643515 0.404340 0.139709 0.322901
H11   H     H_    0.593995 0.428659 0.237498 0.138085
H12   H     H_    0.049584 0.348435 0.318900 0.119173
H13   H     H_    0.483065 0.615427 0.055040 0.352574
H14   H     H_    0.512836 0.283324 0.619729 0.340490
H15   H     H_    0.489857 0.115197 0.318036 0.324425
H16   H     H_    0.928945 0.370518 0.345060 0.118345
H17   H     H_    0.952625 0.638829 0.692530 0.147049
H18   H     H_    0.758817 0.581567 0.684179 0.346717
H19   H     H_    0.804698 0.492500 0.467895 0.137521
H20   H     H_    0.613473 0.546364 0.926635 0.180352
H21   H     H_    0.367613 0.465410 0.748801 0.145000
H22   H     H_    0.362940 0.464291 0.875268 0.148609
H23   H     H_    0.442314 0.572549 0.220379 0.180208
H24   H     H_    0.202423 0.514584 0.530961 0.093985
H25   H     H_    0.484437 0.096484 0.592943 0.174850
H26   H     H_    0.580976 0.924465 0.626673 0.134750
N1    N     N_2   0.544571 0.515092 0.024654 -0.205997
N2    N     N_2   0.480725 0.501882 0.982759 -0.219404
N3    N     N_2   0.511198 0.989385 0.529993 -0.257216
N4    N     N_2   0.487493 0.011403 0.473301 -0.178099
O1    O     O_3   0.500000 0.500000 0.500000 -0.447263
O2    O     O_R   0.321500 0.427480 0.506110 -0.533400
O3    O     O_R   0.674970 0.575130 0.575140 -0.523032
O4    O     O_R   0.328550 0.507430 0.428780 -0.536405
O5    O     O_R   0.674980 0.489960 0.489960 -0.548754
O6    O     O_3   0.636819 0.547032 0.798982 -0.671202
O7    O     O_3   0.620794 0.432579 0.104879 -0.655785
O8    O     O_3   0.455299 0.599955 0.093916 -0.674982
O9    O     O_3   0.491929 0.230784 0.618480 -0.671906
O10   O     O_3   0.488915 0.082600 0.355517 -0.658795
O11   O     O_3   0.804377 0.620152 0.678928 -0.653989
O12   O     O_R   0.540930 0.349770 0.460420 -0.542896
O13   O     O_R   0.550820 0.667300 0.556650 -0.532995
O14   O     O_R   0.445640 0.455160 0.644460 -0.540072
O15   O     O_R   0.462610 0.527770 0.338470 -0.545351
O16   O     O_R   0.540910 0.554790 0.665460 -0.531431
O17   O     O_R   0.550840 0.462270 0.351610 -0.538860
O18   O     O_R   0.445650 0.335310 0.524600 -0.528014
O19   O     O_R   0.462600 0.647620 0.458330 -0.543481
Zn1   Zn    Zn3+2 0.565550 0.451340 0.451340 0.933734
Zn2   Zn    Zn3+2 0.429430 0.430690 0.543050 0.951202
Zn3   Zn    Zn3+2 0.439490 0.544930 0.432570 0.946916
Zn4   Zn    Zn3+2 0.565540 0.573040 0.573050 0.966437

loop_
_geom_bond_atom_site_label_1
_geom_bond_atom_site_label_2
_ccdc_geom_bond_type
C28   O19   A    
C25   C31   A    
H10   O7    S    
C1    C21   S    
H15   O10   S    
C27   C29   A    
O1    Zn1   S    
C9    H24   S    
N1    N2    D    
C6    C9    A    
O17   Zn1   S    
C24   H22   S    
C7    C8    A    
O3    Zn4   S    
N3    N4    D    
C25   C28   S    
C16   O12   A    
C26   C27   A    
C29   C30   A    
O1    Zn2   S    
C36   C37   A    
C19   C21   A    
C8    C42   A    
C12   C43   A    
C30   C31   A    
C37   H3    S    
C11   H23   S    
C10   C17   A    
C18   H20   S    
O18   Zn2   S    
C33   C36   A    
C20   N2    S    
C18   C19   A    
C23   H19   S    
C20   C24   A    
O16   Zn4   S    
C1    O16   A    
O5    Zn1   S    
C13   O8    S    
C39   C42   S    
C22   H21   S    
C15   O7    S    
C13   C14   A    
C40   O5    A    
O13   Zn4   S    
H18   O11   S    
C2    C45   A    
C16   O18   A    
C32   C35   A    
C12   O11   S    
C35   C38   A    
C34   C44   A    
H13   O8    S    
C8    H6    S    
C32   H25   S    
C5    C7    A    
C25   C26   A    
C45   C46   A    
C38   O10   S    
C43   C44   A    
C39   O2    A    
C37   C38   A    
C4    O17   A    
O1    Zn3   S    
C47   C48   A    
C43   H17   S    
C23   C34   A    
C9    C42   A    
H9    O6    S    
C34   C45   A    
O15   Zn3   S    
C17   H11   S    
C40   C41   S    
C1    O14   A    
O2    Zn2   S    
C22   C24   A    
C31   H2    S    
C4    C10   S    
C19   O6    S    
C26   H5    S    
C7    H12   S    
O19   Zn3   S    
C27   H4    S    
C12   C41   A    
C47   H7    S    
C15   C17   A    
C46   C47   A    
C48   H1    S    
C6    C46   A    
O4    Zn3   S    
C40   O3    A    
C39   O4    A    
C3    C5    A    
H14   O9    S    
C35   N4    S    
C23   C41   A    
C32   C33   A    
C2    C3    A    
C33   O9    S    
C2    H8    S    
C14   N1    S    
C11   C13   A    
C5    C6    A    
C30   H26   S    
C28   O13   A    
C18   C20   A    
C3    H16   S    
C10   C11   A    
C4    O15   A    
C29   N3    S    
C14   C15   A    
O1    Zn4   S    
C21   C22   A    
O12   Zn1   S    
C16   C36   S    
C44   C48   A    
O14   Zn2   S    
