data_mof_unit_53040.cif
_audit_creation_date              2012-12-10T17:56:17-0500
_audit_creation_method            fapswitch 2.2
_symmetry_space_group_name_H-M    P1
_symmetry_Int_Tables_number       1
_space_group_crystal_system       triclinic
_cell_length_a                    13.004774
_cell_length_b                    10.874186
_cell_length_c                    9.503897
_cell_angle_alpha                 89.095178
_cell_angle_beta                  95.997077
_cell_angle_gamma                 90.282788
_cell_volume                      1336.47683921

loop_
_atom_site_label
_atom_site_type_symbol
_atom_type_description
_atom_site_fract_x
_atom_site_fract_y
_atom_site_fract_z
_atom_type_partial_charge
C1    C     C_R   0.499937 0.262065 0.501356 0.825479
C2    C     C_R   0.500063 0.737935 0.498644 0.825480
C3    C     C_R   0.500856 0.871793 0.496202 -0.099691
C4    C     C_R   0.499144 0.128207 0.503798 -0.099691
C5    C     C_R   0.425444 0.437973 0.064905 -0.035468
C6    C     C_R   0.574556 0.562027 0.935095 -0.035468
C7    C     C_R   0.425341 0.438271 0.916020 -0.016011
C8    C     C_R   0.574659 0.561729 0.083980 -0.016011
C9    C     C_R   0.300427 0.499849 0.473801 0.801262
C10   C     C_R   0.699573 0.500151 0.526199 0.801262
C11   C     C_R   0.812286 0.500208 0.541340 -0.048366
C12   C     C_R   0.187713 0.499792 0.458660 -0.048366
C13   C     C_R   0.024475 0.500455 0.310782 -0.218815
C14   C     C_R   0.975525 0.499545 0.689218 -0.218815
C15   C     C_R   0.131939 0.500206 0.323981 -0.198238
C16   C     C_R   0.868061 0.499794 0.676019 -0.198238
C17   C     C_R   0.135303 0.499460 0.580192 -0.269304
C18   C     C_R   0.864697 0.500539 0.419808 -0.269304
C19   C     C_R   0.027917 0.499739 0.567884 0.176584
C20   C     C_R   0.972083 0.500261 0.432116 0.176584
C21   C     C_R   0.475603 0.067891 0.375381 -0.307033
C22   C     C_R   0.524397 0.932109 0.624619 -0.307033
C23   C     C_R   0.477096 0.940486 0.369739 0.263976
C24   C     C_R   0.522903 0.059513 0.630261 0.263976
Cu1   Cu    Cu3+1 0.500000 0.500020 0.640660 0.949921
Cu2   Cu    Cu3+1 0.500000 0.499980 0.359340 0.949920
H1    H     H_    0.822174 0.500960 0.315364 0.148457
H2    H     H_    0.177826 0.499040 0.684636 0.148457
H3    H     H_    0.828770 0.499601 0.771054 0.152713
H4    H     H_    0.171230 0.500399 0.228946 0.152713
H5    H     H_    0.982461 0.500822 0.206089 0.130659
H6    H     H_    0.017539 0.499178 0.793911 0.130659
H7    H     H_    0.456237 0.119592 0.277807 0.165581
H8    H     H_    0.543763 0.880408 0.722193 0.165581
H9    H     H_    0.365954 0.387885 0.113378 0.113170
H10   H     H_    0.634046 0.612115 0.886622 0.113170
H11   H     H_    0.365548 0.388746 0.852343 0.112680
H12   H     H_    0.634451 0.611253 0.147657 0.112680
N1    N     N_R   0.500030 0.500030 0.852080 -0.149380
N2    N     N_R   0.499970 0.499970 0.147920 -0.149380
O1    O     O_R   0.499990 0.319660 0.618740 -0.543877
O2    O     O_R   0.500010 0.680340 0.381260 -0.543878
O3    O     O_R   0.499990 0.319630 0.381170 -0.595276
O4    O     O_R   0.500010 0.680370 0.618830 -0.595276
O5    O     O_R   0.349000 0.499990 0.599490 -0.594803
O6    O     O_R   0.651000 0.500010 0.400510 -0.594803
O7    O     O_R   0.348990 0.499960 0.361920 -0.591226
O8    O     O_R   0.651010 0.500040 0.638080 -0.591226
N3    N     N_2   0.452571 0.883031 0.236914 -0.399612
H13   H     H_    0.386696 0.918087 0.180838 0.240412
C25   C     C_3   0.538059 0.879519 0.151084 -0.677845
H14   H     H_    0.560574 0.974259 0.120748 0.212483
H15   H     H_    0.514745 0.827537 0.053206 0.219312
H16   H     H_    0.605712 0.833056 0.209880 0.232258
N4    N     N_2   0.547430 0.116969 0.763086 -0.399612
H17   H     H_    0.613305 0.081914 0.819162 0.240412
C26   C     C_3   0.461942 0.120481 0.848916 -0.677845
H18   H     H_    0.439427 0.025742 0.879252 0.212483
H19   H     H_    0.394288 0.166943 0.790120 0.232258
H20   H     H_    0.485256 0.172463 0.946794 0.219313

loop_
_geom_bond_atom_site_label_1
_geom_bond_atom_site_label_2
_ccdc_geom_bond_type
C12   C17   A    
C10   O6    A    
C2    O4    A    
N4    H17   S    
C11   C18   A    
C9    O5    A    
C1    O3    A    
C11   C16   A    
C3    C23   A    
C19   C20   A    
C12   C15   A    
C1    C4    S    
C25   H16   S    
C22   C24   A    
N4    C26   S    
C2    C3    S    
C7    H11   S    
Cu1   Cu2   S    
Cu1   N1    S    
C24   N4    S    
C4    C21   A    
Cu1   O8    S    
Cu2   N2    S    
C26   H18   S    
C8    H12   S    
Cu2   O7    S    
C2    O2    A    
C4    C24   A    
C5    H9    S    
Cu1   O4    S    
C1    O1    A    
C17   C19   A    
C6    H10   S    
Cu2   O3    S    
C9    O7    A    
C18   C20   A    
C13   C15   A    
C21   C23   A    
C10   O8    A    
C22   H8    S    
C9    C12   S    
C14   C16   A    
C23   N3    S    
C26   H19   S    
C10   C11   S    
Cu2   O6    S    
C25   H14   S    
Cu1   O5    S    
C21   H7    S    
Cu2   O2    S    
C15   H4    S    
N3    H13   S    
C5    N2    A    
Cu1   O1    S    
C5    C7    A    
C7    N1    A    
C6    N1    A    
C3    C22   A    
C6    C8    A    
C8    N2    A    
C13   C20   A    
C25   H15   S    
C16   H3    S    
C17   H2    S    
C14   C19   A    
C13   H5    S    
C18   H1    S    
N3    C25   S    
C14   H6    S    
C26   H20   S    
