data_mof_unit_20331.cif
_audit_creation_date              2012-12-10T18:50:45-0500
_audit_creation_method            fapswitch 2.2
_symmetry_space_group_name_H-M    P1
_symmetry_Int_Tables_number       1
_space_group_crystal_system       triclinic
_cell_length_a                    10.64465
_cell_length_b                    9.880887
_cell_length_c                    15.752765
_cell_angle_alpha                 89.884988
_cell_angle_beta                  91.140377
_cell_angle_gamma                 90.045686
_cell_volume                      1656.52153659

loop_
_atom_site_label
_atom_site_type_symbol
_atom_type_description
_atom_site_fract_x
_atom_site_fract_y
_atom_site_fract_z
_atom_type_partial_charge
C1    C     C_R   0.261616 0.499866 0.511891 0.894424
C2    C     C_3   0.649373 0.567983 0.951956 0.411410
C3    C     C_3   0.650702 0.546025 0.055227 0.289750
C4    C     C_1   0.511800 0.504505 0.825255 0.065842
C5    C     C_1   0.502479 0.502633 0.174572 0.006149
C6    C     C_1   0.500841 0.500913 0.249797 -0.205691
C7    C     C_R   0.064231 0.375279 0.536010 0.423316
C8    C     C_R   0.064557 0.623398 0.538273 0.425805
C9    C     C_R   0.936482 0.376720 0.522804 -0.184836
C10   C     C_R   0.936687 0.622677 0.525139 -0.187621
C11   C     C_R   0.873705 0.499942 0.513942 -0.228635
C12   C     C_R   0.130255 0.499436 0.532740 -0.324989
C13   C     C_R   0.590019 0.071737 0.544206 -0.172940
C14   C     C_R   0.590005 0.928124 0.544221 -0.173245
C15   C     C_R   0.499646 0.500163 0.338427 0.914968
C16   C     C_R   0.408805 0.928842 0.456189 0.497186
C17   C     C_R   0.408794 0.071253 0.456184 0.496009
C18   C     C_R   0.740579 0.500035 0.502008 0.925713
C19   C     C_R   0.500635 0.499919 0.661574 0.863056
C20   C     C_3   0.409176 0.615637 0.046978 0.461114
C21   C     C_3   0.469901 0.359434 0.048050 0.496685
C22   C     C_3   0.491240 0.361212 0.949358 -0.158053
C23   C     C_3   0.402841 0.597338 0.947714 -0.020301
C24   C     C_1   0.506019 0.500523 0.750147 -0.203495
C25   C     C_3   0.507500 0.506377 0.082426 -0.008241
C26   C     C_3   0.517308 0.509743 0.917097 -0.072965
H1    H     H_    0.318126 0.535016 0.933067 0.147092
H2    H     H_    0.401637 0.331138 0.916545 0.142794
H3    H     H_    0.886667 0.281013 0.520811 0.194543
H4    H     H_    0.886931 0.718357 0.525056 0.193406
H5    H     H_    0.662193 0.125790 0.579624 0.171829
H6    H     H_    0.662148 0.873958 0.579669 0.170566
N1    N     N_R   0.499970 0.857200 0.499980 -0.174442
N2    N     N_R   0.499970 0.142800 0.499980 -0.174647
O1    O     O_R   0.316750 0.614620 0.499990 -0.599733
O2    O     O_R   0.316750 0.385380 0.499990 -0.601441
O3    O     O_R   0.499990 0.614720 0.377140 -0.637067
O4    O     O_R   0.499990 0.385280 0.377140 -0.630861
O5    O     O_R   0.683220 0.614710 0.500000 -0.624116
O6    O     O_R   0.683220 0.385290 0.500000 -0.622970
O7    O     O_R   0.499980 0.614620 0.622860 -0.616883
O8    O     O_R   0.499980 0.385380 0.622860 -0.618648
Zn1   Zn    Zn3+2 0.499980 0.653120 0.500000 0.952508
Zn2   Zn    Zn3+2 0.499980 0.346880 0.500000 0.954220
O9    O     O_3   0.315313 0.865944 0.409445 -0.686562
H7    H     H_    0.345431 0.776000 0.393417 0.371658
O10   O     O_3   0.315256 0.134208 0.409423 -0.688099
H8    H     H_    0.345108 0.224465 0.393550 0.371392
N3    N     N_2   0.285017 0.594781 0.085164 -0.292019
H9    H     H_    0.286136 0.610682 0.149869 0.244289
C27   C     C_3   0.173288 0.654344 0.045933 -0.836767
H10   H     H_    0.095855 0.654177 0.092107 0.240960
H11   H     H_    0.140537 0.593254 0.990897 0.243705
H12   H     H_    0.189748 0.760512 0.026158 0.243438
N4    N     N_2   0.336851 0.325259 0.063621 -0.328102
H13   H     H_    0.299280 0.256393 0.020980 0.197796
C28   C     C_3   0.298277 0.289033 0.148845 -0.678931
H14   H     H_    0.204307 0.239951 0.145677 0.220570
H15   H     H_    0.287527 0.379724 0.188884 0.236849
H16   H     H_    0.364767 0.216824 0.179653 0.265816
O11   O     O_3   0.546762 0.260579 0.088066 -0.760013
H17   H     H_    0.514818 0.169941 0.071193 0.349603
O12   O     O_3   0.453556 0.745655 0.069794 -0.824718
H18   H     H_    0.382408 0.809724 0.073839 0.346343
N5    N     N_2   0.586555 0.264403 0.922840 -0.285029
H19   H     H_    0.665989 0.255431 0.960772 0.287768
C29   C     C_3   0.542885 0.138234 0.886029 -0.810868
H20   H     H_    0.624644 0.077825 0.865408 0.243181
H21   H     H_    0.481889 0.158493 0.829394 0.252971
H22   H     H_    0.489789 0.078703 0.933201 0.232708
N6    N     N_2   0.388776 0.724817 0.900597 -0.272996
H23   H     H_    0.409794 0.814982 0.930122 0.256200
C30   C     C_3   0.287459 0.734628 0.838056 -0.814567
H24   H     H_    0.304860 0.821921 0.795376 0.247487
H25   H     H_    0.196685 0.750456 0.869926 0.238663
H26   H     H_    0.281437 0.641764 0.798639 0.242336
N7    N     N_2   0.687285 0.672356 0.100441 -0.276325
H27   H     H_    0.644251 0.691811 0.157024 0.271899
C31   C     C_3   0.815306 0.721142 0.105400 -0.788984
H28   H     H_    0.815778 0.825636 0.131280 0.248602
H29   H     H_    0.857128 0.727433 0.042473 0.250749
H30   H     H_    0.872287 0.657438 0.149629 0.243459
N8    N     N_2   0.732699 0.434708 0.086858 -0.252712
H31   H     H_    0.721522 0.413996 0.150454 0.262423
C32   C     C_3   0.862012 0.409708 0.063499 -0.721845
H32   H     H_    0.912438 0.502622 0.046455 0.257866
H33   H     H_    0.864996 0.335227 0.011101 0.245032
H34   H     H_    0.914741 0.363465 0.117834 0.219324
N9    N     N_2   0.658432 0.714044 0.931532 -0.278583
H35   H     H_    0.619736 0.783358 0.971820 0.283229
C33   C     C_3   0.667764 0.765115 0.845119 -0.764555
H36   H     H_    0.580036 0.817593 0.825258 0.249042
H37   H     H_    0.686310 0.684837 0.798407 0.258841
H38   H     H_    0.745503 0.839812 0.842765 0.228585
N10   N     N_2   0.753990 0.495362 0.910760 -0.286704
H39   H     H_    0.731035 0.421087 0.867663 0.242689
C34   C     C_3   0.871050 0.559671 0.885900 -0.807411
H40   H     H_    0.950543 0.489459 0.898597 0.227808
H41   H     H_    0.890109 0.655369 0.919316 0.261094
H42   H     H_    0.869984 0.579556 0.816522 0.234235
O13   O     O_3   0.120741 0.251719 0.550557 -0.696267
H43   H     H_    0.188375 0.265581 0.593862 0.337773
O14   O     O_3   0.121494 0.746033 0.555143 -0.698688
H44   H     H_    0.190162 0.729560 0.597351 0.337792

loop_
_geom_bond_atom_site_label_1
_geom_bond_atom_site_label_2
_ccdc_geom_bond_type
N4    H13   S    
C11   C18   S    
O13   H43   S    
C30   H25   S    
C30   H24   S    
N10   H39   S    
C14   N1    A    
C34   H40   S    
C22   N5    S    
N7    H27   S    
C2    N10   S    
C7    O13   S    
C5    C6    T    
C4    C24   T    
C28   H15   S    
C20   C25   S    
C23   C26   S    
C18   O6    A    
C15   O3    A    
C6    C15   S    
N8    H31   S    
C16   C17   A    
N5    C29   S    
C23   H1    S    
N9    C33   S    
O1    Zn1   S    
C21   O11   S    
C19   O8    A    
C9    H3    S    
C32   H33   S    
C22   H2    S    
C21   C22   S    
O7    Zn1   S    
C1    C12   S    
O8    Zn2   S    
C34   H41   S    
N7    C31   S    
C7    C12   A    
C27   H10   S    
N1    Zn1   S    
C23   N6    S    
C3    C25   S    
N2    Zn2   S    
C33   H36   S    
C31   H29   S    
C28   H16   S    
O5    Zn1   S    
N3    C27   S    
C32   H32   S    
C29   H20   S    
C29   H21   S    
O3    Zn1   S    
C2    N9    S    
C18   O5    A    
C15   O4    A    
O4    Zn2   S    
C20   N3    S    
C16   N1    A    
C33   H37   S    
C10   H4    S    
O10   H8    S    
C20   C23   S    
O6    Zn2   S    
C8    C12   A    
C2    C26   S    
C9    C11   A    
C5    C25   S    
N8    C32   S    
N5    H19   S    
N4    C28   S    
C3    N8    S    
C30   H26   S    
O2    Zn2   S    
C17   N2    A    
C3    N7    S    
C34   H42   S    
C1    O1    A    
C21   N4    S    
C32   H34   S    
C7    C9    A    
C21   C25   S    
C13   H5    S    
C17   O10   S    
C14   H6    S    
O12   H18   S    
C16   O9    S    
C31   H30   S    
C4    C26   S    
N10   C34   S    
C27   H12   S    
C29   H22   S    
C20   O12   S    
C2    C3    S    
C13   N2    A    
C33   H38   S    
C28   H14   S    
C19   C24   S    
O11   H17   S    
C8    O14   S    
C10   C11   A    
C31   H28   S    
O9    H7    S    
N6    H23   S    
C8    C10   A    
N3    H9    S    
C22   C26   S    
N6    C30   S    
O14   H44   S    
C27   H11   S    
N9    H35   S    
C13   C14   A    
C19   O7    A    
C1    O2    A    
