data_mof_unit_28693.cif
_audit_creation_date              2012-12-11T15:53:43-0500
_audit_creation_method            fapswitch 2.2
_symmetry_space_group_name_H-M    P1
_symmetry_Int_Tables_number       1
_space_group_crystal_system       triclinic
_cell_length_a                    6.930913
_cell_length_b                    14.529114
_cell_length_c                    15.980403
_cell_angle_alpha                 90.386367
_cell_angle_beta                  89.842899
_cell_angle_gamma                 89.89542
_cell_volume                      1609.18161069

loop_
_atom_site_label
_atom_site_type_symbol
_atom_type_description
_atom_site_fract_x
_atom_site_fract_y
_atom_site_fract_z
_atom_type_partial_charge
O1    O     O_R   0.361600 0.167310 0.164620 -0.556971
O2    O     O_R   0.638400 0.832690 0.835380 -0.556971
O3    O     O_R   0.691080 0.157570 0.338750 -0.548325
O4    O     O_R   0.308920 0.842430 0.661250 -0.548334
O5    O     O_R   0.861410 0.336420 0.339360 -0.539124
O6    O     O_R   0.138590 0.663580 0.660640 -0.539124
C1    C     C_R   0.522126 0.134965 0.367182 0.838436
C2    C     C_R   0.477873 0.865035 0.632818 0.838431
O7    O     O_R   0.691320 0.156280 0.165240 -0.510721
O8    O     O_R   0.308680 0.843720 0.834760 -0.510720
O9    O     O_R   0.861640 0.335130 0.164600 -0.512810
O10   O     O_R   0.138360 0.664870 0.835400 -0.512809
C3    C     C_R   0.522736 0.133580 0.136246 0.784588
C4    C     C_R   0.477264 0.866420 0.863754 0.784591
O11   O     O_R   0.361370 0.168600 0.339370 -0.536177
O12   O     O_R   0.638630 0.831400 0.660630 -0.536176
O13   O     O_3   0.527990 0.310540 0.251980 -0.344708
O14   O     O_3   0.472010 0.689460 0.748020 -0.344706
V1    V     V_3+5 0.802830 0.240980 0.251990 1.629849
V2    V     V_3+5 0.197170 0.759020 0.748010 1.629836
O15   O     O_R   0.191360 0.346160 0.165220 -0.509237
O16   O     O_R   0.808640 0.653840 0.834780 -0.509237
C5    C     C_R   0.022396 0.368367 0.136232 0.874407
C6    C     C_R   0.977604 0.631632 0.863768 0.874410
O17   O     O_R   0.191130 0.347440 0.338740 -0.521279
O18   O     O_R   0.808870 0.652560 0.661260 -0.521278
C7    C     C_R   0.021953 0.369113 0.367812 0.817368
C8    C     C_R   0.978047 0.630887 0.632187 0.817366
V3    V     V_3+5 0.302840 0.262750 0.251990 1.660383
V4    V     V_3+5 0.697160 0.737250 0.748010 1.660380
O19   O     O_3   0.027820 0.193180 0.251990 -0.396192
O20   O     O_3   0.972180 0.806820 0.748010 -0.396195
C9    C     C_3   0.878000 0.428820 0.516619 -0.369143
C10   C     C_3   0.121999 0.571180 0.483381 -0.369143
C11   C     C_3   0.050505 0.460607 0.571079 0.332298
C12   C     C_3   0.949495 0.539393 0.428920 0.332296
H1    H     H_    0.777928 0.371114 0.529831 0.198488
H2    H     H_    0.222072 0.628886 0.470169 0.198486
C13   C     C_3   0.989824 0.561973 0.561859 -0.310516
C14   C     C_3   0.010176 0.438027 0.438140 -0.310518
C15   C     C_3   0.819254 0.531096 0.506505 0.673844
C16   C     C_3   0.180745 0.468904 0.493495 0.673846
C17   C     C_R   0.830577 0.550638 0.987476 0.538693
C18   C     C_R   0.169423 0.449362 0.012524 0.538693
C19   C     C_R   0.842096 0.487954 0.053501 0.545915
C20   C     C_R   0.157904 0.512046 0.946499 0.545914
C21   C     C_R   0.011686 0.436352 0.066967 -0.511121
C22   C     C_R   0.988314 0.563648 0.933033 -0.511122
C23   C     C_R   0.635528 0.988295 0.434688 0.291465
C24   C     C_R   0.364470 0.011705 0.565311 0.291455
C25   C     C_R   0.620857 0.922675 0.498914 0.454300
C26   C     C_R   0.379142 0.077324 0.501086 0.454304
C27   C     C_R   0.488059 0.934342 0.564979 -0.382757
C28   C     C_R   0.511939 0.065657 0.435020 -0.382754
C29   C     C_R   0.675052 0.012562 0.042156 0.660346
C30   C     C_R   0.324948 0.987438 0.957844 0.660346
C31   C     C_R   0.661998 0.948952 0.976244 -0.250392
C32   C     C_R   0.338002 0.051048 0.023756 -0.250391
H3    H     H_    0.789343 0.909560 0.959539 0.216345
H4    H     H_    0.210656 0.090440 0.040461 0.216344
C33   C     C_R   0.487433 0.935293 0.933144 -0.277894
C34   C     C_R   0.512567 0.064707 0.066856 -0.277893
O21   O     O_3   0.105607 0.424467 0.649213 -0.538883
C35   C     C_3   0.142169 0.329461 0.640771 -0.034909
H5    H     H_    0.262429 0.315754 0.596253 0.204356
H6    H     H_    0.010415 0.291391 0.621446 0.119617
H7    H     H_    0.186545 0.302412 0.702554 0.168076
O22   O     O_3   0.894395 0.575534 0.350787 -0.538884
C36   C     C_3   0.857824 0.670538 0.359230 -0.034905
H8    H     H_    0.989570 0.708610 0.378562 0.119617
H9    H     H_    0.737552 0.684242 0.403742 0.204354
H10   H     H_    0.813460 0.697588 0.297445 0.168074
F1    F     F_    0.633847 0.565546 0.513250 -0.624212
F2    F     F_    0.366153 0.434454 0.486750 -0.624210
F3    F     F_    0.666022 0.600433 0.978515 -0.584124
F4    F     F_    0.333978 0.399566 0.021485 -0.584125
F5    F     F_    0.687849 0.479665 0.105473 -0.571436
F6    F     F_    0.312151 0.520335 0.894527 -0.571436
O23   O     O_3   0.753208 0.971305 0.366094 -0.526662
C37   C     C_3   0.946950 0.988112 0.388208 -0.101092
H11   H     H_    0.965882 0.057499 0.416961 0.126188
H12   H     H_    0.036116 0.986166 0.330472 0.153109
H13   H     H_    0.002914 0.933885 0.430354 0.142059
O24   O     O_3   0.246795 0.028697 0.633906 -0.526661
C38   C     C_3   0.053055 0.011881 0.611794 -0.101092
H14   H     H_    0.963875 0.013866 0.669538 0.153115
H15   H     H_    0.034128 0.942468 0.583070 0.126240
H16   H     H_    0.997099 0.066095 0.569616 0.142045
F7    F     F_    0.731091 0.845371 0.494889 -0.703637
F8    F     F_    0.268912 0.154630 0.505111 -0.703632
F9    F     F_    0.846532 0.021645 0.082154 -0.667817
F10   F     F_    0.153468 0.978355 0.917846 -0.667818

loop_
_geom_bond_atom_site_label_1
_geom_bond_atom_site_label_2
_ccdc_geom_bond_type
C32   C34   A    
O13   V3    S    
C26   F8    S    
C10   C16   S    
O4    C2    A    
V1    O19   S    
C24   O24   S    
C13   C15   S    
C38   H14   S    
O9    V1    S    
O3    C1    A    
C31   H3    S    
O12   V4    S    
C23   C28   A    
C29   C34   A    
C18   F4    S    
C36   H9    S    
C11   C16   S    
O7    C3    A    
C29   F9    S    
C9    C11   S    
O5    C7    A    
O7    V1    S    
O6    C8    A    
C3    C34   S    
C18   C20   A    
O22   C36   S    
C23   C25   A    
C24   C26   A    
O3    V1    S    
O14   V4    S    
C17   C22   A    
C10   C12   S    
C18   C21   A    
C14   C16   S    
C2    O12   A    
C17   F3    S    
C12   C15   S    
C37   H13   S    
C26   C28   A    
O11   V3    S    
C19   C21   A    
O17   V3    S    
C20   C22   A    
C16   F2    S    
C9    C14   S    
C5    C21   S    
C38   H15   S    
C10   C13   S    
C24   C27   A    
C35   H7    S    
C12   C14   S    
O24   C38   S    
C37   H12   S    
O8    C4    A    
O8    V2    S    
C20   F6    S    
C1    O11   A    
C8    C13   S    
C4    C33   S    
O15   V3    S    
C9    H1    S    
O23   C37   S    
C25   C27   A    
C6    C22   S    
C36   H10   S    
C11   C13   S    
C7    C14   S    
O10   V2    S    
O1    V3    S    
C17   C19   A    
O18   V4    S    
C29   C31   A    
O16   C6    A    
O1    C3    A    
V2    O20   S    
C38   H16   S    
O16   V4    S    
C10   H2    S    
C37   H11   S    
C2    C27   S    
C11   O21   S    
C12   O22   S    
C31   C33   A    
O5    V1    S    
O17   C7    A    
O6    V2    S    
O10   C6    A    
O18   C8    A    
O2    V4    S    
C9    C15   S    
C35   H5    S    
O15   C5    A    
V3    O19   S    
C25   F7    S    
V4    O20   S    
O9    C5    A    
O13   V1    S    
C30   C32   A    
O14   V2    S    
C36   H8    S    
O2    C4    A    
C15   F1    S    
O21   C35   S    
O4    V2    S    
C23   O23   S    
C30   F10   S    
C30   C33   A    
C19   F5    S    
C1    C28   S    
C32   H4    S    
C35   H6    S    
