data_mof_unit_55679.cif
_audit_creation_date              2012-10-26T21:12:32-0400
_audit_creation_method            fapswitch 2.2
_symmetry_space_group_name_H-M    P1
_symmetry_Int_Tables_number       1
_space_group_crystal_system       triclinic
_cell_length_a                    23.526981
_cell_length_b                    10.759635
_cell_length_c                    9.637042
_cell_angle_alpha                 90.34222
_cell_angle_beta                  89.782915
_cell_angle_gamma                 94.673879
_cell_volume                      2431.3684077

loop_
_atom_site_label
_atom_site_type_symbol
_atom_type_description
_atom_site_fract_x
_atom_site_fract_y
_atom_site_fract_z
_atom_type_partial_charge
C1    C     C_R   0.498036 0.262557 0.499731 0.532822
C2    C     C_R   0.124066 0.614136 0.529703 0.420723
C3    C     C_R   0.240424 0.522339 0.628346 -0.055071
C4    C     C_R   0.391101 0.499946 0.500346 0.528960
C5    C     C_R   0.299585 0.520505 0.626913 -0.139658
C6    C     C_R   0.328629 0.502065 0.501603 -0.000141
C7    C     C_R   0.297425 0.486041 0.377811 -0.139575
C8    C     C_R   0.238210 0.487342 0.379660 -0.055098
C9    C     C_R   0.209553 0.505278 0.504899 0.237495
C10   C     C_R   0.763231 0.491013 0.381810 -0.073522
C11   C     C_R   0.703735 0.489566 0.375697 0.237004
C12   C     C_R   0.963983 0.276055 0.468409 -0.122665
C13   C     C_R   0.671785 0.494280 0.500183 -0.018983
C14   C     C_R   0.700488 0.493940 0.628143 -0.202490
C15   C     C_R   0.759850 0.493260 0.633261 0.134741
C16   C     C_R   0.498340 0.736865 0.500245 0.535189
C17   C     C_R   0.791224 0.492608 0.509485 0.242518
C18   C     C_R   0.405206 0.113450 0.637885 -0.128555
C19   C     C_R   0.361661 0.041058 0.704845 -0.108629
C20   C     C_R   0.361620 0.911219 0.705307 0.110862
C21   C     C_R   0.405522 0.854101 0.638872 -0.047646
C22   C     C_R   0.450467 0.925862 0.571738 -0.006396
C23   C     C_R   0.023255 0.278341 0.467303 -0.121167
C24   C     C_R   0.450274 0.057183 0.571081 0.016556
C25   C     C_R   0.494236 0.128029 0.499211 0.011718
C26   C     C_R   0.535808 0.070143 0.424955 -0.144212
C27   C     C_R   0.536029 0.941995 0.425707 -0.149316
C28   C     C_R   0.608993 0.498126 0.499610 0.557468
C29   C     C_R   0.494656 0.870069 0.500631 0.000678
C30   C     C_R   0.580591 0.654696 0.152465 -0.045528
C31   C     C_R   0.626914 0.717820 0.091524 -0.149738
C32   C     C_R   0.631387 0.718261 0.950865 -0.158686
C33   C     C_R   0.588121 0.660794 0.867588 0.120912
C34   C     C_R   0.056899 0.390840 0.488124 0.029482
C35   C     C_R   0.541972 0.577639 0.927118 0.179875
C36   C     C_R   0.540474 0.576417 0.077144 0.128795
C37   C     C_R   0.461572 0.427182 0.073299 -0.004917
C38   C     C_R   0.461449 0.427456 0.925905 -0.010814
C39   C     C_R   0.883740 0.605487 0.534233 0.426682
C40   C     C_R   0.877434 0.386012 0.490962 0.411300
C41   C     C_R   0.937066 0.386192 0.490457 0.034376
C42   C     C_R   0.970374 0.499642 0.512175 -0.036901
C43   C     C_R   0.943541 0.610187 0.534574 0.007983
C44   C     C_3   0.672972 0.371215 0.190989 -0.096006
C45   C     C_R   0.030522 0.502352 0.511027 -0.056240
C46   C     C_R   0.064076 0.616083 0.532405 0.064628
C47   C     C_R   0.036481 0.726913 0.555121 0.089893
C48   C     C_R   0.976799 0.722667 0.555990 -0.121980
C49   C     C_R   0.116502 0.394389 0.486670 0.397128
Cu1   Cu    Cu3+1 0.500000 0.499990 0.640660 0.947013
Cu2   Cu    Cu3+1 0.500000 0.500010 0.359340 0.940900
H1    H     H_    0.939369 0.187746 0.451704 0.167583
H2    H     H_    0.578969 0.671037 0.260367 0.190499
H3    H     H_    0.658280 0.771892 0.153957 0.137433
H4    H     H_    0.666411 0.775747 0.904785 0.124870
H5    H     H_    0.429766 0.367686 0.870957 0.109622
H6    H     H_    0.956674 0.808534 0.573351 0.161565
H7    H     H_    0.218460 0.536209 0.725469 0.131670
H8    H     H_    0.322516 0.533874 0.723791 0.141608
H9    H     H_    0.318656 0.471658 0.279799 0.128718
H10   H     H_    0.214503 0.474291 0.283869 0.129899
H11   H     H_    0.787895 0.491625 0.286631 0.131985
H12   H     H_    0.677076 0.494958 0.725099 0.141434
H13   H     H_    0.649238 0.372931 0.091832 0.141570
H14   H     H_    0.648493 0.304223 0.260945 0.121962
H15   H     H_    0.715664 0.338644 0.167461 0.115915
H16   H     H_    0.772224 0.415413 0.819505 0.228501
H17   H     H_    0.778433 0.572929 0.819351 0.241028
H18   H     H_    0.315086 0.863152 0.875653 0.235433
H19   H     H_    0.278115 0.855160 0.725450 0.265073
H20   H     H_    0.631503 0.700476 0.689045 0.209448
H21   H     H_    0.584086 0.801842 0.733429 0.216371
H22   H     H_    0.056511 0.879747 0.673581 0.234753
H23   H     H_    0.569020 0.124772 0.368710 0.117543
H24   H     H_    0.056864 0.906234 0.500789 0.234418
H25   H     H_    0.402409 0.213248 0.636816 0.129889
H26   H     H_    0.327454 0.085978 0.755038 0.121128
H27   H     H_    0.403209 0.753418 0.638369 0.156703
H28   H     H_    0.569359 0.898704 0.369793 0.110489
H29   H     H_    0.429955 0.367111 0.127855 0.117136
H30   H     H_    0.042602 0.191592 0.449833 0.162634
N1    N     N_R   0.852176 0.494620 0.512453 -0.372520
N2    N     N_R   0.148592 0.504661 0.507005 -0.411255
N3    N     N_R   0.500540 0.501210 0.147910 -0.247325
N4    N     N_R   0.500560 0.501290 0.852040 -0.228678
N5    N     N_3   0.788511 0.493705 0.764053 -0.580806
N6    N     N_3   0.316591 0.835949 0.771458 -0.634363
N7    N     N_3   0.590493 0.706668 0.729669 -0.532575
N8    N     N_3   0.068378 0.844570 0.577284 -0.540493
O1    O     O_R   0.500000 0.319640 0.618810 -0.504146
O2    O     O_R   0.582120 0.500020 0.618760 -0.479793
O3    O     O_R   0.582120 0.500050 0.381190 -0.474517
O4    O     O_2   0.857271 0.710780 0.554645 -0.489366
O5    O     O_3   0.677676 0.492674 0.247685 -0.557232
O6    O     O_2   0.844885 0.278376 0.470274 -0.498740
O7    O     O_2   0.142348 0.288295 0.465954 -0.491512
O8    O     O_2   0.157892 0.720214 0.548480 -0.446982
O9    O     O_R   0.500000 0.319660 0.381240 -0.501711
O10   O     O_R   0.417880 0.499950 0.618810 -0.521711
O11   O     O_R   0.417880 0.499980 0.381240 -0.500464
O12   O     O_R   0.500000 0.680340 0.618760 -0.469905
O13   O     O_R   0.500000 0.680360 0.381190 -0.524555

loop_
_geom_bond_atom_site_label_1
_geom_bond_atom_site_label_2
_ccdc_geom_bond_type
C1    O1    A    
C22   C29   A    
C27   C29   A    
H17   N5    S    
C41   C42   A    
C44   H15   S    
C19   C20   A    
C2    N2    A    
C7    C8    A    
C45   C46   A    
C44   H13   S    
Cu2   O13   S    
C12   C23   A    
Cu1   O10   S    
C12   C41   A    
C18   C24   A    
C33   N7    S    
C18   C19   A    
C27   H28   S    
C30   C31   A    
C10   C17   A    
C20   N6    S    
C17   N1    S    
C19   H26   S    
C39   O4    S    
Cu1   N4    S    
H21   N7    S    
Cu1   O1    S    
C31   C32   A    
C2    O8    S    
C8    C9    A    
C34   C49   A    
C21   H27   S    
C13   C28   S    
C43   C48   A    
C32   H4    S    
H18   N6    S    
C8    H10   S    
Cu2   O9    S    
C49   O7    S    
C13   C14   A    
C1    C25   S    
C47   N8    S    
C44   H14   S    
C10   H11   S    
H19   N6    S    
C30   H2    S    
C37   H29   S    
C5    H8    S    
C38   N4    A    
C40   N1    A    
C48   H6    S    
C24   C25   A    
C4    C6    S    
C39   C43   A    
C16   C29   S    
C2    C46   A    
C42   C45   A    
C37   C38   A    
C3    C9    A    
Cu2   O3    S    
Cu1   O2    S    
C47   C48   A    
C23   C34   A    
Cu1   Cu2   S    
C26   C27   A    
C28   O3    A    
C34   C45   A    
C9    N2    S    
C15   N5    S    
C11   O5    S    
C16   O13   A    
C40   C41   A    
C4    O11   A    
C22   C24   A    
C42   C43   A    
C40   O6    S    
C7    H9    S    
Cu2   O11   S    
C15   C17   A    
C46   C47   A    
C35   N4    A    
H16   N5    S    
C18   H25   S    
C23   H30   S    
C39   N1    A    
C3    C5    A    
C1    O9    A    
C6    C7    A    
C37   N3    A    
C12   H1    S    
C30   C36   A    
C32   C33   A    
C49   N2    A    
C25   C26   A    
H22   N8    S    
C11   C13   A    
C5    C6    A    
C36   N3    A    
C14   H12   S    
C33   C35   A    
C28   O2    A    
C31   H3    S    
C44   O5    S    
C10   C11   A    
H24   N8    S    
H20   N7    S    
C3    H7    S    
C16   O12   A    
C38   H5    S    
C20   C21   A    
Cu1   O12   S    
C26   H23   S    
C4    O10   A    
C14   C15   A    
C35   C36   A    
C21   C22   A    
Cu2   N3    S    
