data_mof_unit_67465.cif
_audit_creation_date              2012-12-10T16:46:03-0500
_audit_creation_method            fapswitch 2.2
_symmetry_space_group_name_H-M    P1
_symmetry_Int_Tables_number       1
_space_group_crystal_system       triclinic
_cell_length_a                    10.804862
_cell_length_b                    8.803558
_cell_length_c                    7.586054
_cell_angle_alpha                 102.70234
_cell_angle_beta                  96.195488
_cell_angle_gamma                 93.08892
_cell_volume                      697.578051105

loop_
_atom_site_label
_atom_site_type_symbol
_atom_type_description
_atom_site_fract_x
_atom_site_fract_y
_atom_site_fract_z
_atom_type_partial_charge
C1    C     C_R   0.496903 0.200697 0.454723 0.870992
C2    C     C_3   0.878974 0.485404 0.497324 -0.114046
C3    C     C_3   0.933639 0.649714 0.472680 -0.269087
C4    C     C_3   0.915450 0.357296 0.329986 0.037241
C5    C     C_2   0.494994 0.033549 0.433905 -0.330580
C6    C     C_2   0.511847 0.966570 0.577024 -0.203989
C7    C     C_R   0.261155 0.499235 0.499150 0.805660
C8    C     C_R   0.505149 0.799244 0.546721 0.855132
C9    C     C_R   0.738952 0.488497 0.498484 0.780871
C10   C     C_3   0.086584 0.435266 0.665304 -0.267356
C11   C     C_3   0.944754 0.451311 0.679950 0.043143
C12   C     C_3   0.079985 0.666071 0.508610 0.028833
C13   C     C_3   0.057291 0.384795 0.318387 -0.410253
C14   C     C_3   0.123950 0.496937 0.497611 -0.051746
Cu1   Cu    Cu3+1 0.514070 0.517380 0.684380 1.004774
Cu2   Cu    Cu3+1 0.485930 0.482620 0.315620 1.007970
H1    H     H_    0.139229 0.507969 0.792242 0.179459
H2    H     H_    0.907992 0.653376 0.328392 0.192564
H3    H     H_    0.477358 0.962700 0.295657 0.191195
H4    H     H_    0.404492 0.373269 0.948384 0.229957
H5    H     H_    0.072667 0.435711 0.199810 0.204848
H6    H     H_    0.101076 0.271813 0.293854 0.208309
N1    N     N_2   0.464720 0.456420 0.038520 -0.224901
N2    N     N_2   0.535280 0.543580 0.961480 -0.196370
O1    O     O_R   0.509140 0.286130 0.619770 -0.588568
O2    O     O_R   0.485380 0.256770 0.308360 -0.562695
O3    O     O_R   0.329570 0.514650 0.655700 -0.609667
O4    O     O_R   0.305810 0.485300 0.344290 -0.569371
O5    O     O_R   0.514620 0.743230 0.691640 -0.593619
O6    O     O_R   0.490860 0.713870 0.380230 -0.588219
O7    O     O_R   0.694190 0.514700 0.655710 -0.560527
O8    O     O_R   0.670430 0.485350 0.344300 -0.593018
C15   C     C_1   0.840593 0.367187 0.161240 0.340641
N3    N     N_1   0.771278 0.375037 0.037474 -0.217740
I1    I     I_    0.155946 0.785025 0.318001 -0.317384
C16   C     C_1   0.538185 0.051831 0.766434 0.382620
N4    N     N_1   0.559130 0.117258 0.917678 -0.221280
C17   C     C_1   0.613189 0.664070 0.074348 0.613158
N5    N     N_1   0.678857 0.765203 0.166855 -0.301969
C18   C     C_1   0.128362 0.276103 0.660577 0.274197
N6    N     N_1   0.161660 0.152932 0.657270 -0.237443
C19   C     C_1   0.884954 0.309706 0.717766 0.337602
N7    N     N_1   0.838830 0.196768 0.744181 -0.205943
I2    I     I_    0.928213 0.634538 0.919156 -0.344233
C20   C     C_1   0.130771 0.772324 0.684959 0.331042
N8    N     N_1   0.171687 0.855478 0.821793 -0.207161
C21   C     C_1   0.873023 0.783073 0.571662 0.366119
N9    N     N_1   0.822377 0.883994 0.649781 -0.207221
I3    I     I_    0.870109 0.111761 0.315153 -0.291940

loop_
_geom_bond_atom_site_label_1
_geom_bond_atom_site_label_2
_ccdc_geom_bond_type
Cu2   O4    S    
C16   N4    T    
C2    C4    S    
N1    N2    D    
C6    C16   S    
Cu1   O7    S    
C5    H3    S    
Cu1   O5    S    
Cu2   O8    S    
Cu1   O3    S    
C21   N9    T    
H4    N1    S    
C4    I3    S    
C8    O6    A    
C2    C3    S    
C13   H5    S    
C11   I2    S    
C13   C14   S    
C12   I1    S    
C1    O1    A    
C5    C6    D    
C3    H2    S    
C1    C5    S    
C2    C11   S    
C3    C21   S    
Cu1   N2    S    
C12   C14   S    
C13   H6    S    
C15   N3    T    
Cu2   N1    S    
Cu2   O2    S    
C1    O2    A    
Cu1   O1    S    
C19   N7    T    
C8    O5    A    
C10   H1    S    
Cu2   O6    S    
N2    C17   S    
C7    O3    A    
C11   C19   S    
C10   C18   S    
C10   C11   S    
C4    C13   S    
C9    O7    A    
C4    C15   S    
C18   N6    T    
C6    C8    S    
C3    C12   S    
C9    O8    A    
C20   N8    T    
C2    C9    S    
C7    C14   S    
C7    O4    A    
Cu1   Cu2   S    
C10   C14   S    
C12   C20   S    
C17   N5    T    
