data_mof_unit_10920.cif
_audit_creation_date              2012-12-10T17:18:34-0500
_audit_creation_method            fapswitch 2.2
_symmetry_space_group_name_H-M    P1
_symmetry_Int_Tables_number       1
_space_group_crystal_system       triclinic
_cell_length_a                    21.903843
_cell_length_b                    21.903844
_cell_length_c                    30.142126
_cell_angle_alpha                 90.016606
_cell_angle_beta                  90.01661
_cell_angle_gamma                 90.044213
_cell_volume                      14461.5342597

loop_
_atom_site_label
_atom_site_type_symbol
_atom_type_description
_atom_site_fract_x
_atom_site_fract_y
_atom_site_fract_z
_atom_type_partial_charge
C1    C     C_R   0.500019 0.120087 0.499984 0.873834
C2    C     C_R   0.286829 0.343587 0.540365 -0.271330
C3    C     C_R   0.999998 0.499993 0.413274 0.876722
C4    C     C_R   0.000006 0.500002 0.086725 0.876721
C5    C     C_R   0.500059 0.000009 0.086726 0.877417
C6    C     C_R   0.999991 0.499941 0.913274 0.877418
C7    C     C_R   0.499998 0.999993 0.913274 0.876722
C8    C     C_R   0.537405 0.040872 0.842311 -0.262516
C9    C     C_R   0.040777 0.462446 0.842299 -0.262221
C10   C     C_R   0.462593 0.959109 0.842276 -0.262081
C11   C     C_R   0.959132 0.537255 0.842283 -0.262082
C12   C     C_R   0.537551 0.959221 0.157701 -0.262220
C13   C     C_R   0.343830 0.712665 0.540960 -0.242512
C14   C     C_R   0.040892 0.537407 0.157724 -0.262082
C15   C     C_R   0.462748 0.040871 0.157717 -0.262080
C16   C     C_R   0.959127 0.462596 0.157689 -0.262516
C17   C     C_R   0.037404 0.540873 0.342311 -0.262516
C18   C     C_R   0.540775 0.962444 0.342299 -0.262221
C19   C     C_R   0.962593 0.459108 0.342276 -0.262081
C20   C     C_R   0.459134 0.037257 0.342282 -0.262081
C21   C     C_R   0.037553 0.459223 0.657701 -0.262221
C22   C     C_R   0.540892 0.037406 0.657724 -0.262082
C23   C     C_R   0.962745 0.540869 0.657717 -0.262081
C24   C     C_R   0.712815 0.655552 0.542046 -0.274455
C25   C     C_R   0.459127 0.962596 0.657689 -0.262516
C26   C     C_R   0.500003 0.999985 0.865268 -0.052312
C27   C     C_R   0.999965 0.499875 0.865267 -0.052304
C28   C     C_R   0.500125 0.000035 0.134733 -0.052307
C29   C     C_R   0.000015 0.499997 0.134732 -0.052312
C30   C     C_R   0.000003 0.499985 0.365268 -0.052312
C31   C     C_R   0.499965 0.999875 0.365266 -0.052303
C32   C     C_R   0.000125 0.500035 0.634733 -0.052305
C33   C     C_R   0.500015 0.999997 0.634732 -0.052312
C34   C     C_R   0.461278 0.959614 0.796260 0.125108
C35   C     C_R   0.656413 0.713171 0.459635 -0.271329
C36   C     C_R   0.959666 0.538596 0.796273 0.124714
C37   C     C_R   0.538730 0.040367 0.796296 0.125182
C38   C     C_R   0.040331 0.461180 0.796280 0.125031
C39   C     C_R   0.461407 0.040337 0.203727 0.124714
C40   C     C_R   0.959632 0.461271 0.203704 0.125181
C41   C     C_R   0.538817 0.959666 0.203719 0.125030
C42   C     C_R   0.040387 0.538721 0.203740 0.125108
C43   C     C_R   0.961279 0.459613 0.296260 0.125108
C44   C     C_R   0.459668 0.038598 0.296273 0.124714
C45   C     C_R   0.038729 0.540368 0.296296 0.125181
C46   C     C_R   0.287335 0.656170 0.459040 -0.242512
C47   C     C_R   0.540329 0.961178 0.296280 0.125031
C48   C     C_R   0.961404 0.540335 0.703727 0.124714
C49   C     C_R   0.459632 0.961271 0.703704 0.125181
C50   C     C_R   0.038819 0.459668 0.703720 0.125031
C51   C     C_R   0.540387 0.038721 0.703740 0.125108
C52   C     C_R   0.500008 0.999989 0.773136 0.059056
C53   C     C_R   0.000029 0.499916 0.773135 0.058961
C54   C     C_R   0.500084 0.999971 0.226864 0.058962
C55   C     C_R   0.000011 0.499992 0.226863 0.059056
C56   C     C_R   0.000008 0.499989 0.273136 0.059056
C57   C     C_R   0.344448 0.287185 0.457954 -0.274455
C58   C     C_R   0.500029 0.999917 0.273135 0.058961
C59   C     C_R   0.000084 0.499971 0.726864 0.058961
C60   C     C_R   0.500011 0.999992 0.726863 0.059056
C61   C     C_R   0.421861 0.920625 0.773046 -0.203587
C62   C     C_R   0.920725 0.578005 0.773080 -0.202994
C63   C     C_R   0.578144 0.079365 0.773119 -0.204013
C64   C     C_R   0.079324 0.421823 0.773084 -0.204881
C65   C     C_R   0.422000 0.079280 0.226919 -0.202996
C66   C     C_R   0.920634 0.421857 0.226881 -0.204013
C67   C     C_R   0.578171 0.920671 0.226915 -0.204882
C68   C     C_R   0.712630 0.344080 0.458575 -0.272534
C69   C     C_R   0.079376 0.578138 0.226954 -0.203588
C70   C     C_R   0.921861 0.420624 0.273046 -0.203588
C71   C     C_R   0.420730 0.078010 0.273080 -0.202993
C72   C     C_R   0.078143 0.579366 0.273119 -0.204013
C73   C     C_R   0.579320 0.921819 0.273084 -0.204880
C74   C     C_R   0.921996 0.579276 0.726920 -0.202995
C75   C     C_R   0.420633 0.921858 0.726880 -0.204013
C76   C     C_R   0.078175 0.420675 0.726916 -0.204881
C77   C     C_R   0.579377 0.078137 0.726954 -0.203588
C78   C     C_R   0.605571 0.190838 0.536793 0.224489
C79   C     C_R   0.155920 0.787370 0.041425 -0.272535
C80   C     C_R   0.190592 0.394384 0.536422 0.225187
C81   C     C_R   0.394324 0.809189 0.536739 0.226932
C82   C     C_R   0.809313 0.605399 0.537036 0.224822
C83   C     C_R   0.605616 0.809408 0.463579 0.225189
C84   C     C_R   0.190811 0.605676 0.463261 0.226933
C85   C     C_R   0.394601 0.190687 0.462965 0.224824
C86   C     C_R   0.809162 0.394429 0.463208 0.224490
C87   C     C_R   0.105571 0.690838 0.036792 0.224490
C88   C     C_R   0.690592 0.894384 0.036422 0.225185
C89   C     C_R   0.894324 0.309189 0.036739 0.226933
C90   C     C_R   0.786829 0.843587 0.040365 -0.271329
C91   C     C_R   0.309313 0.105399 0.037036 0.224820
C92   C     C_R   0.105616 0.309408 0.963578 0.225187
C93   C     C_R   0.690811 0.105676 0.963261 0.226933
C94   C     C_R   0.894600 0.690687 0.962964 0.224822
C95   C     C_R   0.309162 0.894429 0.963208 0.224491
C96   C     C_R   0.659692 0.224998 0.536809 -0.162531
C97   C     C_R   0.224410 0.340125 0.536001 -0.163313
C98   C     C_R   0.340139 0.775077 0.536634 -0.198714
C99   C     C_R   0.775143 0.659457 0.537233 -0.162203
C100  C     C_R   0.659875 0.775591 0.464000 -0.163312
C101  C     C_R   0.843830 0.212665 0.040960 -0.242513
C102  C     C_R   0.224922 0.659860 0.463367 -0.198714
C103  C     C_R   0.340543 0.224856 0.462768 -0.162203
C104  C     C_R   0.775002 0.340308 0.463191 -0.162532
C105  C     C_R   0.159692 0.724998 0.036809 -0.162531
C106  C     C_R   0.724410 0.840125 0.036001 -0.163312
C107  C     C_R   0.840140 0.275077 0.036633 -0.198713
C108  C     C_R   0.275143 0.159457 0.037233 -0.162203
C109  C     C_R   0.159875 0.275591 0.964000 -0.163312
C110  C     C_R   0.724922 0.159860 0.963367 -0.198714
C111  C     C_R   0.840543 0.724857 0.962768 -0.162203
C112  C     C_R   0.120089 0.500021 0.499968 0.873443
C113  C     C_R   0.212815 0.155552 0.042047 -0.274454
C114  C     C_R   0.275002 0.840308 0.963192 -0.162531
C115  C     C_3   0.604365 0.141330 0.572084 -0.360894
C116  C     C_3   0.654478 0.092869 0.565448 -0.783113
C117  C     C_3   0.141433 0.395603 0.571978 -0.359057
C118  C     C_3   0.092773 0.345552 0.565544 -0.784780
C119  C     C_3   0.395486 0.858724 0.572027 -0.362280
C120  C     C_3   0.345418 0.907211 0.565330 -0.776771
C121  C     C_3   0.858997 0.604214 0.572207 -0.361441
C122  C     C_3   0.907435 0.654408 0.565500 -0.781740
C123  C     C_3   0.604397 0.858566 0.428022 -0.359060
C124  C     C_R   0.156413 0.213171 0.959635 -0.271328
C125  C     C_3   0.654447 0.907227 0.434455 -0.784782
C126  C     C_3   0.141277 0.604514 0.427973 -0.362280
C127  C     C_3   0.092789 0.654582 0.434670 -0.776772
C128  C     C_3   0.395786 0.141004 0.427793 -0.361443
C129  C     C_3   0.345593 0.092566 0.434498 -0.781740
C130  C     C_3   0.858669 0.395635 0.427916 -0.360895
C131  C     C_3   0.907131 0.345522 0.434551 -0.783115
C132  C     C_3   0.104365 0.641331 0.072084 -0.360895
C133  C     C_3   0.154478 0.592869 0.065448 -0.783113
C134  C     C_3   0.641432 0.895602 0.071978 -0.359057
C135  C     C_R   0.787335 0.156170 0.959040 -0.242513
C136  C     C_3   0.592772 0.845551 0.065543 -0.784780
C137  C     C_3   0.895486 0.358723 0.072027 -0.362280
C138  C     C_3   0.845418 0.407211 0.065330 -0.776771
C139  C     C_3   0.358998 0.104215 0.072206 -0.361438
C140  C     C_3   0.407435 0.154409 0.065499 -0.781740
C141  C     C_3   0.104397 0.358566 0.928022 -0.359059
C142  C     C_3   0.154448 0.407227 0.934456 -0.784780
C143  C     C_3   0.641277 0.104513 0.927973 -0.362279
C144  C     C_3   0.592789 0.154581 0.934669 -0.776773
C145  C     C_3   0.895786 0.641003 0.927793 -0.361440
C146  C     C_R   0.844448 0.787185 0.957954 -0.274453
C147  C     C_3   0.845592 0.592565 0.934499 -0.781739
C148  C     C_3   0.358669 0.895635 0.927916 -0.360895
C149  C     C_3   0.407131 0.845522 0.934551 -0.783113
C150  C     C_2   0.589405 0.356334 0.580492 1.020584
C151  C     C_2   0.356509 0.409234 0.579562 1.020507
C152  C     C_2   0.408871 0.642588 0.579292 0.953944
C153  C     C_2   0.643803 0.588822 0.580910 1.020617
C154  C     C_2   0.590766 0.643491 0.420439 1.020504
C155  C     C_2   0.357412 0.591130 0.420708 0.953943
C156  C     C_2   0.411177 0.356197 0.419091 1.020616
C157  C     C_R   0.212630 0.844080 0.958575 -0.272535
C158  C     C_2   0.643666 0.410595 0.419508 1.020583
C159  C     C_2   0.089405 0.856334 0.080492 1.020584
C160  C     C_2   0.856509 0.909234 0.079562 1.020507
C161  C     C_2   0.908871 0.142588 0.079292 0.953944
C162  C     C_2   0.143803 0.088822 0.080910 1.020618
C163  C     C_2   0.090766 0.143491 0.920439 1.020505
C164  C     C_2   0.857412 0.091129 0.920708 0.953944
C165  C     C_2   0.911177 0.856197 0.919091 1.020616
C166  C     C_2   0.143666 0.910595 0.919508 1.020585
C167  C     C_R   0.598616 0.314661 0.542131 -0.184407
C168  C     C_R   0.314489 0.400762 0.541309 -0.184652
C169  C     C_R   0.401041 0.685408 0.541738 -0.060879
C170  C     C_R   0.685507 0.598222 0.542602 -0.185196
C171  C     C_R   0.599239 0.685511 0.458691 -0.184653
C172  C     C_R   0.499978 0.879910 0.500032 0.873442
C173  C     C_R   0.314592 0.598959 0.458263 -0.060880
C174  C     C_R   0.401778 0.314492 0.457399 -0.185197
C175  C     C_R   0.685339 0.401384 0.457869 -0.184406
C176  C     C_R   0.098616 0.814660 0.042131 -0.184406
C177  C     C_R   0.814489 0.900762 0.041309 -0.184652
C178  C     C_R   0.901041 0.185408 0.041737 -0.060879
C179  C     C_R   0.185507 0.098221 0.042602 -0.185196
C180  C     C_R   0.099239 0.185511 0.958691 -0.184653
C181  C     C_R   0.814592 0.098959 0.958263 -0.060879
C182  C     C_R   0.901778 0.814493 0.957399 -0.185197
C183  C     C_R   0.879913 0.499980 0.500016 0.873834
C184  C     C_R   0.185340 0.901384 0.957869 -0.184406
C185  C     C_R   0.548819 0.283299 0.521053 0.028446
C186  C     C_R   0.283243 0.450977 0.520716 0.023665
C187  C     C_R   0.451140 0.716693 0.521053 0.019285
C188  C     C_R   0.716783 0.548552 0.521356 0.026595
C189  C     C_R   0.549023 0.716757 0.479285 0.023665
C190  C     C_R   0.283307 0.548860 0.478947 0.019285
C191  C     C_R   0.451447 0.283217 0.478645 0.026595
C192  C     C_R   0.716701 0.451181 0.478947 0.028447
C193  C     C_R   0.048819 0.783299 0.021053 0.028446
C194  C     C_R   0.000019 0.620087 0.999984 0.873834
C195  C     C_R   0.783243 0.950977 0.020716 0.023665
C196  C     C_R   0.951140 0.216693 0.021053 0.019285
C197  C     C_R   0.216783 0.048552 0.021356 0.026595
C198  C     C_R   0.049023 0.216757 0.979284 0.023666
C199  C     C_R   0.783307 0.048860 0.978947 0.019285
C200  C     C_R   0.951447 0.783217 0.978644 0.026595
C201  C     C_R   0.216701 0.951181 0.978947 0.028446
C202  C     C_R   0.551029 0.218948 0.519134 0.019477
C203  C     C_R   0.218875 0.448937 0.518909 0.019542
C204  C     C_R   0.448933 0.781052 0.519173 0.014083
C205  C     C_R   0.620089 0.000021 0.999968 0.873443
C206  C     C_R   0.781131 0.550844 0.519366 0.019782
C207  C     C_R   0.551063 0.781125 0.481092 0.019540
C208  C     C_R   0.218948 0.551067 0.480827 0.014083
C209  C     C_R   0.449155 0.218869 0.480635 0.019781
C210  C     C_R   0.781052 0.448971 0.480867 0.019476
C211  C     C_R   0.051029 0.718948 0.019133 0.019476
C212  C     C_R   0.718875 0.948937 0.018909 0.019543
C213  C     C_R   0.948933 0.281052 0.019173 0.014083
C214  C     C_R   0.281131 0.050844 0.019366 0.019783
C215  C     C_R   0.051063 0.281125 0.981091 0.019541
C216  C     C_R   0.999979 0.379910 0.000032 0.873442
C217  C     C_R   0.718948 0.051067 0.980827 0.014082
C218  C     C_R   0.949155 0.718869 0.980634 0.019782
C219  C     C_R   0.281052 0.948971 0.980867 0.019476
C220  C     C_R   0.500100 0.314493 0.499903 -0.155032
C221  C     C_R   0.314513 0.500007 0.499946 -0.112808
C222  C     C_R   0.499993 0.685487 0.500054 -0.112807
C223  C     C_R   0.685507 0.499900 0.500097 -0.155033
C224  C     C_R   0.000100 0.814493 0.999903 -0.155033
C225  C     C_R   0.814513 0.000007 0.999946 -0.112808
C226  C     C_R   0.999993 0.185487 0.000054 -0.112808
C227  C     C_R   0.379913 0.999981 0.000017 0.873835
C228  C     C_R   0.185507 0.999900 0.000097 -0.155033
C229  C     C_R   0.500063 0.186641 0.499924 -0.215340
C230  C     C_R   0.186651 0.500037 0.499913 -0.209390
C231  C     C_R   0.499963 0.813348 0.500087 -0.209390
C232  C     C_R   0.813359 0.499937 0.500077 -0.215339
C233  C     C_R   0.000063 0.686641 0.999923 -0.215340
C234  C     C_R   0.686651 0.000037 0.999914 -0.209390
C235  C     C_R   0.999963 0.313348 0.000087 -0.209390
C236  C     C_R   0.313359 0.999937 0.000077 -0.215339
C237  C     C_R   0.380274 0.500038 0.499994 0.807553
C238  C     C_R   0.655920 0.287370 0.541425 -0.272534
C239  C     C_R   0.499962 0.619726 0.500006 0.807554
C240  C     C_R   0.619729 0.499963 0.500019 0.780724
C241  C     C_R   0.500037 0.380271 0.499981 0.780724
C242  C     C_R   0.880274 0.000038 0.999994 0.807553
C243  C     C_R   0.999962 0.119726 0.000006 0.807554
C244  C     C_R   0.119729 0.999963 0.000019 0.780724
C245  C     C_R   0.000037 0.880271 0.999981 0.780724
C246  C     C_R   0.500006 0.000002 0.586725 0.876721
C247  C     C_R   0.000059 0.500009 0.586726 0.877417
C248  C     C_R   0.499991 0.999941 0.413274 0.877419
H1    H     H_    0.566423 0.072166 0.859984 0.145495
H2    H     H_    0.571953 0.933356 0.359961 0.145507
H3    H     H_    0.946106 0.352529 0.411755 0.249685
H4    H     H_    0.924387 0.344657 0.469134 0.270299
H5    H     H_    0.888325 0.299873 0.426409 0.212946
H6    H     H_    0.836641 0.387616 0.395169 0.185329
H7    H     H_    0.879682 0.441304 0.424687 0.199034
H8    H     H_    0.147471 0.553894 0.088244 0.249685
H9    H     H_    0.155343 0.575613 0.030866 0.270299
H10   H     H_    0.200127 0.611674 0.073591 0.212945
H11   H     H_    0.112384 0.663359 0.104831 0.185329
H12   H     H_    0.058696 0.620318 0.075313 0.199033
H13   H     H_    0.933549 0.427838 0.359923 0.145580
H14   H     H_    0.575292 0.844656 0.031018 0.270377
H15   H     H_    0.611500 0.799894 0.073654 0.213452
H16   H     H_    0.553957 0.852653 0.088458 0.249736
H17   H     H_    0.663756 0.887549 0.104606 0.185731
H18   H     H_    0.620535 0.941284 0.075316 0.199107
H19   H     H_    0.852420 0.446189 0.088146 0.248647
H20   H     H_    0.844628 0.424453 0.030750 0.270199
H21   H     H_    0.799743 0.388437 0.073405 0.213020
H22   H     H_    0.887400 0.336724 0.104763 0.183719
H23   H     H_    0.941163 0.379711 0.075306 0.198115
H24   H     H_    0.427865 0.066260 0.359927 0.145670
H25   H     H_    0.424564 0.155307 0.030891 0.270131
H26   H     H_    0.388669 0.200030 0.073674 0.213037
H27   H     H_    0.446492 0.147469 0.088239 0.249889
H28   H     H_    0.337137 0.112162 0.105009 0.185280
H29   H     H_    0.379996 0.058565 0.075355 0.198943
H30   H     H_    0.155343 0.424709 0.968980 0.270377
H31   H     H_    0.200105 0.388499 0.926344 0.213453
H32   H     H_    0.147345 0.446041 0.911540 0.249737
H33   H     H_    0.112449 0.336241 0.895394 0.185732
H34   H     H_    0.058715 0.379464 0.924684 0.199106
H35   H     H_    0.066639 0.428042 0.640039 0.145510
H36   H     H_    0.553811 0.147579 0.911853 0.248647
H37   H     H_    0.575546 0.155372 0.969250 0.270199
H38   H     H_    0.611563 0.200257 0.926594 0.213020
H39   H     H_    0.663276 0.112599 0.895237 0.183719
H40   H     H_    0.620289 0.058837 0.924694 0.198115
H41   H     H_    0.844694 0.575435 0.969107 0.270131
H42   H     H_    0.799971 0.611332 0.926325 0.213038
H43   H     H_    0.852532 0.553510 0.911758 0.249890
H44   H     H_    0.887839 0.662865 0.894991 0.185281
H45   H     H_    0.941436 0.620005 0.924645 0.198942
H46   H     H_    0.572163 0.066450 0.640077 0.145581
H47   H     H_    0.446106 0.852530 0.911755 0.249685
H48   H     H_    0.424387 0.844657 0.969134 0.270299
H49   H     H_    0.388325 0.799873 0.926409 0.212946
H50   H     H_    0.336640 0.887616 0.895169 0.185329
H51   H     H_    0.379682 0.941304 0.924687 0.199033
H52   H     H_    0.664418 0.407641 0.567798 0.299758
H53   H     H_    0.407181 0.334100 0.566152 0.299099
H54   H     H_    0.373346 0.574090 0.615720 0.375553
H55   H     H_    0.592429 0.663718 0.568224 0.297453
H56   H     H_    0.665901 0.592819 0.433849 0.299098
H57   H     H_    0.933745 0.572139 0.640073 0.145673
H58   H     H_    0.425910 0.626655 0.384281 0.375553
H59   H     H_    0.336281 0.407570 0.431777 0.297453
H60   H     H_    0.592359 0.335582 0.432202 0.299757
H61   H     H_    0.164418 0.907641 0.067798 0.299758
H62   H     H_    0.907181 0.834100 0.066152 0.299098
H63   H     H_    0.873346 0.074090 0.115720 0.375553
H64   H     H_    0.092429 0.163717 0.068224 0.297453
H65   H     H_    0.165901 0.092819 0.933849 0.299097
H66   H     H_    0.925910 0.126654 0.884281 0.375553
H67   H     H_    0.836281 0.907570 0.931777 0.297452
H68   H     H_    0.427832 0.933579 0.640016 0.145496
H69   H     H_    0.092359 0.835582 0.932202 0.299758
H70   H     H_    0.391783 0.889610 0.790584 0.153241
H71   H     H_    0.889719 0.608043 0.790632 0.153647
H72   H     H_    0.608213 0.110384 0.790687 0.152959
H73   H     H_    0.071957 0.433359 0.859961 0.145510
H74   H     H_    0.110289 0.391745 0.790638 0.153469
H75   H     H_    0.391964 0.110288 0.209368 0.153647
H76   H     H_    0.889615 0.391788 0.209313 0.152959
H77   H     H_    0.608247 0.889703 0.209362 0.153469
H78   H     H_    0.110391 0.608216 0.209416 0.153241
H79   H     H_    0.891784 0.389609 0.290584 0.153241
H80   H     H_    0.389725 0.108049 0.290632 0.153647
H81   H     H_    0.108212 0.610385 0.290687 0.152959
H82   H     H_    0.610283 0.891739 0.290638 0.153469
H83   H     H_    0.891959 0.610282 0.709368 0.153647
H84   H     H_    0.433548 0.927839 0.859923 0.145580
H85   H     H_    0.389613 0.891789 0.709313 0.152959
H86   H     H_    0.108253 0.389709 0.709362 0.153469
H87   H     H_    0.610393 0.108214 0.709416 0.153241
H88   H     H_    0.297036 0.204180 0.454956 0.153883
H89   H     H_    0.204280 0.703359 0.455598 0.158513
H90   H     H_    0.703353 0.796444 0.456377 0.153860
H91   H     H_    0.795652 0.296813 0.455406 0.153661
H92   H     H_    0.296641 0.795719 0.544402 0.158514
H93   H     H_    0.203557 0.296647 0.543624 0.153860
H94   H     H_    0.703187 0.204348 0.544594 0.153661
H95   H     H_    0.927862 0.566256 0.859927 0.145672
H96   H     H_    0.795820 0.702964 0.545045 0.153883
H97   H     H_    0.797035 0.704180 0.954955 0.153883
H98   H     H_    0.704280 0.203359 0.955598 0.158513
H99   H     H_    0.203353 0.296443 0.956376 0.153860
H100  H     H_    0.295652 0.796813 0.955407 0.153661
H101  H     H_    0.796641 0.295719 0.044402 0.158513
H102  H     H_    0.703557 0.796647 0.043625 0.153860
H103  H     H_    0.203187 0.704348 0.044594 0.153661
H104  H     H_    0.295819 0.202964 0.045046 0.153883
H105  H     H_    0.696088 0.311187 0.553286 0.170229
H106  H     H_    0.566635 0.928039 0.140039 0.145511
H107  H     H_    0.310469 0.303184 0.551907 0.170785
H108  H     H_    0.303706 0.688321 0.552435 0.199776
H109  H     H_    0.689059 0.695616 0.554086 0.170355
H110  H     H_    0.696816 0.689531 0.448094 0.170785
H111  H     H_    0.311679 0.696295 0.447565 0.199776
H112  H     H_    0.304383 0.310940 0.445915 0.170355
H113  H     H_    0.688813 0.303912 0.446714 0.170229
H114  H     H_    0.196088 0.811187 0.053286 0.170229
H115  H     H_    0.810470 0.803184 0.051907 0.170784
H116  H     H_    0.803706 0.188321 0.052435 0.199776
H117  H     H_    0.072162 0.566451 0.140077 0.145580
H118  H     H_    0.189059 0.195616 0.054086 0.170354
H119  H     H_    0.196816 0.189531 0.948094 0.170784
H120  H     H_    0.811679 0.196294 0.947565 0.199776
H121  H     H_    0.804383 0.810940 0.945915 0.170354
H122  H     H_    0.188813 0.803912 0.946714 0.170230
H123  H     H_    0.647471 0.053894 0.588244 0.249685
H124  H     H_    0.655343 0.075613 0.530865 0.270299
H125  H     H_    0.700127 0.111674 0.573590 0.212945
H126  H     H_    0.612385 0.163358 0.604831 0.185329
H127  H     H_    0.558696 0.120317 0.575313 0.199033
H128  H     H_    0.433749 0.072143 0.140073 0.145674
H129  H     H_    0.075291 0.344657 0.531019 0.270377
H130  H     H_    0.111500 0.299894 0.573655 0.213453
H131  H     H_    0.053958 0.352654 0.588460 0.249737
H132  H     H_    0.163758 0.387550 0.604606 0.185731
H133  H     H_    0.120536 0.441285 0.575316 0.199106
H134  H     H_    0.352420 0.946189 0.588146 0.248647
H135  H     H_    0.344628 0.924453 0.530749 0.270199
H136  H     H_    0.299743 0.888437 0.573405 0.213019
H137  H     H_    0.387400 0.836725 0.604763 0.183718
H138  H     H_    0.441162 0.879712 0.575306 0.198115
H139  H     H_    0.927833 0.433578 0.140016 0.145496
H140  H     H_    0.924565 0.655306 0.530892 0.270131
H141  H     H_    0.888668 0.700029 0.573675 0.213038
H142  H     H_    0.946490 0.647468 0.588241 0.249890
H143  H     H_    0.837135 0.612161 0.605009 0.185281
H144  H     H_    0.879995 0.558564 0.575355 0.198942
H145  H     H_    0.655342 0.924709 0.468979 0.270378
H146  H     H_    0.700105 0.888499 0.426344 0.213454
H147  H     H_    0.647344 0.946040 0.411538 0.249738
H148  H     H_    0.612448 0.836240 0.395394 0.185733
H149  H     H_    0.558714 0.879463 0.424684 0.199105
H150  H     H_    0.066422 0.572167 0.359984 0.145496
H151  H     H_    0.053811 0.647580 0.411853 0.248647
H152  H     H_    0.075547 0.655372 0.469250 0.270199
H153  H     H_    0.111563 0.700257 0.426595 0.213020
H154  H     H_    0.163276 0.612600 0.395237 0.183719
H155  H     H_    0.120289 0.558837 0.424694 0.198115
H156  H     H_    0.344694 0.075434 0.469106 0.270132
H157  H     H_    0.299972 0.111332 0.426324 0.213039
H158  H     H_    0.352533 0.053511 0.411757 0.249891
H159  H     H_    0.387840 0.162867 0.394991 0.185282
H160  H     H_    0.441437 0.120006 0.424645 0.198941
O1    O     O_R   0.448270 0.091550 0.500010 -0.613155
O2    O     O_R   0.591550 0.051730 0.000010 -0.611265
O3    O     O_R   0.051730 0.408450 0.000010 -0.614166
O4    O     O_R   0.408450 0.948270 0.000010 -0.613085
O5    O     O_R   0.948270 0.408450 0.999990 -0.611264
O6    O     O_R   0.591550 0.948270 0.999990 -0.614166
O7    O     O_R   0.051730 0.591550 0.999990 -0.613085
O8    O     O_R   0.408450 0.051730 0.999990 -0.613154
O9    O     O_R   0.448260 0.999910 0.566090 -0.625066
O10   O     O_R   0.999910 0.551740 0.566090 -0.624634
O11   O     O_R   0.551740 0.000090 0.566090 -0.625030
O12   O     O_R   0.091550 0.551730 0.500010 -0.611265
O13   O     O_R   0.000090 0.448260 0.566090 -0.624926
O14   O     O_R   0.448260 0.000090 0.433910 -0.624633
O15   O     O_R   0.999910 0.448260 0.433910 -0.625030
O16   O     O_R   0.551740 0.999910 0.433910 -0.624925
O17   O     O_R   0.000090 0.551740 0.433910 -0.625065
O18   O     O_R   0.948260 0.499910 0.066090 -0.625066
O19   O     O_R   0.499910 0.051740 0.066090 -0.624634
O20   O     O_R   0.051740 0.500090 0.066090 -0.625030
O21   O     O_R   0.500090 0.948260 0.066090 -0.624927
O22   O     O_R   0.948260 0.500090 0.933910 -0.624633
O23   O     O_R   0.551730 0.908450 0.500010 -0.614166
O24   O     O_R   0.499910 0.948260 0.933910 -0.625029
O25   O     O_R   0.051740 0.499910 0.933910 -0.624926
O26   O     O_R   0.500090 0.051740 0.933910 -0.625065
O27   O     O_R   0.408410 0.499950 0.462690 -0.593579
O28   O     O_R   0.499950 0.591590 0.462690 -0.588021
O29   O     O_R   0.591590 0.500050 0.462690 -0.585682
O30   O     O_R   0.500050 0.408410 0.462690 -0.586548
O31   O     O_R   0.408410 0.500050 0.537310 -0.588021
O32   O     O_R   0.499950 0.408410 0.537310 -0.585682
O33   O     O_R   0.591590 0.499950 0.537310 -0.586549
O34   O     O_R   0.908450 0.448270 0.500010 -0.613085
O35   O     O_R   0.500050 0.591590 0.537310 -0.593581
O36   O     O_R   0.908410 0.999950 0.962690 -0.593579
O37   O     O_R   0.999950 0.091590 0.962690 -0.588021
O38   O     O_R   0.091590 0.000050 0.962690 -0.585682
O39   O     O_R   0.000050 0.908410 0.962690 -0.586548
O40   O     O_R   0.908410 0.000050 0.037310 -0.588021
O41   O     O_R   0.999950 0.908410 0.037310 -0.585683
O42   O     O_R   0.091590 0.999950 0.037310 -0.586549
O43   O     O_R   0.000050 0.091590 0.037310 -0.593581
O44   O     O_2   0.546216 0.347877 0.605388 -0.519554
O45   O     O_R   0.448270 0.908450 0.499990 -0.611264
O46   O     O_R   0.631235 0.402466 0.590846 -0.724168
O47   O     O_2   0.348313 0.451925 0.604939 -0.558887
O48   O     O_R   0.402427 0.367034 0.589435 -0.725050
O49   O     O_2   0.452150 0.648645 0.604603 -0.567108
O50   O     O_R   0.363981 0.598856 0.588150 -0.788943
O51   O     O_2   0.652237 0.545566 0.605739 -0.519798
O52   O     O_R   0.597602 0.630505 0.591249 -0.726107
O53   O     O_2   0.548075 0.651687 0.395061 -0.558886
O54   O     O_R   0.632967 0.597573 0.410565 -0.725050
O55   O     O_2   0.351355 0.547850 0.395397 -0.567107
O56   O     O_R   0.091550 0.448270 0.499990 -0.614166
O57   O     O_R   0.401144 0.636019 0.411851 -0.788944
O58   O     O_2   0.454433 0.347763 0.394262 -0.519798
O59   O     O_R   0.369494 0.402398 0.408751 -0.726108
O60   O     O_2   0.652123 0.453784 0.394612 -0.519554
O61   O     O_R   0.597534 0.368765 0.409154 -0.724169
O62   O     O_2   0.046216 0.847877 0.105388 -0.519554
O63   O     O_R   0.131235 0.902466 0.090846 -0.724168
O64   O     O_2   0.848313 0.951926 0.104939 -0.558886
O65   O     O_R   0.902427 0.867034 0.089436 -0.725050
O66   O     O_2   0.952150 0.148645 0.104603 -0.567108
O67   O     O_R   0.551730 0.091550 0.499990 -0.613085
O68   O     O_R   0.863981 0.098856 0.088150 -0.788943
O69   O     O_2   0.152237 0.045566 0.105739 -0.519798
O70   O     O_R   0.097602 0.130505 0.091250 -0.726108
O71   O     O_2   0.048075 0.151687 0.895061 -0.558887
O72   O     O_R   0.132967 0.097573 0.910565 -0.725050
O73   O     O_2   0.851355 0.047850 0.895397 -0.567107
O74   O     O_R   0.901144 0.136019 0.911851 -0.788944
O75   O     O_2   0.954433 0.847763 0.894262 -0.519797
O76   O     O_R   0.869494 0.902398 0.908751 -0.726107
O77   O     O_2   0.152123 0.953784 0.894612 -0.519555
O78   O     O_R   0.908450 0.551730 0.499990 -0.613154
O79   O     O_R   0.097534 0.868765 0.909154 -0.724170
O80   O     O_R   0.948270 0.591550 0.000010 -0.613155
Zn1   Zn    Zn3+2 0.430920 1.000000 0.500000 0.908574
Zn2   Zn    Zn3+2 0.500000 0.500000 0.549800 1.152597
Zn3   Zn    Zn3+2 0.000000 0.000000 0.950200 1.152597
Zn4   Zn    Zn3+2 0.000000 1.000000 0.049800 1.152597
Zn5   Zn    Zn3+2 1.000000 0.569080 0.500000 0.908574
Zn6   Zn    Zn3+2 0.569080 1.000000 0.500000 0.907091
Zn7   Zn    Zn3+2 1.000000 0.430920 0.500000 0.907091
Zn8   Zn    Zn3+2 0.930920 0.500000 0.000000 0.908574
Zn9   Zn    Zn3+2 0.500000 0.069080 0.000000 0.908574
Zn10  Zn    Zn3+2 0.069080 0.500000 0.000000 0.907091
Zn11  Zn    Zn3+2 0.500000 0.930920 0.000000 0.907090
Zn12  Zn    Zn3+2 0.500000 0.500000 0.450200 1.152598

loop_
_geom_bond_atom_site_label_1
_geom_bond_atom_site_label_2
_ccdc_geom_bond_type
C101  C107  A    
C148  H50   S    
C129  H157  S    
C126  C127  S    
C200  C218  A    
C78   C115  S    
C162  O69   D    
C205  O6    A    
C244  O42   A    
C18   C47   A    
C237  O31   A    
C41   C67   A    
C147  H43   S    
C1    O1    A    
C49   C60   A    
C50   C59   A    
C247  O10   A    
C194  O7    A    
C115  H127  S    
C92   C109  A    
C193  C211  A    
C242  O40   A    
O39   Zn3   S    
C143  C144  S    
C167  C185  A    
C94   C111  A    
C8    C26   A    
C103  H88   S    
C133  H8    S    
C36   C53   A    
C4    O20   A    
C98   H92   S    
C151  O48   S    
C167  C238  A    
C45   C56   A    
C78   C96   A    
C95   C219  A    
C120  H136  S    
O8    Zn9   S    
C241  O30   A    
C85   C103  A    
C174  C191  A    
C94   C145  S    
O25   Zn10  S    
C90   C177  A    
C71   H80   S    
H61   O63   S    
C7    O24   A    
C17   C30   A    
C39   C65   A    
C36   C62   A    
C37   C63   A    
C38   C64   A    
C127  H152  S    
C84   C126  S    
C239  O28   A    
C154  O53   D    
C63   H72   S    
C48   C74   A    
C166  C184  S    
C169  C187  A    
C152  O49   D    
C164  O74   S    
C225  C242  S    
C187  C204  A    
C34   C61   A    
C221  C237  S    
C185  C202  A    
C114  C157  A    
O22   Zn8   S    
C42   C55   A    
C73   H82   S    
C239  O35   A    
C228  C244  S    
C11   C27   A    
C137  H22   S    
C40   C55   A    
C156  C174  S    
C126  H154  S    
C96   H94   S    
C33   C246  S    
C125  H147  S    
C15   C39   A    
C16   C40   A    
C130  H6    S    
C133  H10   S    
C113  C179  A    
C186  C221  A    
C127  H153  S    
C83   C100  A    
C161  O68   S    
C15   C28   A    
C160  O64   D    
O67   Zn6   S    
C147  H41   S    
O18   Zn8   S    
C80   C117  S    
C177  C195  A    
C10   H84   S    
C139  H29   S    
C192  C223  A    
O42   Zn4   S    
C65   H75   S    
C238  H105  S    
C85   C209  A    
C212  C234  A    
C139  C140  S    
C131  H5    S    
C246  O9    A    
H63   O68   S    
C109  H99   S    
C187  C222  A    
C220  C241  S    
C81   C119  S    
C12   H106  S    
C130  C131  S    
C21   H35   S    
C161  O66   D    
C152  O50   S    
C66   C70   A    
C38   C53   A    
C113  H118  S    
H69   O79   S    
O6    Zn11  S    
C246  O11   A    
C141  H34   S    
C241  O32   A    
C180  C198  A    
C88   C212  A    
H56   O54   S    
C216  C235  S    
C18   C31   A    
C213  C235  A    
C19   C30   A    
O30   Zn12  S    
C197  C214  A    
C198  C226  A    
C7    O26   A    
C67   H77   S    
C118  H129  S    
C62   H71   S    
C80   C97   A    
C84   C102  A    
C128  H159  S    
C86   C104  A    
C128  C129  S    
C137  H23   S    
C116  H123  S    
C172  O45   A    
C132  H12   S    
C149  H48   S    
C100  H90   S    
C145  H44   S    
C17   C45   A    
C39   C54   A    
C138  H19   S    
C115  C116  S    
C216  O3    A    
C222  C239  S    
C92   C215  A    
C93   C217  A    
C83   C207  A    
C164  C181  S    
C52   C60   A    
C193  C224  A    
C153  C170  S    
C49   C75   A    
C157  C184  A    
C163  O71   D    
C176  C193  A    
C24   C170  A    
C237  O27   A    
C134  H17   S    
C13   C169  A    
O27   Zn12  S    
C136  H15   S    
C5    O21   A    
C20   C44   A    
C131  H3    S    
C81   C204  A    
O28   Zn12  S    
C121  H144  S    
O13   Zn7   S    
C168  C186  A    
C195  C225  A    
C144  H38   S    
C194  O80   A    
C135  H120  S    
C2    C97   A    
C111  C146  A    
C142  H32   S    
C175  C192  A    
C37   C52   A    
C243  O43   A    
C189  C222  A    
C86   C130  S    
C178  C196  A    
C150  O46   S    
C211  C233  A    
C140  H25   S    
C69   C72   A    
C66   H76   S    
C166  O79   S    
O4    Zn11  S    
C84   C208  A    
C87   C105  A    
C126  H155  S    
C155  C173  S    
C97   H93   S    
C158  O61   S    
C92   C141  S    
O11   Zn6   S    
C191  C209  A    
C202  C229  A    
C146  H121  S    
C155  O55   D    
C159  C176  S    
O24   Zn11  S    
C31   C248  S    
C135  C181  A    
C14   C29   A    
C35   C100  A    
C181  C199  A    
C2    C168  A    
C82   C206  A    
C119  H138  S    
C116  H125  S    
C48   C59   A    
C129  H156  S    
C184  C201  A    
O7    Zn10  S    
C105  H103  S    
C96   C238  A    
C79   C176  A    
C214  C236  A    
C162  O70   S    
C218  C233  A    
C107  H101  S    
C191  C220  A    
C203  C230  A    
C25   H68   S    
O23   Zn6   S    
C86   C210  A    
C93   C110  A    
C172  O23   A    
C153  O52   S    
C88   C134  S    
C195  C212  A    
C117  C118  S    
C13   H108  S    
C149  H49   S    
C122  H140  S    
C9    C38   A    
C154  C171  S    
C77   H87   S    
C108  H104  S    
C74   H83   S    
O34   Zn7   S    
C197  C228  A    
H59   O59   S    
C158  C175  S    
C143  H40   S    
O9    Zn1   S    
C112  O56   A    
C170  C188  A    
O80   Zn8   S    
C210  C232  A    
C3    O17   A    
C85   C128  S    
C51   C60   A    
C141  H33   S    
C123  H148  S    
C138  H21   S    
C165  O76   S    
C25   C33   A    
C17   H150  S    
C55   C56   A    
C122  H141  S    
C143  H39   S    
C185  C220  A    
C35   C171  A    
C82   C99   A    
C160  O65   S    
C199  C217  A    
C142  H30   S    
C186  C203  A    
C5    O19   A    
C127  H151  S    
C227  O8    A    
H53   O48   S    
C227  C236  S    
C183  O78   A    
C150  O44   D    
C154  O54   S    
C12   C28   A    
C165  C182  S    
C140  H27   S    
C205  C234  S    
C166  O77   D    
C63   C77   A    
C110  H98   S    
C123  C125  S    
C81   C98   A    
C95   C114  A    
C173  C190  A    
C112  C230  S    
C240  O33   A    
C124  H119  S    
C68   C175  A    
H58   O57   S    
C44   C58   A    
C157  H122  S    
C67   C73   A    
C125  H146  S    
O41   Zn4   S    
C4    C29   S    
H66   O74   S    
O29   Zn12  S    
C118  H131  S    
O26   Zn9   S    
C130  H7    S    
O14   Zn1   S    
C133  H9    S    
O2    Zn9   S    
C129  H158  S    
C40   C66   A    
C87   C211  A    
C198  C215  A    
C145  C147  S    
C172  C231  S    
C19   C43   A    
C69   H78   S    
C57   C103  A    
C9    H73   S    
C146  C182  A    
C32   C247  S    
C206  C232  A    
C182  C200  A    
C248  O16   A    
C1    O67   A    
C244  O38   A    
O16   Zn6   S    
C47   C73   A    
C136  H14   S    
C61   C75   A    
C90   C106  A    
C14   H117  S    
C51   C77   A    
C102  H89   S    
C12   C41   A    
C46   C102  A    
O21   Zn11  S    
C35   H110  S    
C89   C107  A    
C120  H135  S    
C3    O15   A    
C106  H102  S    
C188  C206  A    
H67   O76   S    
C7    C26   S    
C201  C219  A    
C121  C122  S    
C91   C139  S    
C76   H86   S    
C90   H115  S    
C89   C137  S    
C23   H57   S    
C245  O41   A    
C8    C37   A    
C194  C233  S    
C22   H46   S    
C15   H128  S    
C9    C27   A    
C89   C213  A    
C24   H109  S    
C118  H130  S    
C134  H18   S    
C16   H139  S    
C111  H97   S    
C91   C108  A    
C128  H160  S    
C68   C104  A    
C11   H95   S    
C217  C234  A    
C119  C120  S    
C116  H124  S    
C164  O73   D    
C34   C52   A    
C149  H47   S    
C23   C32   A    
C204  C231  A    
C159  O62   D    
C156  O59   S    
C152  C169  S    
C226  C243  S    
C138  H20   S    
C189  C207  A    
C150  C167  S    
C112  O12   A    
C25   C49   A    
C160  C177  S    
O31   Zn2   S    
C248  O14   A    
C57   C174  A    
C80   C203  A    
O3    Zn10  S    
C148  H51   S    
C242  O36   A    
C183  O34   A    
O12   Zn5   S    
C62   C74   A    
O38   Zn3   S    
C6    O22   A    
C83   C123  S    
C161  C178  S    
C147  H42   S    
C64   H74   S    
C108  C113  A    
C201  C228  A    
H52   O46   S    
C136  H16   S    
C24   C99   A    
C247  O13   A    
C115  H126  S    
C123  H149  S    
C53   C59   A    
C121  H143  S    
C75   H85   S    
C79   C105  A    
C240  O29   A    
C11   C36   A    
C2    H107  S    
C91   C214  A    
C50   C76   A    
C223  C240  S    
C6    O25   A    
O15   Zn7   S    
C68   H113  S    
C151  C168  S    
C94   C218  A    
C171  C189  A    
C44   C71   A    
C140  H26   S    
C13   C98   A    
C57   H112  S    
H60   O61   S    
C104  H91   S    
C132  C133  S    
H55   O52   S    
C101  C178  A    
C46   H111  S    
C20   H24   S    
C82   C121  S    
C93   C143  S    
C14   C42   A    
C227  O4    A    
C10   C26   A    
O33   Zn2   S    
O20   Zn10  S    
O17   Zn5   S    
C216  O5    A    
O19   Zn9   S    
C45   C72   A    
C110  C135  A    
O56   Zn7   S    
C21   C50   A    
C119  H137  S    
O40   Zn4   S    
C132  H11   S    
C61   H70   S    
C21   C32   A    
C196  C226  A    
C8    H1    S    
C46   C173  A    
C200  C224  A    
C215  C235  A    
C148  C149  S    
C190  C221  A    
O10   Zn5   S    
O45   Zn1   S    
C72   H81   S    
C134  C136  S    
C179  C197  A    
C16   C29   A    
C65   C71   A    
C117  H133  S    
C42   C69   A    
C153  O51   D    
C87   C132  S    
C3    C30   S    
C188  C223  A    
C144  H36   S    
O43   Zn4   S    
C151  O47   D    
C19   H13   S    
C5    C28   S    
C88   C106  A    
C43   C56   A    
O5    Zn8   S    
C6    C27   S    
C155  O57   S    
O32   Zn2   S    
C64   C76   A    
O1    Zn1   S    
C10   C34   A    
C209  C229  A    
C163  O72   S    
C199  C225  A    
C162  C179  S    
O36   Zn3   S    
C4    O18   A    
C190  C208  A    
C117  H132  S    
C43   C70   A    
C205  O2    A    
C120  H134  S    
C139  H28   S    
C192  C210  A    
C243  O37   A    
C165  O75   D    
C131  H4    S    
H62   O65   S    
C54   C58   A    
C22   C33   A    
C122  H142  S    
C23   C48   A    
C144  H37   S    
C219  C236  A    
C95   C148  S    
C78   C202  A    
C142  H31   S    
C109  C124  A    
C70   H79   S    
C137  C138  S    
C101  H116  S    
C145  H45   S    
C141  C142  S    
C47   C58   A    
H64   O70   S    
C196  C213  A    
C207  C231  A    
C18   H2    S    
C158  O60   D    
O37   Zn3   S    
C41   C54   A    
C124  C180  A    
O35   Zn2   S    
C159  O63   S    
C99   H96   S    
C156  O58   D    
C1    C229  S    
C224  C245  S    
H54   O50   S    
C114  H100  S    
C163  C180  S    
O78   Zn5   S    
C245  O39   A    
C125  H145  S    
C183  C232  S    
H65   O72   S    
C79   H114  S    
C208  C230  A    
C22   C51   A    
C20   C31   A    
