data_mof_unit_12076.cif
_audit_creation_date              2012-12-10T17:22:08-0500
_audit_creation_method            fapswitch 2.2
_symmetry_space_group_name_H-M    P1
_symmetry_Int_Tables_number       1
_space_group_crystal_system       triclinic
_cell_length_a                    15.87151
_cell_length_b                    10.761527
_cell_length_c                    9.621806
_cell_angle_alpha                 90.277773
_cell_angle_beta                  89.18373
_cell_angle_gamma                 90.334199
_cell_volume                      1643.20727341

loop_
_atom_site_label
_atom_site_type_symbol
_atom_type_description
_atom_site_fract_x
_atom_site_fract_y
_atom_site_fract_z
_atom_type_partial_charge
C1    C     C_R   0.497701 0.262820 0.499808 0.779354
C2    C     C_3   0.951572 0.546047 0.642562 -0.006664
C3    C     C_3   0.916557 0.497235 0.499470 0.122380
C4    C     C_3   0.949633 0.586128 0.381322 -0.054164
C5    C     C_3   0.049768 0.584144 0.372017 0.304362
C6    C     C_1   0.824215 0.498522 0.499088 -0.025802
C7    C     C_1   0.175548 0.498805 0.499228 -0.076324
C8    C     C_1   0.250997 0.499064 0.501660 -0.207972
C9    C     C_R   0.359360 0.129204 0.637439 -0.183559
C10   C     C_R   0.294510 0.063949 0.704324 -0.145934
C11   C     C_R   0.294701 0.934680 0.704951 -0.133395
C12   C     C_R   0.340486 0.499637 0.500802 0.805962
C13   C     C_R   0.359751 0.869858 0.638714 -0.175540
C14   C     C_R   0.426729 0.934083 0.571575 0.095193
C15   C     C_R   0.426522 0.065454 0.570899 0.099402
C16   C     C_R   0.492165 0.128993 0.499402 -0.091066
C17   C     C_R   0.554240 0.064286 0.425427 -0.202566
C18   C     C_R   0.554421 0.936085 0.426059 -0.198947
C19   C     C_R   0.492566 0.870990 0.500694 -0.097219
C20   C     C_R   0.655666 0.509962 0.114385 0.215537
C21   C     C_R   0.719026 0.586424 0.056797 -0.185082
C22   C     C_R   0.703185 0.651983 0.935242 -0.251067
C23   C     C_R   0.497846 0.737182 0.500290 0.777881
C24   C     C_R   0.628185 0.629463 0.864770 -0.133151
C25   C     C_R   0.565535 0.553174 0.925496 0.196217
C26   C     C_R   0.572419 0.526475 0.068670 0.166872
C27   C     C_R   0.431089 0.464446 0.075316 -0.061053
C28   C     C_R   0.432994 0.457389 0.927284 -0.065184
C29   C     C_R   0.659453 0.500259 0.499318 0.815390
C30   C     C_3   0.049551 0.553367 0.634126 -0.471012
C31   C     C_3   0.048369 0.362271 0.485118 -0.086958
C32   C     C_3   0.951119 0.364061 0.462238 -0.063995
C33   C     C_1   0.748827 0.499689 0.498581 -0.196047
C34   C     C_3   0.083123 0.499195 0.494159 0.212195
Cu1   Cu    Cu3+1 0.499990 0.499990 0.640660 0.930876
Cu2   Cu    Cu3+1 0.500010 0.500010 0.359340 0.935577
H1    H     H_    0.070127 0.651769 0.646591 0.187171
H2    H     H_    0.927448 0.641835 0.658954 0.174648
H3    H     H_    0.924340 0.549419 0.281489 0.133386
H4    H     H_    0.603859 0.113456 0.369447 0.142828
H5    H     H_    0.355274 0.229427 0.636380 0.138467
H6    H     H_    0.243388 0.113914 0.754509 0.127411
H7    H     H_    0.243725 0.884340 0.755629 0.132374
H8    H     H_    0.355975 0.769544 0.638699 0.147544
H9    H     H_    0.604079 0.887234 0.370275 0.151296
H10   H     H_    0.374926 0.434341 0.130588 0.145228
H11   H     H_    0.078520 0.501964 0.721314 0.181128
H12   H     H_    0.782568 0.583550 0.096019 0.148198
H13   H     H_    0.751976 0.709312 0.888316 0.156547
H14   H     H_    0.620075 0.673594 0.765938 0.188774
H15   H     H_    0.378849 0.420433 0.873726 0.137637
H16   H     H_    0.061400 0.316617 0.586398 0.140053
H17   H     H_    0.941731 0.350873 0.348543 0.175665
N1    N     N_R   0.500800 0.501210 0.147910 -0.203331
N2    N     N_R   0.500820 0.501290 0.852040 -0.193981
O1    O     O_R   0.499990 0.319640 0.618810 -0.572371
O2    O     O_R   0.500000 0.319660 0.381240 -0.587851
O3    O     O_R   0.379430 0.499990 0.618840 -0.592815
O4    O     O_R   0.379440 0.500020 0.381260 -0.577829
O5    O     O_R   0.500000 0.680340 0.618760 -0.599375
O6    O     O_R   0.500010 0.680360 0.381190 -0.561486
O7    O     O_R   0.620560 0.499980 0.618740 -0.578855
O8    O     O_R   0.620570 0.500010 0.381160 -0.596588
C35   C     C_3   0.921044 0.471957 0.772091 -0.400864
C36   C     C_3   0.937718 0.541372 0.908370 -0.867693
H18   H     H_    0.006109 0.557443 0.923142 0.264220
H19   H     H_    0.904935 0.632220 0.909653 0.245333
H20   H     H_    0.913685 0.485100 0.997041 0.237701
H21   H     H_    0.851986 0.455635 0.767393 0.216482
H22   H     H_    0.953106 0.380643 0.776322 0.206347
C37   C     C_3   0.682796 0.381267 0.158956 -0.383039
C38   C     C_3   0.709985 0.301939 0.034103 -0.880831
H23   H     H_    0.657552 0.292864 0.959367 0.266138
H24   H     H_    0.765575 0.344024 0.980540 0.258721
H25   H     H_    0.727423 0.207737 0.070023 0.243741
H26   H     H_    0.736556 0.388872 0.231108 0.194232
H27   H     H_    0.630312 0.331375 0.212368 0.238415
N3    N     N_3   0.090709 0.289235 0.375497 -0.621237
H28   H     H_    0.152443 0.271223 0.405753 0.228039
H29   H     H_    0.061408 0.202094 0.369510 0.227864
C39   C     C_3   0.904845 0.252325 0.534359 -0.402888
C40   C     C_3   0.847790 0.180641 0.434827 -0.872575
H30   H     H_    0.798586 0.242536 0.393341 0.250397
H31   H     H_    0.885483 0.141326 0.347132 0.249785
H32   H     H_    0.816242 0.102948 0.490981 0.249036
H33   H     H_    0.950693 0.184902 0.576100 0.201913
H34   H     H_    0.864866 0.282816 0.622954 0.213760
N4    N     N_3   0.084432 0.711071 0.386356 -0.608745
H35   H     H_    0.150232 0.708888 0.381556 0.223006
H36   H     H_    0.067079 0.763398 0.300122 0.228732
N5    N     N_3   0.076300 0.536225 0.234282 -0.622718
H37   H     H_    0.141223 0.520416 0.231554 0.236680
H38   H     H_    0.045827 0.452854 0.210172 0.230426
N6    N     N_3   0.913570 0.711416 0.397133 -0.601185
H39   H     H_    0.943614 0.762416 0.474811 0.240262
H40   H     H_    0.921081 0.759472 0.303518 0.222179

loop_
_geom_bond_atom_site_label_1
_geom_bond_atom_site_label_2
_ccdc_geom_bond_type
C29   O8    A    
C10   H6    S    
Cu1   Cu2   S    
C31   H16   S    
Cu2   O4    S    
C39   C40   S    
C27   N1    A    
C7    C8    T    
C32   C39   S    
Cu1   O3    S    
C1    O1    A    
C37   H26   S    
C28   H15   S    
N3    H29   S    
C15   C16   A    
C29   C33   S    
C18   C19   A    
C12   O4    A    
C16   C17   A    
C36   H19   S    
C20   C37   S    
C11   H7    S    
C35   H22   S    
Cu2   O8    S    
C9    C10   A    
C39   H33   S    
C21   H12   S    
C12   O3    A    
C3    C6    S    
C21   C22   A    
C5    N4    S    
C3    C32   S    
C38   H25   S    
C26   N1    A    
C28   N2    A    
C2    C35   S    
C24   H14   S    
C23   O5    A    
C30   C34   S    
Cu1   N2    S    
C30   H11   S    
C24   C25   A    
C38   H24   S    
Cu2   O2    S    
N5    H37   S    
N3    H28   S    
C4    C5    S    
C25   C26   A    
C30   H1    S    
Cu1   O5    S    
C17   H4    S    
C19   C23   S    
C1    O2    A    
N5    H38   S    
C2    H2    S    
C31   C32   S    
C4    H3    S    
C8    C12   S    
C36   H20   S    
C5    C34   S    
C17   C18   A    
C31   C34   S    
C1    C16   S    
C39   H34   S    
C35   H21   S    
C20   C21   A    
N6    H40   S    
C5    N5    S    
C22   H13   S    
C4    N6    S    
C27   H10   S    
N4    H36   S    
C36   H18   S    
C40   H31   S    
C7    C34   S    
C22   C24   A    
Cu2   O6    S    
C18   H9    S    
C32   H17   S    
C37   H27   S    
C31   N3    S    
C29   O7    A    
Cu1   O1    S    
C14   C19   A    
C25   N2    A    
C38   H23   S    
C40   H32   S    
C9    H5    S    
C6    C33   T    
C2    C30   S    
C35   C36   S    
C2    C3    S    
C9    C15   A    
C37   C38   S    
C11   C13   A    
C20   C26   A    
Cu1   O7    S    
N6    H39   S    
Cu2   N1    S    
C10   C11   A    
C23   O6    A    
N4    H35   S    
C40   H30   S    
C27   C28   A    
C14   C15   A    
C13   C14   A    
C13   H8    S    
C3    C4    S    
