data_mof_unit_18538.cif
_audit_creation_date              2012-12-11T14:36:14-0500
_audit_creation_method            fapswitch 2.2
_symmetry_space_group_name_H-M    P1
_symmetry_Int_Tables_number       1
_space_group_crystal_system       triclinic
_cell_length_a                    13.480376
_cell_length_b                    13.478598
_cell_length_c                    27.533528
_cell_angle_alpha                 90.718701
_cell_angle_beta                  90.307112
_cell_angle_gamma                 60.036253
_cell_volume                      4333.7449904

loop_
_atom_site_label
_atom_site_type_symbol
_atom_type_description
_atom_site_fract_x
_atom_site_fract_y
_atom_site_fract_z
_atom_type_partial_charge
C1    C     C_R   0.620215 0.101191 0.570299 0.546136
C2    C     C_1   0.648633 0.707303 0.658884 -0.043452
C3    C     C_3   0.112131 0.109869 0.739847 0.046360
C4    C     C_R   0.599646 0.779776 0.568881 0.544128
C5    C     C_3   0.207521 0.053907 0.778392 -0.122588
C6    C     C_1   0.097517 0.200870 0.902001 -0.000084
C7    C     C_1   0.231619 0.137199 0.617925 0.014238
C8    C     C_3   0.053058 0.222467 0.769653 -0.121595
C9    C     C_3   0.149688 0.167086 0.807541 0.027208
C10   C     C_3   0.124082 0.265576 0.742014 -0.106465
C11   C     C_3   0.181851 0.152801 0.712535 0.067846
C12   C     C_1   0.630778 0.733554 0.616742 -0.002408
C13   C     C_3   0.220089 0.210551 0.780648 -0.098992
C14   C     C_3   0.278244 0.097422 0.750614 -0.121869
C15   C     C_1   0.126131 0.181120 0.859928 -0.039834
C16   C     C_R   0.278293 0.121617 0.569849 0.545905
C17   C     C_1   0.204549 0.145595 0.660117 0.004856
C18   C     C_3   0.648174 0.268129 0.739521 -0.034389
C19   C     C_3   0.562500 0.268910 0.776624 0.432486
C20   C     C_1   0.690231 0.207736 0.903169 0.012508
C21   C     C_1   0.635015 0.132571 0.618625 0.005745
C22   C     C_3   0.748218 0.182535 0.772005 -0.117523
C23   C     C_3   0.700654 0.565957 0.768429 0.416152
C24   C     C_3   0.661019 0.184697 0.808621 0.056104
C25   C     C_3   0.748795 0.080411 0.745223 -0.133856
C26   C     C_3   0.648842 0.166092 0.713557 -0.010157
C27   C     C_3   0.661627 0.082891 0.782457 -0.168275
C28   C     C_R   0.622140 0.101078 0.431901 0.549768
C29   C     C_3   0.561247 0.168226 0.749969 -0.095211
C30   C     C_1   0.672771 0.196265 0.861048 0.004227
C31   C     C_1   0.642665 0.151154 0.661015 -0.032585
C32   C     C_R   0.736147 0.703317 0.360405 -0.102395
C33   C     C_R   0.749017 0.684664 0.310182 0.022759
C34   C     C_3   0.677217 0.659409 0.806223 0.054979
C35   C     C_R   0.764151 0.661966 0.208422 -0.031971
C36   C     C_R   0.852648 0.662643 0.235288 -0.068116
C37   C     C_R   0.844790 0.675063 0.285794 0.347526
C38   C     C_R   0.773803 0.642420 0.158140 0.358640
C39   C     C_R   0.685684 0.636881 0.132742 0.018384
C40   C     C_R   0.602118 0.775290 0.430575 0.545518
C41   C     C_R   0.557059 0.700841 0.357289 -0.128255
C42   C     C_R   0.565205 0.688677 0.307303 0.020272
C43   C     C_R   0.660628 0.682101 0.283419 0.014011
C44   C     C_R   0.475597 0.690319 0.280748 -0.118712
C45   C     C_3   0.590686 0.648604 0.740985 -0.066027
C46   C     C_R   0.479304 0.687487 0.230392 -0.114250
C47   C     C_R   0.574677 0.678550 0.206324 0.006829
C48   C     C_R   0.666417 0.674677 0.232699 -0.007718
C49   C     C_R   0.582706 0.665715 0.156381 -0.181700
C50   C     C_R   0.637160 0.717511 0.383435 -0.023579
C51   C     C_R   0.219419 0.053749 0.357427 -0.132916
C52   C     C_R   0.277582 0.120743 0.431113 0.549100
C53   C     C_R   0.193796 0.067438 0.307860 0.014656
C54   C     C_R   0.154512 0.093232 0.207252 0.013244
C55   C     C_R   0.180235 0.990089 0.229563 -0.136282
C56   C     C_3   0.661977 0.686694 0.711256 -0.000103
C57   C     C_R   0.200177 0.977116 0.279564 -0.129504
C58   C     C_R   0.128795 0.109719 0.157684 -0.139958
C59   C     C_R   0.102095 0.214244 0.136352 -0.001748
C60   C     C_R   0.181271 0.250039 0.363081 -0.127642
C61   C     C_R   0.159464 0.263708 0.313662 -0.001607
C62   C     C_R   0.167173 0.171697 0.285701 0.064837
C63   C     C_R   0.136377 0.365914 0.291438 -0.108269
C64   C     C_3   0.772368 0.602507 0.738012 -0.079107
C65   C     C_R   0.122090 0.376720 0.241428 -0.085213
C66   C     C_R   0.128325 0.286365 0.213411 0.007759
C67   C     C_3   0.567139 0.743385 0.779253 -0.145610
C68   C     C_R   0.150234 0.183567 0.235423 0.063002
C69   C     C_R   0.108203 0.299355 0.163922 -0.088714
C70   C     C_R   0.218272 0.143385 0.384512 -0.002935
C71   C     C_R   0.549203 0.234468 0.362942 -0.129863
C72   C     C_R   0.560225 0.258191 0.314861 -0.020099
C73   C     C_R   0.576844 0.286114 0.214387 0.001331
C74   C     C_R   0.474494 0.361754 0.240254 0.046796
C75   C     C_R   0.466373 0.343165 0.289776 -0.107358
C76   C     C_3   0.748422 0.697436 0.776413 -0.151695
C77   C     C_R   0.586242 0.283527 0.162683 -0.021087
C78   C     C_3   0.637993 0.782064 0.748728 -0.130661
C79   C     C_R   0.696497 0.223690 0.141463 -0.018009
C80   C     C_R   0.750315 0.088289 0.365351 -0.121952
C81   C     C_R   0.762896 0.112234 0.317543 0.021597
C82   C     C_R   0.666249 0.194380 0.291465 0.058235
C83   C     C_R   0.869188 0.050665 0.294637 -0.106219
C84   C     C_R   0.878856 0.066817 0.245661 -0.112517
C85   C     C_R   0.782180 0.143476 0.219110 0.008046
C86   C     C_R   0.674996 0.208954 0.241653 0.032647
C87   C     C_R   0.792575 0.155407 0.170228 -0.123784
C88   C     C_1   0.695954 0.609758 0.900462 0.013798
C89   C     C_1   0.686403 0.637166 0.858468 -0.004837
C90   C     C_R   0.642456 0.144992 0.387207 -0.001401
C91   C     C_R   0.049197 0.236191 0.949753 0.547508
C92   C     C_R   0.711342 0.563179 0.948227 0.546776
C93   C     C_R   0.721903 0.225462 0.950942 0.550623
C94   C     C_R   0.047664 0.245697 0.088663 0.543508
C95   C     C_R   0.707828 0.575444 0.086329 0.564493
C96   C     C_R   0.720911 0.235628 0.090648 0.532212
C97   C     C_2   0.484453 0.322660 0.130617 0.201642
C98   C     C_2   0.380978 0.468126 0.218547 0.270509
C99   C     C_2   0.050294 0.053395 0.718437 0.224553
Cr1   Cr    Cr6+3 0.417550 0.169090 0.500530 1.030827
Cr2   Cr    Cr6+3 0.669180 0.913420 0.499920 1.044165
Cr3   Cr    Cr6+3 0.413260 0.917540 0.499520 1.040772
Cr4   Cr    Cr6+3 0.909170 0.177380 0.020380 1.035173
Cr5   Cr    Cr6+3 0.912710 0.429210 0.018220 1.096778
Cr6   Cr    Cr6+3 0.657170 0.432570 0.019030 1.035312
F1    F     F_    0.466106 0.366064 0.793512 -0.617170
F2    F     F_    0.871720 0.620202 0.134953 -0.636468
F3    F     F_    0.930812 0.677432 0.310706 -0.651418
F4    F     F_    0.733016 0.453995 0.779403 -0.661682
H1    H     H_    0.812414 0.718370 0.791481 0.121038
H2    H     H_    0.856177 0.543423 0.720810 0.115320
H3    H     H_    0.798648 0.714713 0.380928 0.186633
H4    H     H_    0.928044 0.653612 0.217314 0.194632
H5    H     H_    0.512899 0.665311 0.136757 0.140127
H6    H     H_    0.408881 0.689659 0.210316 0.111496
H7    H     H_    0.401682 0.696156 0.298892 0.114668
H8    H     H_    0.481371 0.709569 0.375003 0.134865
H9    H     H_    0.124651 0.043739 0.136341 0.120975
H10   H     H_    0.247715 0.971278 0.373964 0.126962
H11   H     H_    0.184393 0.919769 0.208408 0.114896
H12   H     H_    0.265211 0.251746 0.797940 0.147838
H13   H     H_    0.611926 0.872017 0.739904 0.118282
H14   H     H_    0.220674 0.896569 0.296084 0.113960
H15   H     H_    0.088181 0.380265 0.147785 0.186601
H16   H     H_    0.105051 0.456040 0.224708 0.173227
H17   H     H_    0.131480 0.436584 0.312598 0.171622
H18   H     H_    0.178761 0.319994 0.384006 0.137412
H19   H     H_    0.465766 0.280403 0.380170 0.134405
H20   H     H_    0.387231 0.396943 0.309303 0.152737
H21   H     H_    0.877764 0.109530 0.154513 0.143304
H22   H     H_    0.483227 0.801775 0.796543 0.118184
H23   H     H_    0.089515 0.352588 0.726800 0.121240
H24   H     H_    0.961216 0.016625 0.228102 0.120086
H25   H     H_    0.944028 0.988233 0.314251 0.128985
H26   H     H_    0.822783 0.020886 0.384466 0.139192
H27   H     H_    0.527143 0.626811 0.726105 0.135419
H28   H     H_    0.241754 0.966948 0.793624 0.109839
H29   H     H_    0.371179 0.045812 0.742395 0.102976
H30   H     H_    0.481609 0.357426 0.095099 0.132095
H31   H     H_    0.396607 0.503810 0.186354 0.102291
H32   H     H_    0.007414 0.023127 0.742196 0.086795
H33   H     H_    0.960133 0.273844 0.777833 0.165725
H34   H     H_    0.641795 0.344422 0.721599 0.164688
H35   H     H_    0.483470 0.163646 0.740481 0.111086
H36   H     H_    0.667219 0.006956 0.800405 0.116527
H37   H     H_    0.826040 0.002333 0.731599 0.138204
H38   H     H_    0.825199 0.188282 0.781748 0.134682
O1    O     O_R   0.301710 0.195650 0.554160 -0.509035
O2    O     O_R   0.635520 0.542770 0.964420 -0.496982
O3    O     O_R   0.665950 0.325030 0.970100 -0.482076
O4    O     O_R   0.522390 0.158990 0.550460 -0.496948
O5    O     O_R   0.816620 0.158530 0.074540 -0.510932
O6    O     O_R   0.004460 0.188870 0.069750 -0.510367
O7    O     O_R   0.025800 0.341780 0.072300 -0.488216
O8    O     O_R   0.807650 0.528950 0.067500 -0.427565
O9    O     O_R   0.633420 0.550490 0.071810 -0.541901
O10   O     O_R   0.664000 0.332180 0.069640 -0.519218
O11   O     O_3   0.826350 0.346390 0.019210 -0.261958
O12   O     O_R   0.658900 0.818120 0.449760 -0.499237
O13   O     O_R   0.694390 0.003530 0.554040 -0.499509
O14   O     O_R   0.657700 0.819660 0.549320 -0.495438
O15   O     O_R   0.501930 0.803280 0.552920 -0.501245
O16   O     O_R   0.318170 0.023580 0.549580 -0.485794
O17   O     O_R   0.303010 0.193990 0.446760 -0.520209
O18   O     O_R   0.523600 0.157450 0.450900 -0.505445
O19   O     O_R   0.695690 0.001860 0.446640 -0.508975
O20   O     O_2   0.404023 0.310826 0.142822 -0.487764
O21   O     O_2   0.285901 0.518828 0.237027 -0.514284
O22   O     O_2   0.048060 0.040747 0.674574 -0.490178
O23   O     O_R   0.503220 0.801620 0.445520 -0.520576
O24   O     O_R   0.319370 0.022040 0.450020 -0.500353
O25   O     O_3   0.499990 0.000010 0.499990 -0.252241
O26   O     O_R   0.818720 0.150820 0.967160 -0.505884
O27   O     O_R   0.006410 0.181720 0.970200 -0.496741
O28   O     O_R   0.027890 0.334070 0.964920 -0.498475
O29   O     O_R   0.809600 0.521790 0.967960 -0.496113

loop_
_geom_bond_atom_site_label_1
_geom_bond_atom_site_label_2
_ccdc_geom_bond_type
Cr3   O23   S    
C66   C68   A    
C20   C93   S    
C63   C65   A    
C1    C21   S    
C23   C45   S    
Cr1   O25   S    
C41   C42   A    
C40   O12   A    
C35   C36   A    
C18   C26   S    
C24   C27   S    
Cr4   O26   S    
C2    C12   T    
C79   C87   A    
C81   C82   A    
C47   C49   A    
C20   C30   T    
C85   C86   A    
C92   O29   A    
Cr6   O3    S    
C21   C31   T    
C80   H26   S    
C46   H6    S    
C87   H21   S    
C18   H34   S    
Cr2   O12   S    
C76   C78   S    
C18   C19   S    
C38   C39   A    
C11   C14   S    
C66   C69   A    
C54   C68   A    
C35   C48   A    
C6    C91   S    
C96   O5    A    
C58   H9    S    
C56   C78   S    
C27   C29   S    
Cr2   O25   S    
C95   O9    A    
C73   C74   A    
C38   F2    S    
C61   C63   A    
C9    C13   S    
C83   H25   S    
C6    C15   T    
C54   C55   A    
Cr4   O6    S    
Cr6   O10   S    
C14   H29   S    
C45   C56   S    
C8    C9    S    
C7    C17   T    
C22   C25   S    
C45   C67   S    
C36   C37   A    
C51   H10   S    
C56   C64   S    
C77   C97   S    
C25   H37   S    
C59   C94   S    
C4    C12   S    
C43   C48   A    
C95   O8    A    
C27   H36   S    
C96   O10   A    
C85   C87   A    
C49   H5    S    
C26   C31   S    
Cr1   O4    S    
C13   C14   S    
C93   O3    A    
C61   C62   A    
C67   C78   S    
C42   C44   A    
C72   C75   A    
C36   H4    S    
C52   O24   A    
C40   O23   A    
C81   C83   A    
C44   C46   A    
Cr5   O28   S    
C24   C30   S    
C55   H11   S    
C77   C79   A    
C16   O16   A    
Cr3   O25   S    
C23   F4    S    
C67   H22   S    
C84   H24   S    
C74   C75   A    
C33   C43   A    
C47   C48   A    
C88   C92   S    
C35   C38   A    
C3    C11   S    
C84   C85   A    
Cr2   O13   S    
C37   F3    S    
C74   C98   S    
C3    C8    S    
C53   C57   A    
Cr3   O16   S    
C64   H2    S    
C69   H15   S    
C25   C26   S    
C97   O20   D    
C29   H35   S    
Cr4   O27   S    
C33   C37   A    
C91   O27   A    
C98   H31   S    
C60   C61   A    
C51   C53   A    
C65   H16   S    
C5    C9    S    
C57   H14   S    
C13   H12   S    
C53   C62   A    
C83   C84   A    
C60   C70   A    
C94   O7    A    
C23   C34   S    
C39   C95   S    
C64   C76   S    
C91   O28   A    
Cr1   O17   S    
C88   C89   T    
Cr5   O29   S    
C32   C50   A    
C5    C14   S    
C28   O18   A    
C59   C69   A    
Cr4   O5    S    
C8    C10   S    
C23   C64   S    
C51   C70   A    
C52   O17   A    
C55   C57   A    
C72   C82   A    
C22   C24   S    
C71   H19   S    
C42   C43   A    
C19   C29   S    
C41   C50   A    
Cr3   O15   S    
C54   C58   A    
Cr3   O24   S    
C46   C47   A    
C11   C17   S    
C45   H27   S    
C32   H3    S    
C39   C49   A    
C18   C22   S    
C99   H32   S    
C60   H18   S    
C7    C16   S    
Cr5   O11   S    
C80   C81   A    
C3    C5    S    
C10   C13   S    
C34   C67   S    
C28   C90   S    
Cr4   O11   S    
C5    H28   S    
C99   O22   D    
C28   O19   A    
C25   C27   S    
Cr6   O2    S    
C62   C68   A    
C16   O1    A    
Cr5   O7    S    
C32   C33   A    
Cr2   O14   S    
C19   C24   S    
C58   C59   A    
C34   C89   S    
C71   C72   A    
Cr6   O11   S    
C2    C56   S    
C82   C86   A    
C1    O13   A    
C71   C90   A    
Cr1   O1    S    
C94   O6    A    
C40   C50   S    
C93   O26   A    
C1    O4    A    
C4    O15   A    
Cr5   O8    S    
C80   C90   A    
Cr2   O19   S    
C78   H13   S    
C10   H23   S    
C73   C86   A    
C63   H17   S    
C52   C70   S    
C10   C11   S    
C19   F1    S    
C3    C99   S    
C79   C96   S    
Cr6   O9    S    
C22   H38   S    
C44   H7    S    
C26   C29   S    
C76   H1    S    
C65   C66   A    
C92   O2    A    
C73   C77   A    
C4    O14   A    
Cr1   O18   S    
C8    H33   S    
C41   H8    S    
C97   H30   S    
C98   O21   D    
C75   H20   S    
C9    C15   S    
C34   C76   S    
