data_mof_unit_30350.cif
_audit_creation_date              2012-12-10T17:58:54-0500
_audit_creation_method            fapswitch 2.2
_symmetry_space_group_name_H-M    P1
_symmetry_Int_Tables_number       1
_space_group_crystal_system       triclinic
_cell_length_a                    10.313238
_cell_length_b                    11.659772
_cell_length_c                    14.101525
_cell_angle_alpha                 100.794529
_cell_angle_beta                  89.450945
_cell_angle_gamma                 91.39363
_cell_volume                      1665.18856823

loop_
_atom_site_label
_atom_site_type_symbol
_atom_type_description
_atom_site_fract_x
_atom_site_fract_y
_atom_site_fract_z
_atom_type_partial_charge
C1    C     C_R   0.498720 0.734631 0.497102 0.771634
C2    C     C_R   0.932375 0.436453 0.423538 0.355505
C3    C     C_1   0.523810 0.499486 0.216829 -0.219352
C4    C     C_1   0.475908 0.493703 0.782048 -0.190558
C5    C     C_2   0.554084 0.494574 0.027735 0.211834
C6    C     C_2   0.443941 0.494414 0.970353 0.195770
C7    C     C_1   0.463069 0.492631 0.867236 -0.009666
C8    C     C_1   0.535703 0.498035 0.131214 -0.024641
C9    C     C_R   0.616406 0.921483 0.470938 -0.037579
C10   C     C_R   0.374848 0.057977 0.484780 0.003637
C11   C     C_R   0.619335 0.045091 0.479588 0.212283
C12   C     C_R   0.499936 0.260735 0.495688 0.796414
C13   C     C_R   0.370876 0.935993 0.496383 0.132039
C14   C     C_3   0.843863 0.637844 0.670961 -0.261275
C15   C     C_3   0.895979 0.699241 0.777537 -0.843999
C16   C     C_3   0.165139 0.380367 0.338900 -0.291513
C17   C     C_3   0.121413 0.268651 0.269442 -0.972076
C18   C     C_3   0.228170 0.687514 0.736029 -0.532008
C19   C     C_3   0.803555 0.323390 0.264476 -0.602653
C20   C     C_3   0.195924 0.489435 0.948717 -0.660968
C21   C     C_3   0.801022 0.483551 0.048579 -0.646479
C22   C     C_3   0.750466 0.845596 0.464550 -0.310378
C23   C     C_R   0.500708 0.119999 0.486420 -0.138065
C24   C     C_3   0.902686 0.863023 0.448187 -0.942324
C25   C     C_3   0.246111 0.132821 0.483877 -0.256177
C26   C     C_3   0.096397 0.107515 0.483300 -0.850314
C27   C     C_3   0.761814 0.077042 0.491235 -0.377392
C28   C     C_3   0.790930 0.193517 0.506228 -0.295740
C29   C     C_3   0.225285 0.896121 0.513300 -0.360705
C30   C     C_3   0.179502 0.766880 0.514853 -0.572131
C31   C     C_R   0.492344 0.865290 0.487205 -0.153835
C32   C     C_R   0.481843 0.497320 0.680322 0.794589
C33   C     C_R   0.518239 0.499753 0.319174 0.778392
C34   C     C_R   0.924441 0.555745 0.581121 0.121872
C35   C     C_R   0.078153 0.436880 0.424809 0.104681
C36   C     C_R   0.070172 0.552247 0.583256 0.276442
Cu1   Cu    Cu3+1 0.359340 0.499980 0.500000 0.901332
Cu2   Cu    Cu3+1 0.640660 0.500020 0.500000 0.960434
H1    H     H_    0.969645 0.648492 0.815839 0.263539
H2    H     H_    0.260885 0.354936 0.365257 0.261364
H3    H     H_    0.071691 0.713746 0.664459 0.248657
H4    H     H_    0.252062 0.784194 0.733880 0.156953
H5    H     H_    0.326876 0.655573 0.739950 0.208049
H6    H     H_    0.194793 0.690083 0.810096 0.186033
H7    H     H_    0.923214 0.261499 0.358259 0.233716
H8    H     H_    0.755608 0.233165 0.250474 0.178915
H9    H     H_    0.862793 0.329704 0.202213 0.185160
H10   H     H_    0.727234 0.380507 0.254877 0.250690
H11   H     H_    0.293664 0.523546 0.081831 0.257945
H12   H     H_    0.931396 0.793785 0.773997 0.228604
H13   H     H_    0.105434 0.514015 0.990813 0.205056
H14   H     H_    0.184689 0.396180 0.908119 0.242591
H15   H     H_    0.210475 0.544196 0.894750 0.239741
H16   H     H_    0.703583 0.473392 0.915322 0.267734
H17   H     H_    0.891269 0.468217 0.003377 0.213999
H18   H     H_    0.783600 0.410342 0.089571 0.223631
H19   H     H_    0.814611 0.570129 0.102567 0.233352
H20   H     H_    0.933954 0.839628 0.371657 0.253281
H21   H     H_    0.945329 0.946198 0.475909 0.260766
H22   H     H_    0.960938 0.808988 0.492037 0.264200
H23   H     H_    0.814613 0.715279 0.830717 0.224468
H24   H     H_    0.746549 0.836152 0.538251 0.234662
H25   H     H_    0.732795 0.773181 0.403709 0.259057
H26   H     H_    0.058472 0.060724 0.399438 0.207163
H27   H     H_    0.057112 0.091591 0.556203 0.240228
H28   H     H_    0.041867 0.192825 0.482771 0.231345
H29   H     H_    0.249406 0.205680 0.553818 0.246309
H30   H     H_    0.252113 0.177049 0.407957 0.201576
H31   H     H_    0.769394 0.224435 0.434415 0.253468
H32   H     H_    0.735442 0.237384 0.585885 -0.750816
H33   H     H_    0.809787 0.233020 0.585800 0.417678
H34   H     H_    0.803983 0.716372 0.638564 0.171573
H35   H     H_    0.803100 0.050265 0.557494 0.231990
H36   H     H_    0.816096 0.050418 0.421528 0.203031
H37   H     H_    0.182950 0.679555 0.462104 0.139937
H38   H     H_    0.218101 0.711975 0.565876 0.294109
H39   H     H_    0.167025 0.743092 0.438912 0.156621
H40   H     H_    0.178740 0.947780 0.580593 0.206919
H41   H     H_    0.177537 0.913492 0.448006 0.232050
H42   H     H_    0.760853 0.594044 0.702912 0.248751
H43   H     H_    0.102513 0.191984 0.304686 0.245999
H44   H     H_    0.040200 0.283723 0.226860 0.286587
H45   H     H_    0.200334 0.243982 0.215775 0.250029
H46   H     H_    0.185793 0.447511 0.293529 0.209938
N1    N     N_R   0.147930 0.499970 0.499980 -0.273832
N2    N     N_R   0.852070 0.500030 0.500020 -0.222592
N3    N     N_2   0.120161 0.635453 0.668975 -0.385611
N4    N     N_2   0.879434 0.340499 0.352851 -0.407377
N5    N     N_2   0.310844 0.498896 0.009518 -0.440016
N6    N     N_2   0.687078 0.492289 0.988235 -0.438009
O1    O     O_R   0.381260 0.680340 0.500000 -0.590867
O2    O     O_R   0.618740 0.319660 0.500000 -0.490571
O3    O     O_R   0.618830 0.680370 0.500010 -0.614852
O4    O     O_R   0.381170 0.319630 0.499990 -0.627680
O5    O     O_R   0.364420 0.499960 0.637840 -0.541863
O6    O     O_R   0.635580 0.500040 0.362160 -0.557910
O7    O     O_R   0.601990 0.499990 0.637850 -0.565787
O8    O     O_R   0.398010 0.500010 0.362150 -0.616707

loop_
_geom_bond_atom_site_label_1
_geom_bond_atom_site_label_2
_ccdc_geom_bond_type
C2    C35   A    
C28   H31   S    
C25   H29   S    
C1    C31   S    
C19   H8    S    
C12   C23   S    
C29   C30   S    
Cu2   N2    S    
C13   C29   S    
H16   N6    S    
C20   H13   S    
C18   H4    S    
C16   C35   S    
C5    C6    D    
C19   H9    S    
C9    C22   S    
C3    C33   S    
Cu2   O2    S    
C16   H46   S    
C32   O7    A    
Cu1   O5    S    
C17   H44   S    
C34   N2    A    
C15   H12   S    
C26   H26   S    
C22   H25   S    
C30   H39   S    
C29   H40   S    
C33   O8    A    
C16   C17   S    
C2    N4    S    
C14   H42   S    
C27   H36   S    
C17   H43   S    
C5    N6    S    
C1    O1    A    
C12   O4    A    
C25   H30   S    
Cu2   O7    S    
Cu1   O8    S    
C12   O2    A    
C21   N6    S    
C36   N3    S    
H3    N3    S    
Cu1   O1    S    
C26   H28   S    
H7    N4    S    
C19   N4    S    
C21   H17   S    
C19   H10   S    
C4    C7    T    
C25   C26   S    
C17   H45   S    
C21   H19   S    
Cu1   Cu2   S    
C18   H6    S    
C22   H24   S    
C30   H38   S    
C29   H41   S    
C11   C27   S    
C24   H22   S    
C15   H23   S    
C9    C11   A    
C15   H1    S    
C4    C32   S    
C16   H2    S    
C10   C25   S    
C1    O3    A    
C3    C8    T    
C36   N1    A    
C22   C24   S    
C28   H33   S    
C33   O6    A    
Cu1   N1    S    
C26   H27   S    
C14   H34   S    
C13   C31   A    
C28   H32   S    
H11   N5    S    
C20   H15   S    
C10   C13   A    
C14   C34   S    
C21   H18   S    
C6    C7    S    
C10   C23   A    
C6    N5    S    
C20   N5    S    
C18   N3    S    
C20   H14   S    
C18   H5    S    
C30   H37   S    
C35   N1    A    
C24   H21   S    
Cu2   O3    S    
C11   C23   A    
Cu1   O4    S    
C2    N2    A    
C34   C36   A    
C9    C31   A    
C32   O5    A    
C24   H20   S    
Cu2   O6    S    
C27   C28   S    
C5    C8    S    
C14   C15   S    
C27   H35   S    
