data_mof_unit_53002.cif
_audit_creation_date              2012-12-10T22:11:09-0500
_audit_creation_method            fapswitch 2.2
_symmetry_space_group_name_H-M    P1
_symmetry_Int_Tables_number       1
_space_group_crystal_system       triclinic
_cell_length_a                    12.117159
_cell_length_b                    12.316975
_cell_length_c                    22.938123
_cell_angle_alpha                 90.888001
_cell_angle_beta                  90.497141
_cell_angle_gamma                 90.953585
_cell_volume                      3422.41827668

loop_
_atom_site_label
_atom_site_type_symbol
_atom_type_description
_atom_site_fract_x
_atom_site_fract_y
_atom_site_fract_z
_atom_type_partial_charge
C1    C     C_R   0.657677 0.998418 0.579007 0.875260
C2    C     C_R   0.342326 0.001581 0.420992 0.875251
C3    C     C_R   0.894120 0.780805 0.144406 -0.202156
C4    C     C_R   0.105885 0.219133 0.855626 -0.202169
C5    C     C_R   0.093088 0.890882 0.172192 0.472238
C6    C     C_R   0.906890 0.109181 0.827772 0.472205
C7    C     C_R   0.090172 0.808310 0.130031 -0.305070
C8    C     C_R   0.909808 0.191755 0.869931 -0.305057
C9    C     C_R   0.900171 0.131494 0.177325 -0.179523
C10   C     C_R   0.099846 0.868457 0.822646 -0.179486
C11   C     C_R   0.900289 0.213017 0.136761 -0.198453
C12   C     C_R   0.099726 0.786933 0.863210 -0.198457
C13   C     C_R   0.142725 0.908251 0.305175 -0.091667
C14   C     C_R   0.857360 0.091757 0.694780 -0.091601
C15   C     C_R   0.224701 0.906616 0.347493 -0.207658
C16   C     C_R   0.775383 0.093395 0.652463 -0.207643
C17   C     C_R   0.846061 0.103084 0.306565 -0.178958
C18   C     C_R   0.153880 0.896908 0.693404 -0.178904
C19   C     C_R   0.766177 0.101047 0.349118 -0.191677
C20   C     C_R   0.233763 0.898943 0.650851 -0.191684
C21   C     C_3   0.995776 0.009013 0.247789 -0.097835
C22   C     C_3   0.004225 0.990988 0.752210 -0.097869
C23   C     C_R   0.654488 0.001799 0.420513 0.869661
C24   C     C_R   0.345512 0.998201 0.579487 0.869673
C25   C     C_R   0.092204 0.006641 0.290689 0.208738
C26   C     C_R   0.907806 0.993357 0.709306 0.208836
C27   C     C_R   0.255137 0.002419 0.377404 -0.029357
C28   C     C_R   0.744871 0.997578 0.622592 -0.029381
C29   C     C_R   0.896951 0.006429 0.288319 0.096163
C30   C     C_R   0.103053 0.993570 0.711683 0.096148
C31   C     C_R   0.737411 0.003078 0.375435 -0.024306
C32   C     C_R   0.262588 0.996922 0.624565 -0.024323
C33   C     C_R   0.996689 0.108313 0.209097 0.131888
C34   C     C_R   0.003310 0.891691 0.790903 0.131812
C35   C     C_R   0.997767 0.271087 0.125814 -0.025192
C36   C     C_R   0.002230 0.728919 0.874188 -0.025195
C37   C     C_R   0.995725 0.914874 0.203481 0.075136
C38   C     C_R   0.004271 0.085127 0.796517 0.075177
C39   C     C_R   0.991720 0.752164 0.116919 -0.069176
C40   C     C_R   0.008275 0.247838 0.883078 -0.069199
C41   C     C_R   0.992850 0.663035 0.074910 0.895758
C42   C     C_R   0.007150 0.336965 0.925089 0.895769
C43   C     C_R   0.998801 0.352831 0.081218 0.872293
C44   C     C_R   0.001199 0.647171 0.918782 0.872293
C45   C     C_R   0.118650 0.100694 0.323968 -0.200478
C46   C     C_R   0.881293 0.899284 0.676062 -0.200486
C47   C     C_R   0.200864 0.099165 0.365987 -0.196351
C48   C     C_R   0.799076 0.900815 0.634044 -0.196348
C49   C     C_R   0.869437 0.908937 0.316512 -0.167103
C50   C     C_R   0.130625 0.091074 0.683520 -0.167146
C51   C     C_R   0.789112 0.906937 0.358916 -0.193770
C52   C     C_R   0.210947 0.093073 0.641115 -0.193762
C53   C     C_R   0.094536 0.167195 0.197339 -0.110655
C54   C     C_R   0.905445 0.832874 0.802698 -0.110765
C55   C     C_R   0.094661 0.248419 0.156430 -0.219760
C56   C     C_R   0.905317 0.751649 0.843607 -0.219768
C57   C     C_R   0.895706 0.862281 0.186566 -0.266904
C58   C     C_R   0.104297 0.137656 0.813467 -0.266852
H1    H     H_    0.220826 0.173467 0.389974 0.159141
H2    H     H_    0.779058 0.826499 0.610089 0.159158
H3    H     H_    0.911547 0.834324 0.306185 0.133585
H4    H     H_    0.088561 0.165699 0.693869 0.133580
H5    H     H_    0.172426 0.148814 0.217895 0.182425
H6    H     H_    0.827547 0.851299 0.782166 0.182504
H7    H     H_    0.817466 0.884698 0.205136 0.164894
H8    H     H_    0.182540 0.115191 0.794921 0.164873
H9    H     H_    0.824620 0.085063 0.183437 0.144558
H10   H     H_    0.175414 0.914843 0.816511 0.144536
H11   H     H_    0.118420 0.832003 0.284433 0.117897
H12   H     H_    0.881718 0.168010 0.715497 0.117855
H13   H     H_    0.870077 0.181358 0.289640 0.138163
H14   H     H_    0.129817 0.818633 0.710307 0.138150
H15   H     H_    0.769368 0.830639 0.379575 0.155401
H16   H     H_    0.230736 0.169380 0.620480 0.155411
H17   H     H_    0.171132 0.292036 0.148076 0.159655
H18   H     H_    0.828832 0.708082 0.851987 0.159681
H19   H     H_    0.816549 0.740078 0.133551 0.167973
H20   H     H_    0.183465 0.259809 0.866510 0.167987
H21   H     H_    0.165276 0.788504 0.107187 0.156631
H22   H     H_    0.834692 0.211609 0.892748 0.156647
H23   H     H_    0.824738 0.228374 0.112911 0.160768
H24   H     H_    0.175294 0.771529 0.887033 0.160769
H25   H     H_    0.263890 0.830337 0.356830 0.155092
H26   H     H_    0.736252 0.169684 0.643096 0.155100
H27   H     H_    0.728223 0.176653 0.361947 0.156667
H28   H     H_    0.271668 0.823331 0.637998 0.156678
H29   H     H_    0.075631 0.175859 0.317204 0.132203
H30   H     H_    0.924259 0.824103 0.682852 0.132187
O1    O     O_R   0.621380 0.090460 0.561410 -0.627597
O2    O     O_R   0.378620 0.909540 0.438590 -0.627594
O3    O     O_R   0.617150 0.909540 0.438590 -0.629903
O4    O     O_R   0.382850 0.090460 0.561410 -0.629906
O5    O     O_R   0.619720 0.093230 0.440890 -0.628401
O6    O     O_R   0.380280 0.906770 0.559110 -0.628404
O7    O     O_R   0.618800 0.906770 0.559110 -0.630015
O8    O     O_R   0.381200 0.093230 0.440890 -0.630007
O9    O     O_R   0.087590 0.627480 0.058790 -0.630197
O10   O     O_R   0.912410 0.372520 0.941210 -0.630205
O11   O     O_R   0.905660 0.383870 0.059980 -0.631844
O12   O     O_R   0.094340 0.616130 0.940020 -0.631847
O13   O     O_R   0.092570 0.390420 0.063230 -0.626048
O14   O     O_R   0.907430 0.609580 0.936770 -0.626060
O15   O     O_R   0.900680 0.620930 0.055550 -0.627402
O16   O     O_R   0.099320 0.379070 0.944450 -0.627403
Zn1   Zn    Zn3+2 0.501730 0.123520 0.501540 0.939381
Zn2   Zn    Zn3+2 0.498270 0.876480 0.498460 0.939379
Zn3   Zn    Zn3+2 0.125690 0.504390 0.002180 0.940606
Zn4   Zn    Zn3+2 0.874310 0.495610 0.997820 0.940600
O17   O     O_3   0.189741 0.949063 0.183291 -0.803521
H31   H     H_    0.249031 0.922163 0.157562 0.328817
O18   O     O_3   0.810218 0.051055 0.816646 -0.803581
H32   H     H_    0.750911 0.078015 0.842341 0.328826

loop_
_geom_bond_atom_site_label_1
_geom_bond_atom_site_label_2
_ccdc_geom_bond_type
C16   C28   A    
O8    Zn1   S    
O13   Zn3   S    
C56   H18   S    
C5    C37   A    
C53   H5    S    
C17   C29   A    
C6    O18   S    
O18   H32   S    
C19   C31   A    
C43   O13   A    
C39   C41   S    
C29   C49   A    
C11   H23   S    
O11   Zn4   S    
C13   H11   S    
C45   H29   S    
C43   O11   A    
C52   H16   S    
C42   O10   A    
C21   C33   S    
C22   C38   S    
C16   H26   S    
O10   Zn4   S    
C24   C32   S    
C2    O2    A    
C32   C52   A    
O5    Zn1   S    
C38   C58   A    
C11   C35   A    
C58   H8    S    
O6    Zn2   S    
C4    C40   A    
C49   C51   A    
C18   H14   S    
C20   H28   S    
C1    C28   S    
C50   C52   A    
C6    C38   A    
O14   Zn4   S    
O15   Zn4   S    
C18   C30   A    
C14   C16   A    
C12   C36   A    
C35   C43   S    
C18   C20   A    
C55   H17   S    
C45   C47   A    
C30   C50   A    
C3    C39   A    
C9    C33   A    
C14   H12   S    
O3    Zn2   S    
C13   C25   A    
C24   O4    A    
C48   H2    S    
C46   H30   S    
C53   C55   A    
C33   C53   A    
C22   C34   S    
C46   C48   A    
C49   H3    S    
C35   C55   A    
O2    Zn2   S    
C31   C51   A    
C5    C7    A    
C44   O14   A    
C15   H25   S    
C21   C29   S    
C23   O5    A    
C23   C31   S    
C9    H9    S    
C4    H20   S    
C36   C56   A    
O7    Zn2   S    
C24   O6    A    
C15   C27   A    
C1    O7    A    
C12   H24   S    
C10   C34   A    
C14   C26   A    
C9    C11   A    
C2    C27   S    
C10   C12   A    
C3    C57   A    
C17   H13   S    
C13   C15   A    
C50   H4    S    
C23   O3    A    
C36   C44   S    
O1    Zn1   S    
C3    H19   S    
C25   C45   A    
C7    H21   S    
C20   C32   A    
C27   C47   A    
C21   C25   S    
C28   C48   A    
O12   Zn3   S    
C1    O1    A    
C22   C30   S    
C51   H15   S    
C57   H7    S    
C19   H27   S    
C42   O16   A    
C6    C8    A    
C54   C56   A    
C34   C54   A    
C10   H10   S    
C8    C40   A    
C2    O8    A    
O17   H31   S    
C44   O12   A    
C54   H6    S    
C40   C42   S    
C17   C19   A    
C41   O9    A    
C26   C46   A    
C47   H1    S    
O9    Zn3   S    
C41   O15   A    
O4    Zn1   S    
C21   C37   S    
C22   C26   S    
C4    C58   A    
C8    H22   S    
C7    C39   A    
C5    O17   S    
O16   Zn3   S    
C37   C57   A    
