data_mof_unit_24754.cif
_audit_creation_date              2012-12-10T18:31:48-0500
_audit_creation_method            fapswitch 2.2
_symmetry_space_group_name_H-M    P1
_symmetry_Int_Tables_number       1
_space_group_crystal_system       triclinic
_cell_length_a                    10.644468
_cell_length_b                    14.980891
_cell_length_c                    15.455507
_cell_angle_alpha                 82.276696
_cell_angle_beta                  89.428704
_cell_angle_gamma                 104.428034
_cell_volume                      2362.78296284

loop_
_atom_site_label
_atom_site_type_symbol
_atom_type_description
_atom_site_fract_x
_atom_site_fract_y
_atom_site_fract_z
_atom_type_partial_charge
C1    C     C_R   0.483610 0.441792 0.662201 0.871929
C2    C     C_3   0.120672 0.499241 0.499984 0.073312
C3    C     C_3   0.073600 0.506761 0.404271 -0.168629
C4    C     C_3   0.100647 0.585168 0.540342 -0.402127
C5    C     C_R   0.493917 0.407897 0.754284 -0.085492
C6    C     C_R   0.546759 0.594638 0.245116 -0.126002
C7    C     C_R   0.533814 0.292284 0.869741 -0.026857
C8    C     C_R   0.506955 0.318119 0.782506 -0.247907
C9    C     C_R   0.506875 0.471827 0.812680 -0.250950
C10   C     C_R   0.548227 0.452739 0.896607 0.085326
C11   C     C_R   0.557020 0.360728 0.927346 0.081080
C12   C     C_R   0.741775 0.500132 0.501526 0.832485
C13   C     C_R   0.576364 0.523166 0.951289 0.087132
C14   C     C_R   0.588400 0.497428 0.041065 0.104421
C15   C     C_R   0.604143 0.407428 0.070143 -0.230906
C16   C     C_R   0.592276 0.341313 0.013639 -0.179272
C17   C     C_R   0.594140 0.618585 0.918963 -0.254154
C18   C     C_R   0.605411 0.684695 0.975239 -0.124784
C19   C     C_R   0.593386 0.657594 0.065842 0.010098
C20   C     C_R   0.583554 0.562551 0.098707 0.045387
C21   C     C_R   0.587542 0.721773 0.124688 0.459466
C22   C     C_R   0.564562 0.689194 0.214032 -0.256102
C23   C     C_R   0.520814 0.558360 0.337801 0.930195
C24   C     C_R   0.557633 0.532828 0.187835 -0.244327
C25   C     C_R   0.687951 0.841372 0.640021 -0.297239
C26   C     C_R   0.658019 0.752645 0.616582 0.011401
C27   C     C_R   0.516500 0.794210 0.509504 -0.046058
C28   C     C_R   0.542695 0.885750 0.529985 0.001481
C29   C     C_R   0.630437 0.908292 0.596982 0.165560
C30   C     C_R   0.485035 0.954707 0.486988 0.078437
C31   C     C_R   0.516239 0.045642 0.512293 0.075828
C32   C     C_R   0.604137 0.064659 0.579491 -0.207738
C33   C     C_R   0.659955 0.997142 0.620745 -0.166577
C34   C     C_R   0.257748 0.499395 0.500295 0.830370
C35   C     C_R   0.397318 0.935733 0.419688 -0.209386
C36   C     C_R   0.341161 0.003138 0.378632 -0.180312
C37   C     C_R   0.370239 0.091863 0.402641 0.160245
C38   C     C_R   0.458210 0.114495 0.469494 0.003763
C39   C     C_R   0.312019 0.158563 0.360000 -0.287689
C40   C     C_R   0.341610 0.247201 0.383599 0.038523
C41   C     C_R   0.484036 0.205960 0.490140 -0.053530
C42   C     C_3   0.895436 0.410844 0.557866 -0.383215
C43   C     C_3   0.039334 0.410515 0.557759 -0.370831
C44   C     C_3   0.927708 0.504131 0.406353 -0.442853
C45   C     C_3   0.958203 0.586526 0.540164 -0.398148
C46   C     C_3   0.878279 0.500720 0.501667 0.152427
H1    H     H_    0.839623 0.347771 0.531534 0.199049
H2    H     H_    0.158759 0.651353 0.502289 0.184881
H3    H     H_    0.912810 0.567290 0.365140 0.156125
H4    H     H_    0.127026 0.576236 0.369616 0.131194
H5    H     H_    0.610090 0.275032 0.038982 0.194325
H6    H     H_    0.539183 0.459961 0.213404 0.170831
H7    H     H_    0.557835 0.737112 0.259371 0.212748
H8    H     H_    0.617813 0.756285 0.946356 0.219325
H9    H     H_    0.495520 0.268074 0.736766 0.181551
H10   H     H_    0.484681 0.537494 0.791079 0.163993
H11   H     H_    0.857829 0.406728 0.626163 0.160426
H12   H     H_    0.630769 0.387596 0.135851 0.153844
H13   H     H_    0.603119 0.644413 0.849911 0.148651
H14   H     H_    0.726806 0.014704 0.671962 0.167465
H15   H     H_    0.549516 0.230569 0.539235 0.126323
H16   H     H_    0.297947 0.299726 0.351074 0.158388
H17   H     H_    0.274286 0.985558 0.327433 0.161845
H18   H     H_    0.755059 0.857478 0.691357 0.157083
H19   H     H_    0.701328 0.699958 0.649362 0.131778
H20   H     H_    0.451194 0.769667 0.460304 0.127444
H21   H     H_    0.072501 0.408530 0.625935 0.160032
H22   H     H_    0.632383 0.131238 0.602341 0.148006
H23   H     H_    0.369366 0.869245 0.396657 0.145928
H24   H     H_    0.244638 0.142361 0.308836 0.164769
H25   H     H_    0.051898 0.346207 0.534325 0.222665
H26   H     H_    0.869620 0.442944 0.378250 0.199734
H27   H     H_    0.948750 0.652158 0.500497 0.192021
H28   H     H_    0.922046 0.585947 0.608174 0.176774
H29   H     H_    0.133412 0.582861 0.608662 0.189776
N1    N     N_R   0.573860 0.731700 0.552730 -0.101306
N2    N     N_R   0.426060 0.268290 0.447230 -0.108746
O1    O     O_R   0.462770 0.383110 0.605620 -0.616647
O2    O     O_R   0.510160 0.531900 0.639510 -0.622617
O3    O     O_R   0.661510 0.425600 0.483070 -0.629557
O4    O     O_R   0.708900 0.574390 0.516960 -0.626289
O5    O     O_R   0.489840 0.468100 0.360490 -0.615128
O6    O     O_R   0.537230 0.616890 0.394380 -0.619930
O7    O     O_R   0.291100 0.425610 0.483040 -0.605585
O8    O     O_R   0.338490 0.574400 0.516930 -0.628237
Zn1   Zn    Zn3+2 0.468350 0.400660 0.477370 0.953865
Zn2   Zn    Zn3+2 0.531650 0.599340 0.522630 0.939755
C47   C     C_2   0.535908 0.193817 0.897437 0.904979
O9    O     O_2   0.584911 0.152944 0.848435 -0.613413
O10   O     O_R   0.476701 0.146286 0.977390 -0.798896
H30   H     H_    0.483661 0.079444 0.988111 0.375868
S1    S     S_3+6 0.603600 0.841931 0.089593 0.006842
O11   O     O_2   0.732027 0.883213 0.040468 -0.294248
O12   O     O_2   0.495791 0.852966 0.030261 -0.304533
O13   O     O_3   0.595973 0.898695 0.175567 -0.563858
H31   H     H_    0.601009 0.963756 0.149716 0.391337
C48   C     C_2   0.102012 0.435271 0.351336 0.921333
O14   O     O_2   0.048543 0.352541 0.370948 -0.638302
O15   O     O_R   0.189710 0.464968 0.279092 -0.811154
H32   H     H_    0.201117 0.411605 0.248422 0.339717

loop_
_geom_bond_atom_site_label_1
_geom_bond_atom_site_label_2
_ccdc_geom_bond_type
C44   H3    S    
C24   H6    S    
O6    Zn2   S    
C23   O5    A    
O13   H31   S    
C16   H5    S    
C41   H15   S    
O2    Zn2   S    
C48   O14   D    
C7    C8    A    
C45   C46   S    
C7    C11   A    
C23   O6    A    
C30   C35   A    
C1    C5    S    
C36   C37   A    
C19   C21   A    
O7    Zn1   S    
C41   N2    A    
C30   C31   A    
C15   C16   A    
C6    C22   A    
C29   C33   A    
C40   H16   S    
C8    H9    S    
C45   H27   S    
C18   C19   A    
C42   C46   S    
C7    C47   S    
C20   C24   A    
C4    H29   S    
O3    Zn1   S    
C19   C20   A    
C26   N1    A    
C36   H17   S    
C9    C10   A    
C32   H22   S    
O1    Zn1   S    
C21   C22   A    
C1    O1    A    
C34   O7    A    
C42   H11   S    
C48   O15   S    
C3    H4    S    
C44   C46   S    
C22   H7    S    
C4    C45   S    
O8    Zn2   S    
C25   C29   A    
C3    C44   S    
C14   C20   A    
C38   C41   A    
C12   C46   S    
C39   C40   A    
C25   C26   A    
O5    Zn1   S    
S1    O13   S    
C45   H28   S    
C34   O8    A    
C2    C4    S    
C5    C9    A    
C37   C38   A    
C11   C16   A    
C3    C48   S    
O15   H32   S    
C2    C43   S    
C6    C24   A    
S1    O12   D    
C17   C18   A    
C9    H10   S    
N1    Zn2   S    
O4    Zn2   S    
C17   H13   S    
C47   O10   S    
N2    Zn1   S    
C33   H14   S    
C1    O2    A    
C15   H12   S    
C42   C43   S    
C27   N1    A    
C4    H2    S    
C28   C29   A    
C43   H25   S    
C14   C15   A    
C26   H19   S    
C31   C32   A    
C10   C13   A    
C5    C8    A    
C31   C38   A    
C13   C17   A    
C32   C33   A    
C28   C30   A    
C2    C3    S    
C37   C39   A    
C27   H20   S    
C2    C34   S    
O10   H30   S    
C6    C23   S    
C12   O3    A    
S1    O11   D    
C39   H24   S    
C12   O4    A    
C44   H26   S    
C42   H1    S    
C10   C11   A    
C18   H8    S    
C47   O9    D    
C35   H23   S    
C43   H21   S    
C27   C28   A    
C40   N2    A    
C35   C36   A    
C13   C14   A    
C25   H18   S    
C21   S1    S    
