data_mof_unit_61189.cif
_audit_creation_date              2013-03-05T16:04:57-0500
_audit_creation_method            fapswitch 2.2
_symmetry_space_group_name_H-M    P1
_symmetry_Int_Tables_number       1
_space_group_crystal_system       triclinic
_cell_length_a                    10.9751
_cell_length_b                    9.562804
_cell_length_c                    14.338647
_cell_angle_alpha                 90.259713
_cell_angle_beta                  92.193775
_cell_angle_gamma                 90.677651
_cell_volume                      1503.6533015

loop_
_atom_site_label
_atom_site_type_symbol
_atom_site_description
_atom_site_fract_x
_atom_site_fract_y
_atom_site_fract_z
_atom_type_partial_charge
O1    O     O_R   0.319640 0.618740 0.499990 -0.546451
O2    O     O_R   0.680360 0.381260 0.500010 -0.546451
O3    O     O_R   0.680360 0.618740 0.500010 -0.547882
O4    O     O_R   0.319640 0.381260 0.499990 -0.547883
C1    C     C_R   0.262324 0.499075 0.503859 0.881131
C2    C     C_R   0.737676 0.500925 0.496141 0.881131
O5    O     O_R   0.500000 0.618810 0.376050 -0.574596
O6    O     O_R   0.500000 0.381190 0.623950 -0.574596
O7    O     O_R   0.500000 0.618810 0.623950 -0.566968
O8    O     O_R   0.500000 0.381190 0.376050 -0.566967
C3    C     C_R   0.499739 0.499743 0.331107 0.813095
C4    C     C_R   0.500261 0.500257 0.668893 0.813095
Cu1   Cu    Cu3+1 0.500000 0.640660 0.500000 1.038246
Cu2   Cu    Cu3+1 0.500000 0.359340 0.500000 1.038246
N1    N     N_R   0.500000 0.852070 0.500000 -0.201211
N2    N     N_R   0.500000 0.147930 0.500000 -0.201211
C5    C     C_1   0.499755 0.499320 0.228788 -0.123823
C6    C     C_1   0.500245 0.500680 0.771212 -0.123823
C7    C     C_1   0.499807 0.499409 0.143368 0.034042
C8    C     C_1   0.500193 0.500591 0.856632 0.034042
C9    C     C_1   0.499935 0.499800 0.042713 0.044436
C10   C     C_1   0.500064 0.500200 0.957287 0.044436
C11   C     C_R   0.060830 0.371564 0.492920 0.224867
C12   C     C_R   0.939169 0.628436 0.507080 0.224867
C13   C     C_R   0.934036 0.375199 0.481066 0.230766
C14   C     C_R   0.065964 0.624801 0.518934 0.230766
C15   C     C_R   0.871761 0.502549 0.491931 -0.358623
C16   C     C_R   0.128239 0.497451 0.508069 -0.358623
C17   C     C_R   0.430815 0.072924 0.435125 0.058471
C18   C     C_R   0.569185 0.927076 0.564875 0.058471
C19   C     C_R   0.570235 0.075878 0.564222 0.053732
C20   C     C_R   0.429765 0.924122 0.435778 0.053731
N3    N     N_R   0.119316 0.238109 0.490468 0.173495
O9    O     O_R   0.167778 0.187156 0.567095 -0.279175
O10   O     O_R   0.100791 0.155886 0.418661 -0.262320
N4    N     N_R   0.880684 0.761891 0.509532 0.173495
O11   O     O_R   0.832222 0.812844 0.432905 -0.279175
O12   O     O_R   0.899209 0.844114 0.581339 -0.262320
N5    N     N_R   0.869569 0.248238 0.455529 0.182055
O13   O     O_R   0.814125 0.237064 0.373928 -0.310415
O14   O     O_R   0.875008 0.140018 0.510106 -0.238576
N6    N     N_R   0.130430 0.751762 0.544471 0.182055
O15   O     O_R   0.185875 0.762935 0.626072 -0.310415
O16   O     O_R   0.124992 0.859982 0.489894 -0.238576
C21   C     C_1   0.361244 0.144913 0.363020 0.379234
N7    N     N_1   0.306004 0.201364 0.304299 -0.234171
C22   C     C_1   0.638756 0.855087 0.636980 0.379234
N8    N     N_1   0.693996 0.798636 0.695701 -0.234171
C23   C     C_1   0.647662 0.151286 0.631436 0.375066
N9    N     N_1   0.710215 0.210602 0.685516 -0.244426
C24   C     C_1   0.352338 0.848714 0.368564 0.375066
N10   N     N_1   0.289785 0.789398 0.314484 -0.244425

loop_
_geom_bond_atom_site_label_1
_geom_bond_atom_site_label_2
_geom_bond_distance
_ccdc_geom_bond_type
C20   C24   1.444804 S    
C13   C15   1.414436 A    
C1    C16   1.475048 S    
C14   C16   1.414436 A    
C22   N8    1.157887 T    
O3    Cu1   1.992994 S    
C12   C15   1.417028 A    
O6    C4    1.305706 A    
O3    C2    1.298835 A    
N4    O12   1.300968 A    
N3    O9    1.301452 A    
N1    C20   1.371452 A    
N5    O14   1.300834 A    
O2    C2    1.301728 A    
Cu1   Cu2   2.690208 S    
C13   N5    1.436846 S    
N2    C19   1.371451 A    
O5    C3    1.305706 A    
N3    O10   1.300968 A    
C12   N4    1.436191 S    
N6    O16   1.300834 A    
C19   C23   1.444804 S    
O1    C1    1.301728 A    
C9    C10   1.224976 T    
N4    O11   1.301452 A    
C7    C9    1.443326 S    
C12   C14   1.396313 A    
C17   C20   1.422949 A    
C6    C8    1.224835 T    
Cu1   N1    2.021672 S    
O4    Cu2   1.992996 S    
C18   C19   1.422949 A    
O2    Cu2   1.988063 S    
O7    C4    1.306570 A    
Cu2   N2    2.021673 S    
O1    Cu1   1.988065 S    
N6    O15   1.301361 A    
C24   N10   1.157759 T    
C21   N7    1.157887 T    
C18   C22   1.443703 S    
O5    Cu1   1.788575 S    
C11   C13   1.396312 A    
C14   N6    1.436846 S    
N1    C18   1.372346 A    
C23   N9    1.157759 T    
O8    C3    1.306571 A    
C4    C6    1.467107 S    
N5    O13   1.301361 A    
O7    Cu1   1.790456 S    
C3    C5    1.467107 S    
O6    Cu2   1.788575 S    
C5    C7    1.224835 T    
N2    C17   1.372348 A    
C11   C16   1.417029 A    
C17   C21   1.443703 S    
C2    C15   1.475048 S    
C8    C10   1.443326 S    
O4    C1    1.298833 A    
C11   N3    1.436192 S    
O8    Cu2   1.790456 S    
