data_mof_unit_28505.cif
_audit_creation_date              2012-12-11T14:08:30-0500
_audit_creation_method            fapswitch 2.2
_symmetry_space_group_name_H-M    P1
_symmetry_Int_Tables_number       1
_space_group_crystal_system       triclinic
_cell_length_a                    28.089739
_cell_length_b                    7.153701
_cell_length_c                    17.305568
_cell_angle_alpha                 89.972952
_cell_angle_beta                  101.269632
_cell_angle_gamma                 90.06813
_cell_volume                      3410.42371325

loop_
_atom_site_label
_atom_site_type_symbol
_atom_type_description
_atom_site_fract_x
_atom_site_fract_y
_atom_site_fract_z
_atom_type_partial_charge
O1    O     O_R   0.000700 0.436510 0.857920 -0.545479
O2    O     O_R   0.999300 0.563490 0.142080 -0.545480
O3    O     O_R   0.999300 0.936510 0.642080 -0.545421
O4    O     O_R   0.000700 0.063490 0.357920 -0.545422
O5    O     O_R   0.930080 0.766380 0.721890 -0.512010
O6    O     O_R   0.069920 0.233620 0.278110 -0.512010
O7    O     O_R   0.069920 0.266380 0.778110 -0.514018
O8    O     O_R   0.930080 0.733620 0.221890 -0.514021
C1    C     C_R   0.910461 0.597555 0.708522 0.755332
C2    C     C_R   0.089539 0.402445 0.291478 0.755329
C3    C     C_R   0.089526 0.097706 0.791275 0.754523
C4    C     C_R   0.910474 0.902294 0.208725 0.754537
O9    O     O_R   0.996180 0.766230 0.862310 -0.544665
O10   O     O_R   0.003820 0.233770 0.137690 -0.544663
O11   O     O_R   0.003820 0.266230 0.637690 -0.545213
O12   O     O_R   0.996180 0.733770 0.362310 -0.545213
O13   O     O_R   0.065870 0.936460 0.783500 -0.510156
O14   O     O_R   0.934130 0.063540 0.216500 -0.510154
O15   O     O_R   0.934130 0.436460 0.716500 -0.510019
O16   O     O_R   0.065870 0.563540 0.283500 -0.510019
C5    C     C_R   0.997778 0.595551 0.894060 0.752761
C6    C     C_R   0.002222 0.404449 0.105940 0.752765
C7    C     C_R   0.002206 0.095652 0.605920 0.750031
C8    C     C_R   0.997794 0.904348 0.394080 0.750032
O17   O     O_3   0.022790 0.603020 0.723980 -0.373030
O18   O     O_3   0.977210 0.396980 0.276020 -0.373032
O19   O     O_3   0.977210 0.103020 0.776020 -0.371812
O20   O     O_3   0.022790 0.896980 0.223980 -0.371812
V1    V     V_3+5 0.995770 0.877900 0.754830 1.496383
V2    V     V_3+5 0.004230 0.122100 0.245170 1.496390
V3    V     V_3+5 0.004230 0.377900 0.745170 1.494590
V4    V     V_3+5 0.995770 0.622100 0.254830 1.494590
C9    C     C_2   0.008365 0.077469 0.522901 -0.034106
C10   C     C_2   0.991635 0.922531 0.477099 -0.034104
C11   C     C_2   0.991353 0.576785 0.976923 -0.032913
C12   C     C_2   0.008647 0.423216 0.023077 -0.032905
C13   C     C_R   0.683076 0.904341 0.024559 0.585322
C14   C     C_R   0.316925 0.095661 0.975439 0.585324
C15   C     C_R   0.317023 0.400218 0.474614 0.583968
C16   C     C_R   0.682977 0.599781 0.525385 0.583969
O21   O     O_2   0.712604 0.840964 0.977702 -0.532206
O22   O     O_2   0.287396 0.159038 0.022297 -0.532205
O23   O     O_2   0.287592 0.329800 0.520264 -0.534338
O24   O     O_2   0.712408 0.670199 0.479735 -0.534338
N1    N     N_R   0.702851 0.945739 0.101361 -0.530269
N2    N     N_R   0.297149 0.054264 0.898637 -0.530270
N3    N     N_R   0.297135 0.450086 0.398801 -0.525000
N4    N     N_R   0.702866 0.549913 0.601198 -0.525000
C17   C     C_R   0.674917 0.012108 0.151582 0.586578
C18   C     C_R   0.325084 0.987896 0.848417 0.586578
C19   C     C_R   0.324906 0.524856 0.350009 0.584672
C20   C     C_R   0.675094 0.475142 0.649991 0.584672
C21   C     C_R   0.775206 0.776160 0.175011 0.069732
C22   C     C_R   0.224793 0.223845 0.824990 0.069732
C23   C     C_R   0.224933 0.276668 0.327842 0.075112
C24   C     C_R   0.775067 0.723331 0.672158 0.075112
C25   C     C_R   0.825912 0.771533 0.204430 0.379547
C26   C     C_R   0.174088 0.228471 0.795571 0.379554
C27   C     C_R   0.174108 0.269159 0.298968 0.388386
C28   C     C_R   0.825892 0.730839 0.701032 0.388385
C29   C     C_R   0.835228 0.061038 0.133919 0.397045
C30   C     C_R   0.164773 0.938959 0.866078 0.397043
C31   C     C_R   0.164822 0.565841 0.364398 0.397063
C32   C     C_R   0.835178 0.434160 0.635601 0.397064
C33   C     C_R   0.784762 0.070386 0.109588 -0.231349
C34   C     C_R   0.215239 0.929612 0.890409 -0.231340
C35   C     C_R   0.215287 0.576960 0.388247 -0.226671
C36   C     C_R   0.784713 0.423040 0.611751 -0.226668
C37   C     C_R   0.754636 0.929260 0.128709 0.269697
C38   C     C_R   0.245364 0.070741 0.871290 0.269692
C39   C     C_R   0.245369 0.433807 0.371241 0.266695
C40   C     C_R   0.754631 0.566192 0.628759 0.266694
C41   C     C_R   0.602723 0.984199 0.048416 -0.080128
C42   C     C_R   0.397278 0.015804 0.951583 -0.080128
C43   C     C_R   0.397253 0.486941 0.452077 -0.078981
C44   C     C_R   0.602747 0.513058 0.547922 -0.078981
C45   C     C_R   0.632382 0.926071 0.995221 -0.040419
C46   C     C_R   0.367618 0.073932 0.004778 -0.040419
C47   C     C_R   0.367730 0.420862 0.504182 -0.038862
C48   C     C_R   0.632270 0.579136 0.495817 -0.038863
C49   C     C_R   0.610341 0.901104 0.914678 0.149377
C50   C     C_R   0.389660 0.098899 0.085321 0.149376
C51   C     C_R   0.389935 0.387206 0.584074 0.141684
C52   C     C_R   0.610065 0.612793 0.415925 0.141686
C53   C     C_R   0.624607 0.033948 0.125966 -0.075172
C54   C     C_R   0.375393 0.966056 0.874033 -0.075172
C55   C     C_R   0.375226 0.545936 0.375829 -0.073537
C56   C     C_R   0.624774 0.454062 0.624170 -0.073537
C57   C     C_R   0.856581 0.912026 0.182498 -0.284037
C58   C     C_R   0.143419 0.087974 0.817501 -0.284044
C59   C     C_R   0.143444 0.412664 0.318295 -0.290177
C60   C     C_R   0.856556 0.587336 0.681705 -0.290178
H1    H     H_    0.768801 0.188081 0.074429 0.157069
H2    H     H_    0.231200 0.811915 0.925566 0.157074
H3    H     H_    0.231255 0.697420 0.421526 0.159934
H4    H     H_    0.768745 0.302581 0.578472 0.159934
C61   C     C_R   0.477612 0.933457 0.923488 0.033690
C62   C     C_R   0.522388 0.066547 0.076510 0.033690
C63   C     C_R   0.522506 0.424498 0.574801 0.033448
C64   C     C_R   0.477494 0.575501 0.425198 0.033448
C65   C     C_R   0.470700 0.057551 0.053570 0.009939
C66   C     C_R   0.529300 0.942452 0.946428 0.009939
C67   C     C_R   0.529172 0.565002 0.447433 0.011392
C68   C     C_R   0.470828 0.434996 0.552566 0.011392
C69   C     C_R   0.448750 0.004386 0.975934 0.032400
C70   C     C_R   0.551250 0.995617 0.024064 0.032400
C71   C     C_R   0.551262 0.502888 0.523705 0.030492
C72   C     C_R   0.448738 0.497111 0.476294 0.030492
C73   C     C_R   0.452916 0.849045 0.851714 0.153114
C74   C     C_R   0.547084 0.150959 0.148284 0.153114
C75   C     C_R   0.547265 0.331313 0.644341 0.156476
C76   C     C_R   0.452735 0.668685 0.355658 0.156476
C77   C     C_R   0.403367 0.881939 0.825332 -0.150238
C78   C     C_R   0.596634 0.118065 0.174666 -0.150237
C79   C     C_R   0.596898 0.362140 0.671073 -0.148807
C80   C     C_R   0.403102 0.637858 0.328925 -0.148808
O25   O     O_2   0.304086 0.941887 0.773888 -0.531291
O26   O     O_2   0.695914 0.058117 0.226110 -0.531292
O27   O     O_2   0.696254 0.420274 0.723303 -0.534794
O28   O     O_2   0.303746 0.579724 0.276696 -0.534792
C81   C     C_R   0.559877 0.917367 0.891808 -0.183989
C82   C     C_R   0.440123 0.082635 0.108190 -0.183989
C83   C     C_R   0.440436 0.402513 0.606938 -0.183030
C84   C     C_R   0.559564 0.597486 0.393061 -0.183031
H5    H     H_    0.385871 0.826478 0.768507 0.172433
H6    H     H_    0.614129 0.173526 0.231491 0.172433
H7    H     H_    0.614487 0.299554 0.726418 0.172056
H8    H     H_    0.385513 0.700444 0.273581 0.172056
H9    H     H_    0.544721 0.915567 0.829669 0.148130
H10   H     H_    0.455279 0.084435 0.170329 0.148130
H11   H     H_    0.455803 0.393756 0.668941 0.147621
H12   H     H_    0.544197 0.606243 0.331058 0.147622
C85   C     C_3   0.037978 0.231542 0.494187 -0.795015
H13   H     H_    0.055709 0.324286 0.542709 0.187950
H14   H     H_    0.067699 0.170781 0.468284 0.205905
H15   H     H_    0.014204 0.321800 0.450749 0.233555
C86   C     C_3   0.962022 0.768458 0.505813 -0.795013
H16   H     H_    0.944291 0.675713 0.457291 0.187950
H17   H     H_    0.985797 0.678200 0.549251 0.233555
H18   H     H_    0.932301 0.829219 0.531715 0.205905
C87   C     C_3   0.960580 0.727542 0.004861 -0.795413
H19   H     H_    0.942240 0.817501 0.955761 0.187861
H20   H     H_    0.931276 0.663623 0.030928 0.206817
H21   H     H_    0.983624 0.820733 0.048049 0.232863
C88   C     C_3   0.039420 0.272458 0.995139 -0.795426
H22   H     H_    0.057760 0.182499 0.044239 0.187861
H23   H     H_    0.016376 0.179267 0.951951 0.232861
H24   H     H_    0.068724 0.336378 0.969072 0.206817
O29   O     O_3   0.863357 0.203490 0.112494 -0.522494
C89   C     C_3   0.871675 0.165945 0.036257 -0.204253
H25   H     H_    0.837224 0.168235 0.991751 0.137370
H26   H     H_    0.890576 0.029890 0.034235 0.109338
H27   H     H_    0.895604 0.276818 0.020102 0.146545
O30   O     O_3   0.136645 0.796500 0.887501 -0.522491
C90   C     C_3   0.128315 0.834065 0.963729 -0.204234
H28   H     H_    0.109395 0.970086 0.965728 0.109347
H29   H     H_    0.162762 0.831862 0.008243 0.137349
H30   H     H_    0.104399 0.723157 0.979892 0.146543
O31   O     O_3   0.136760 0.710417 0.383956 -0.519090
C91   C     C_3   0.127810 0.677111 0.460169 -0.193529
H31   H     H_    0.162081 0.678248 0.505108 0.134642
H32   H     H_    0.108066 0.542930 0.462741 0.106356
H33   H     H_    0.104422 0.790890 0.475262 0.144650
O32   O     O_3   0.863240 0.289587 0.616041 -0.519092
C92   C     C_3   0.872191 0.322902 0.539829 -0.193536
H34   H     H_    0.891929 0.457099 0.537257 0.106350
H35   H     H_    0.837922 0.321740 0.494889 0.134650
H36   H     H_    0.895587 0.209142 0.524741 0.144653
C93   C     C_3   0.638817 0.863265 0.850605 -0.675591
H37   H     H_    0.615269 0.859339 0.791056 0.172036
H38   H     H_    0.666033 0.975580 0.849769 0.232315
H39   H     H_    0.656834 0.724853 0.860041 0.248830
C94   C     C_3   0.361183 0.136737 0.149394 -0.675589
H40   H     H_    0.384731 0.140663 0.208942 0.172036
H41   H     H_    0.343167 0.275149 0.139957 0.248830
H42   H     H_    0.333968 0.024421 0.150230 0.232316
C95   C     C_3   0.361610 0.340976 0.647555 -0.665276
H43   H     H_    0.385281 0.331598 0.706903 0.173693
H44   H     H_    0.334401 0.451831 0.650600 0.229122
H45   H     H_    0.343586 0.202962 0.635614 0.250588
C96   C     C_3   0.638390 0.659023 0.352445 -0.665277
H46   H     H_    0.614719 0.668401 0.293096 0.173693
H47   H     H_    0.656414 0.797037 0.364386 0.250587
H48   H     H_    0.665599 0.548168 0.349399 0.229122
O33   O     O_3   0.154627 0.376037 0.747973 -0.524068
C97   C     C_3   0.149377 0.320402 0.668517 -0.176483
H49   H     H_    0.122818 0.204046 0.654207 0.100370
H50   H     H_    0.184733 0.279090 0.653809 0.142135
H51   H     H_    0.135338 0.440760 0.630404 0.142525
O34   O     O_3   0.845372 0.623970 0.252031 -0.524071
C98   C     C_3   0.850622 0.679612 0.331485 -0.176488
H52   H     H_    0.815267 0.720928 0.346192 0.142138
H53   H     H_    0.877182 0.795967 0.345794 0.100370
H54   H     H_    0.864660 0.559256 0.369600 0.142525
O35   O     O_3   0.845630 0.881484 0.746415 -0.524298
C99   C     C_3   0.847519 0.837129 0.826411 -0.191110
H55   H     H_    0.870972 0.713312 0.844825 0.103470
H56   H     H_    0.810570 0.812882 0.838748 0.152354
H57   H     H_    0.863591 0.957347 0.862913 0.144449
O36   O     O_3   0.154369 0.118514 0.253586 -0.524298
C100  C     C_3   0.152481 0.162868 0.173589 -0.191103
H58   H     H_    0.189430 0.187114 0.161252 0.152353
H59   H     H_    0.129027 0.286685 0.155175 0.103469
H60   H     H_    0.136408 0.042650 0.137088 0.144448
C101  C     C_3   0.255962 0.383867 0.806701 -0.606348
H61   H     H_    0.241476 0.517913 0.824738 0.222686
H62   H     H_    0.294215 0.372706 0.838179 0.189606
H63   H     H_    0.255797 0.388403 0.742579 0.210750
C102  C     C_3   0.744037 0.616141 0.193302 -0.606351
H64   H     H_    0.758524 0.482093 0.175268 0.222687
H65   H     H_    0.744202 0.611612 0.257423 0.210752
H66   H     H_    0.705785 0.627300 0.161822 0.189606
C103  C     C_3   0.742346 0.881101 0.687126 -0.655763
H67   H     H_    0.762744 0.000934 0.718122 0.243943
H68   H     H_    0.721472 0.934071 0.630174 0.205438
H69   H     H_    0.716568 0.830026 0.723542 0.208642
C104  C     C_3   0.257653 0.118897 0.312874 -0.655762
H70   H     H_    0.237256 0.999063 0.281878 0.243944
H71   H     H_    0.283432 0.169970 0.276458 0.208642
H72   H     H_    0.278528 0.065927 0.369826 0.205438
C105  C     C_3   0.474310 0.696602 0.808329 -0.811070
H73   H     H_    0.447628 0.581257 0.792663 0.207202
H74   H     H_    0.483036 0.752140 0.752781 0.211451
H75   H     H_    0.506571 0.630535 0.845394 0.224482
C106  C     C_3   0.525690 0.303402 0.191669 -0.811071
H76   H     H_    0.552372 0.418747 0.207335 0.207202
H77   H     H_    0.493430 0.369469 0.154604 0.224482
H78   H     H_    0.516965 0.247864 0.247217 0.211451
C107  C     C_3   0.525727 0.172683 0.684240 -0.816228
H79   H     H_    0.552141 0.055804 0.696627 0.206147
H80   H     H_    0.517406 0.220235 0.741223 0.210181
H81   H     H_    0.493168 0.111341 0.646020 0.225189
C108  C     C_3   0.474273 0.827314 0.315758 -0.816230
H82   H     H_    0.447859 0.944194 0.303372 0.206147
H83   H     H_    0.506832 0.888657 0.353979 0.225190
H84   H     H_    0.482594 0.779762 0.258776 0.210182

loop_
_geom_bond_atom_site_label_1
_geom_bond_atom_site_label_2
_ccdc_geom_bond_type
O17   V3    S    
O1    C5    A    
C92   H34   S    
C62   C74   A    
C23   C27   A    
C90   H29   S    
C18   O25   S    
O13   V1    S    
C93   H37   S    
O12   C8    A    
O3    C7    A    
C11   C12   D    
C31   O31   S    
C48   C52   A    
O4    V2    S    
C21   C37   A    
C106  H78   S    
C88   H22   S    
C41   C70   A    
O29   C89   S    
C23   C104  S    
C68   C83   A    
C94   H40   S    
C104  H72   S    
O7    C3    A    
C86   H17   S    
C36   H4    S    
C25   C57   A    
C54   C77   A    
C32   C36   A    
O9    V1    S    
O32   C92   S    
C24   C28   A    
O10   V2    S    
C14   O22   S    
C105  H75   S    
C87   H20   S    
C22   C26   A    
C78   H6    S    
C33   C37   A    
C101  H63   S    
C76   C80   A    
O19   V1    S    
C76   C108  S    
C96   H46   S    
O1    V3    S    
C102  H66   S    
C79   H7    S    
C84   H12   S    
C102  H64   S    
O2    V4    S    
C100  H58   S    
O3    V1    S    
C41   C45   A    
C107  H80   S    
C106  H77   S    
C1    O15   A    
O31   C91   S    
C2    O16   A    
O36   C100  S    
C24   C40   A    
C89   H27   S    
O2    C6    A    
C85   H15   S    
C45   C49   A    
C16   C48   A    
C52   C84   A    
O14   V2    S    
C49   C93   S    
C66   C81   A    
C108  H82   S    
C44   C56   A    
C61   C66   A    
C73   C77   A    
C34   H2    S    
C61   C69   A    
C28   C60   A    
C22   C101  S    
O11   C7    A    
C63   C68   A    
O15   V3    S    
C43   C72   A    
C92   H35   S    
C26   O33   S    
C35   H3    S    
C100  H59   S    
C31   C59   A    
N4    C40   S    
C99   H57   S    
C67   C84   A    
C1    C60   S    
C88   H23   S    
C29   C57   A    
C9    C10   D    
O5    V1    S    
C103  H68   S    
C65   C69   A    
C86   H18   S    
C31   C35   A    
C64   C72   A    
O7    V3    S    
C51   C95   S    
N1    C37   S    
C98   H52   S    
O8    V4    S    
C91   H33   S    
C17   C53   A    
C4    C57   S    
C20   C56   A    
C99   H56   S    
C96   H47   S    
C19   C55   A    
C30   C34   A    
O18   V4    S    
N3    C19   A    
C14   C46   A    
C7    C9    S    
C104  H70   S    
C103  H67   S    
C13   C45   A    
C64   C67   A    
C8    C10   S    
C30   O30   S    
C49   C81   A    
C36   C40   A    
C91   H32   S    
C98   H53   S    
O34   C98   S    
O5    C1    A    
C107  H79   S    
C9    C85   S    
C105  H73   S    
C26   C58   A    
C46   C50   A    
C90   H30   S    
C17   O26   S    
C22   C38   A    
C50   C94   S    
N1    C17   A    
C27   O36   S    
O8    C4    A    
C95   H45   S    
C63   C75   A    
C19   O28   S    
O30   C90   S    
O9    C5    A    
N2    C38   S    
C27   C59   A    
C42   C54   A    
C108  H83   S    
C41   C53   A    
C24   C103  S    
C94   H41   S    
C11   C87   S    
C75   C79   A    
C43   C55   A    
C92   H36   S    
O6    V2    S    
C2    C59   S    
C64   C76   A    
C44   C71   A    
C80   H8    S    
C85   H13   S    
C75   C107  S    
C100  H60   S    
C89   H26   S    
C87   H21   S    
O12   V4    S    
N3    C39   S    
C13   N1    A    
C74   C78   A    
C68   C72   A    
C88   H24   S    
C73   C105  S    
C15   N3    A    
O16   V4    S    
C103  H69   S    
C16   N4    A    
C101  H61   S    
C3    O13   A    
C21   C25   A    
C96   H48   S    
C83   H11   S    
C32   O32   S    
C6    C12   S    
C44   C48   A    
C81   H9    S    
C99   H55   S    
C74   C106  S    
O6    C2    A    
C94   H42   S    
O11   V3    S    
C5    C11   S    
C107  H81   S    
C62   C65   A    
C63   C71   A    
C86   H16   S    
N2    C18   A    
C10   C86   S    
C65   C82   A    
C62   C70   A    
C91   H31   S    
O10   C6    A    
C56   C79   A    
O20   V2    S    
C61   C73   A    
C98   H54   S    
C25   O34   S    
C105  H74   S    
C87   H19   S    
C42   C69   A    
C47   C51   A    
C3    C58   S    
O33   C97   S    
C34   C38   A    
C43   C47   A    
C29   O29   S    
C97   H51   S    
O4    C8    A    
C30   C58   A    
C33   H1    S    
C102  H65   S    
C55   C80   A    
C95   H44   S    
C66   C70   A    
C35   C39   A    
C13   O21   S    
C104  H71   S    
C108  H84   S    
C50   C82   A    
C14   N2    A    
C53   C78   A    
C18   C54   A    
O35   C99   S    
C20   O27   S    
C29   C33   A    
C12   C88   S    
C16   O24   S    
C77   H5    S    
C15   O23   S    
C21   C102  S    
C95   H43   S    
C42   C46   A    
C4    O14   A    
C90   H28   S    
C85   H14   S    
C32   C60   A    
C89   H25   S    
C67   C71   A    
C93   H39   S    
C51   C83   A    
C97   H49   S    
N4    C20   A    
C101  H62   S    
C97   H50   S    
C82   H10   S    
C23   C39   A    
C28   O35   S    
C15   C47   A    
C106  H76   S    
C93   H38   S    
C52   C96   S    
