data_mof_unit_44206.cif
_audit_creation_date              2012-12-10T19:05:52-0500
_audit_creation_method            fapswitch 2.2
_symmetry_space_group_name_H-M    P1
_symmetry_Int_Tables_number       1
_space_group_crystal_system       triclinic
_cell_length_a                    19.348705
_cell_length_b                    10.861824
_cell_length_c                    9.53277
_cell_angle_alpha                 90.012707
_cell_angle_beta                  89.50756
_cell_angle_gamma                 90.136251
_cell_volume                      2003.3484853

loop_
_atom_site_label
_atom_site_type_symbol
_atom_type_description
_atom_site_fract_x
_atom_site_fract_y
_atom_site_fract_z
_atom_type_partial_charge
C1    C     C_R   0.500154 0.262663 0.499836 0.807401
C2    C     C_R   0.291286 0.499222 0.504085 -0.056902
C3    C     C_R   0.929579 0.492002 0.500876 0.406936
C4    C     C_R   0.069612 0.494261 0.508828 0.394606
C5    C     C_R   0.815677 0.446869 0.614433 -0.155177
C6    C     C_R   0.743714 0.449809 0.614517 -0.191096
C7    C     C_R   0.708315 0.498163 0.499282 -0.026615
C8    C     C_R   0.745922 0.544681 0.384555 -0.190846
C9    C     C_R   0.817952 0.542791 0.384857 -0.154058
C10   C     C_R   0.853495 0.493494 0.499665 0.057055
C11   C     C_R   0.498040 0.062000 0.621077 0.134538
C12   C     C_R   0.367372 0.499823 0.500797 0.793922
C13   C     C_R   0.501085 0.130069 0.498125 -0.106837
C14   C     C_R   0.505177 0.064557 0.370347 -0.217406
C15   C     C_R   0.505330 0.935400 0.370380 -0.218698
C16   C     C_R   0.501355 0.869928 0.498197 -0.107744
C17   C     C_R   0.498257 0.938049 0.621143 0.133580
C18   C     C_3   0.491821 0.929228 0.776685 -0.471259
C19   C     C_3   0.491522 0.071025 0.776562 -0.476591
C20   C     C_R   0.533355 0.590985 0.073107 0.259652
C21   C     C_R   0.461623 0.417408 0.075123 -0.083155
C22   C     C_R   0.461600 0.417429 0.926137 -0.086453
C23   C     C_R   0.500329 0.737333 0.499843 0.808749
C24   C     C_R   0.533304 0.591064 0.925586 0.257320
C25   C     C_3   0.608510 0.620732 0.918236 -0.494018
C26   C     C_3   0.608621 0.619937 0.077234 -0.519030
C27   C     C_R   0.632500 0.499944 0.499548 0.785387
C28   C     C_R   0.256000 0.497981 0.633284 -0.212781
C29   C     C_R   0.183563 0.497435 0.640251 0.110948
C30   C     C_R   0.145750 0.496730 0.512899 0.044685
C31   C     C_R   0.181647 0.499345 0.384119 -0.190228
C32   C     C_R   0.253534 0.500272 0.379604 -0.195018
Cu1   Cu    Cu3+1 0.500000 0.499980 0.640670 0.937695
Cu2   Cu    Cu3+1 0.500000 0.500020 0.359330 0.939894
H1    H     H_    0.285147 0.498651 0.729833 0.147282
H2    H     H_    0.508295 0.887610 0.270767 0.164923
H3    H     H_    0.441795 0.887816 0.810477 0.199759
H4    H     H_    0.538568 0.889014 0.825422 0.193234
H5    H     H_    0.441262 0.111230 0.810135 0.190345
H6    H     H_    0.538068 0.112662 0.825191 0.203102
H7    H     H_    0.431640 0.349061 0.131563 0.137450
H8    H     H_    0.431540 0.349226 0.870692 0.134723
H9    H     H_    0.639923 0.545147 0.872156 0.217983
H10   H     H_    0.618536 0.713246 0.872633 0.188992
H11   H     H_    0.639450 0.542896 0.120461 0.216828
H12   H     H_    0.619013 0.711839 0.123956 0.191219
H13   H     H_    0.153853 0.498970 0.285921 0.149032
H14   H     H_    0.279481 0.501472 0.278479 0.152870
H15   H     H_    0.841607 0.408911 0.704812 0.150936
H16   H     H_    0.715759 0.412926 0.704078 0.140930
H17   H     H_    0.719792 0.584468 0.295746 0.138967
H18   H     H_    0.845707 0.579677 0.295076 0.150765
H19   H     H_    0.508023 0.112311 0.270719 0.166329
N1    N     N_R   0.035463 0.559007 0.409419 -0.242244
N2    N     N_R   0.966746 0.558011 0.405604 -0.244251
N3    N     N_R   0.963818 0.425629 0.598622 -0.244467
N4    N     N_R   0.032478 0.426289 0.601963 -0.244480
N5    N     N_R   0.500440 0.500930 0.147930 -0.183259
N6    N     N_R   0.500440 0.500890 0.852020 -0.183933
O1    O     O_R   0.500000 0.319640 0.618810 -0.581889
O2    O     O_R   0.500010 0.319680 0.381230 -0.587783
O3    O     O_R   0.400140 0.499970 0.618830 -0.586905
O4    O     O_R   0.400150 0.500010 0.381250 -0.583101
O5    O     O_R   0.499990 0.680320 0.618770 -0.577988
O6    O     O_R   0.500000 0.680360 0.381190 -0.585550
O7    O     O_R   0.599850 0.499990 0.618750 -0.584425
O8    O     O_R   0.599860 0.500030 0.381170 -0.580351
C33   C     C_3   0.149803 0.501357 0.784680 -0.417218
C34   C     C_3   0.115434 0.626154 0.813456 -0.337819
C35   C     C_3   0.082967 0.629622 0.959916 -0.803003
H20   H     H_    0.042660 0.557109 0.970334 0.263455
H21   H     H_    0.123041 0.615194 0.041003 0.245929
H22   H     H_    0.058530 0.720726 0.977886 0.245202
H23   H     H_    0.154840 0.700529 0.805080 0.218592
H24   H     H_    0.074517 0.644736 0.735454 0.233267
H25   H     H_    0.112496 0.424575 0.797596 0.223359
H26   H     H_    0.189158 0.486123 0.867274 0.184735

loop_
_geom_bond_atom_site_label_1
_geom_bond_atom_site_label_2
_ccdc_geom_bond_type
C2    C12   S    
C25   H9    S    
C7    C8    A    
C22   H8    S    
C11   C19   S    
C28   C29   A    
C18   H3    S    
C24   N6    A    
C30   C31   A    
C16   C17   A    
C15   C16   A    
C7    C27   S    
N3    N4    A    
Cu2   O6    S    
C2    C32   A    
C18   C19   S    
C26   H11   S    
C33   C34   S    
C3    N2    A    
C20   C24   A    
C28   H1    S    
C8    C9    A    
C4    N4    A    
C35   H20   S    
C9    C10   A    
Cu1   N6    S    
C31   H13   S    
C21   C22   A    
C32   H14   S    
C5    H15   S    
C9    H18   S    
C25   H10   S    
Cu1   O7    S    
Cu1   Cu2   S    
C24   C25   S    
C1    O1    A    
C22   N6    A    
C12   O4    A    
Cu1   O3    S    
C25   C26   S    
Cu2   O2    S    
C29   C30   A    
C29   C33   S    
C12   O3    A    
C3    N3    A    
C31   C32   A    
C35   H22   S    
C17   C18   S    
C34   H23   S    
C6    H16   S    
Cu1   O1    S    
C8    H17   S    
C19   H5    S    
C21   H7    S    
C23   O5    A    
C16   C23   S    
C1    C13   S    
C20   N5    A    
C15   H2    S    
Cu2   N5    S    
C33   H26   S    
N1    N2    A    
C11   C17   A    
C4    N1    A    
C1    O2    A    
Cu2   O8    S    
C2    C28   A    
C6    C7    A    
C33   H25   S    
C23   O6    A    
C18   H4    S    
C5    C10   A    
C3    C10   S    
C11   C13   A    
C5    C6    A    
C20   C26   S    
Cu1   O5    S    
Cu2   O4    S    
C34   H24   S    
C34   C35   S    
C27   O8    A    
C19   H6    S    
C26   H12   S    
C21   N5    A    
C14   H19   S    
C27   O7    A    
C14   C15   A    
C35   H21   S    
C13   C14   A    
C4    C30   S    
