data_mof_unit_45308.cif
_audit_creation_date              2012-12-10T18:21:52-0500
_audit_creation_method            fapswitch 2.2
_symmetry_space_group_name_H-M    P1
_symmetry_Int_Tables_number       1
_space_group_crystal_system       triclinic
_cell_length_a                    19.297355
_cell_length_b                    10.746302
_cell_length_c                    9.661794
_cell_angle_alpha                 86.58416
_cell_angle_beta                  89.096482
_cell_angle_gamma                 88.093742
_cell_volume                      1998.75914487

loop_
_atom_site_label
_atom_site_type_symbol
_atom_type_description
_atom_site_fract_x
_atom_site_fract_y
_atom_site_fract_z
_atom_type_partial_charge
C1    C     C_R   0.502933 0.260100 0.503635 0.953998
C2    C     C_R   0.499347 0.739968 0.497812 0.928488
C3    C     C_3   0.563367 0.028180 0.570195 0.375166
C4    C     C_3   0.447160 0.973765 0.440720 0.360757
C5    C     C_3   0.561044 0.956025 0.437386 0.323140
C6    C     C_3   0.450202 0.041731 0.575589 0.320828
C7    C     C_3   0.501672 0.877076 0.498205 -0.305542
C8    C     C_3   0.507690 0.122499 0.511210 -0.322563
C9    C     C_3   0.505177 0.946133 0.635154 -0.254553
C10   C     C_3   0.506448 0.052274 0.376137 -0.330386
C11   C     C_3   0.491364 0.611172 0.041357 0.332117
C12   C     C_3   0.508677 0.388424 0.960623 0.386883
C13   C     C_3   0.442814 0.544009 0.947493 -0.268551
C14   C     C_3   0.557604 0.456363 0.052980 -0.224082
C15   C     C_3   0.548250 0.567469 0.944685 0.385499
C16   C     C_3   0.451356 0.434396 0.055576 0.350221
C17   C     C_R   0.367630 0.503015 0.500889 0.905354
C18   C     C_R   0.632598 0.495829 0.498170 0.923610
C19   C     C_R   0.252195 0.611573 0.554754 0.275471
C20   C     C_R   0.752508 0.425178 0.402501 0.303172
C21   C     C_R   0.183289 0.636475 0.511518 0.281575
C22   C     C_R   0.824785 0.449275 0.387472 0.270971
C23   C     C_R   0.146859 0.540475 0.453528 -0.228413
C24   C     C_R   0.854279 0.535533 0.473117 -0.250470
C25   C     C_R   0.183948 0.433046 0.411408 0.326941
C26   C     C_R   0.811927 0.607104 0.559801 0.381507
C27   C     C_R   0.255591 0.422592 0.429871 -0.150304
C28   C     C_R   0.740794 0.589693 0.564868 -0.146967
C29   C     C_R   0.290624 0.511171 0.499623 -0.199854
C30   C     C_R   0.709896 0.499352 0.490563 -0.233598
C31   C     C_R   0.930059 0.544383 0.477658 0.564106
C32   C     C_R   0.070302 0.542520 0.460082 0.531072
Cu1   Cu    Cu3+1 0.500020 0.499990 0.643150 1.155908
Cu2   Cu    Cu3+1 0.499980 0.500010 0.356850 1.132250
H1    H     H_    0.284207 0.342520 0.393286 0.263917
H2    H     H_    0.708611 0.649848 0.625478 0.273411
N1    N     N_R   0.031691 0.634548 0.393231 -0.094385
N2    N     N_R   0.968502 0.452417 0.544834 -0.138473
N3    N     N_R   0.962749 0.635825 0.402047 -0.106405
N4    N     N_R   0.037407 0.452069 0.537072 -0.149444
N5    N     N_3   0.500050 0.499970 0.858290 -0.289684
N6    N     N_3   0.499950 0.500030 0.141710 -0.291079
O1    O     O_R   0.500030 0.316850 0.620870 -0.509818
O2    O     O_R   0.499970 0.683150 0.379130 -0.502532
O3    O     O_R   0.500000 0.316860 0.379090 -0.573233
O4    O     O_R   0.500000 0.683140 0.620910 -0.554373
O5    O     O_R   0.400160 0.499980 0.620930 -0.523209
O6    O     O_R   0.599840 0.500020 0.379070 -0.552113
O7    O     O_R   0.400130 0.499990 0.379150 -0.522086
O8    O     O_R   0.599870 0.500010 0.620850 -0.527800
S1    S     S_3+6 0.278080 0.663395 0.715815 0.088983
O9    O     O_2   0.345963 0.727465 0.699359 -0.218050
O10   O     O_2   0.225543 0.748807 0.781227 -0.167437
O11   O     O_3   0.287173 0.534035 0.821262 -0.543408
H3    H     H_    0.240326 0.499032 0.828762 0.368048
S2    S     S_3+6 0.718940 0.295054 0.323437 0.122316
O12   O     O_2   0.712038 0.325937 0.170686 -0.228117
O13   O     O_2   0.768157 0.184560 0.345421 -0.126832
O14   O     O_3   0.641626 0.254903 0.388194 -0.542415
H4    H     H_    0.619695 0.212873 0.312574 0.382699
S3    S     S_3+6 0.623931 0.647133 0.887666 0.073003
O15   O     O_2   0.679569 0.551366 0.856304 -0.246531
O16   O     O_2   0.609662 0.732095 0.762045 -0.271981
O17   O     O_3   0.651291 0.732169 0.014861 -0.477229
H5    H     H_    0.697340 0.761427 0.983307 0.396633
S4    S     S_3+6 0.373190 0.361725 0.113434 0.113036
O18   O     O_2   0.344613 0.292828 0.997318 -0.174852
O19   O     O_2   0.386827 0.271301 0.234902 -0.204029
O20   O     O_3   0.314161 0.471127 0.158619 -0.530075
H6    H     H_    0.313169 0.535406 0.081139 0.385354
S5    S     S_3+6 0.145516 0.789791 0.516462 0.128402
O21   O     O_2   0.088561 0.790591 0.624392 -0.204712
O22   O     O_2   0.198590 0.882478 0.548474 -0.180687
O23   O     O_3   0.112581 0.834179 0.360426 -0.460106
H7    H     H_    0.090101 0.917124 0.372516 0.414905
S6    S     S_3+6 0.881163 0.373673 0.265023 0.133432
O24   O     O_2   0.920205 0.267640 0.340460 -0.172213
O25   O     O_2   0.843802 0.324176 0.146017 -0.162655
O26   O     O_3   0.938496 0.475112 0.196014 -0.490076
H8    H     H_    0.960849 0.432941 0.117731 0.413980
S7    S     S_3+6 0.143665 0.312752 0.327718 0.094554
O27   O     O_2   0.118929 0.217226 0.435583 -0.181035
O28   O     O_2   0.082765 0.363753 0.244843 -0.245420
O29   O     O_3   0.200560 0.243069 0.221160 -0.453142
H9    H     H_    0.206414 0.303960 0.141122 0.397418
S8    S     S_3+6 0.846410 0.721578 0.661485 0.110622
O30   O     O_2   0.899723 0.661072 0.757714 -0.231025
O31   O     O_2   0.880252 0.818892 0.567461 -0.193027
O32   O     O_3   0.783410 0.790275 0.755216 -0.476565
H10   H     H_    0.806819 0.855225 0.804074 0.387738
S9    S     S_3+6 0.636472 0.888568 0.354530 0.077348
O33   O     O_2   0.687761 0.841926 0.461906 -0.233871
O34   O     O_2   0.617769 0.779205 0.275442 -0.231354
O35   O     O_3   0.673461 0.995661 0.246261 -0.489215
H11   H     H_    0.712419 0.950386 0.201314 0.397005
S10   S     S_3+6 0.376783 0.088601 0.679887 0.149249
O36   O     O_2   0.395434 0.083853 0.830188 -0.128734
O37   O     O_2   0.352623 0.218708 0.634350 -0.288159
O38   O     O_3   0.311906 0.990594 0.664201 -0.388816
H12   H     H_    0.274516 0.021127 0.726207 0.413672
S11   S     S_3+6 0.640398 0.069940 0.659130 0.158467
O39   O     O_2   0.704980 0.046195 0.575237 -0.135043
O40   O     O_2   0.637257 0.206136 0.686600 -0.208028
O41   O     O_3   0.645575 0.984989 0.810526 -0.475601
H13   H     H_    0.690602 0.005631 0.849739 0.380835
S12   S     S_3+6 0.366541 0.963482 0.353004 0.182232
O42   O     O_2   0.378182 0.977379 0.199083 -0.101548
O43   O     O_2   0.334866 0.840569 0.393575 -0.240793
O44   O     O_3   0.311180 0.079576 0.395145 -0.432062
H14   H     H_    0.265256 0.054082 0.364830 0.427232
H15   H     H_    0.504498 0.903152 0.742386 0.267030
H16   H     H_    0.511183 0.096246 0.271656 0.264227
H17   H     H_    0.395439 0.586448 0.901501 0.273307
H18   H     H_    0.606733 0.422365 0.099566 0.256881
S13   S     S_3+6 0.453964 0.758289 0.077422 0.125301
O45   O     O_2   0.421446 0.818119 0.948565 -0.226474
O46   O     O_2   0.397766 0.732623 0.182958 -0.195057
O47   O     O_3   0.510935 0.856282 0.135644 -0.443163
H19   H     H_    0.535509 0.890355 0.051671 0.394118
S14   S     S_3+6 0.527867 0.224129 0.953230 0.103804
O48   O     O_2   0.479697 0.155069 0.050695 -0.241933
O49   O     O_2   0.518984 0.173676 0.815755 -0.207443
O50   O     O_3   0.609869 0.193747 0.003960 -0.483290
H20   H     H_    0.610538 0.105606 0.039942 0.393928

loop_
_geom_bond_atom_site_label_1
_geom_bond_atom_site_label_2
_ccdc_geom_bond_type
C9    H15   S    
S4    O19   D    
S11   O39   D    
C27   C29   A    
C1    C8    S    
C17   C29   S    
C2    C7    S    
Cu2   N6    S    
S6    O26   S    
C22   S6    S    
C20   S2    S    
C6    C9    S    
C13   N5    S    
S7    O27   D    
O50   H20   S    
C20   C30   A    
C2    O4    A    
C21   S5    S    
C19   C21   A    
S6    O25   D    
S8    O31   D    
S4    O20   S    
S12   O42   D    
S13   O45   D    
S10   O38   S    
S2    O12   D    
C11   N6    S    
S3    O16   D    
O47   H19   S    
C12   S14   S    
C11   C15   S    
C1    O1    A    
C12   C16   S    
C2    O2    A    
S13   O46   D    
S10   O37   D    
C10   H16   S    
C18   C30   S    
C11   S13   S    
S14   O50   S    
C14   N6    S    
C3    S11   S    
C23   C25   A    
S4    O18   D    
O14   H4    S    
S11   O40   D    
C25   S7    S    
Cu1   O4    S    
S3    O15   D    
C4    C7    S    
O41   H13   S    
S7    O28   D    
S14   O49   D    
S2    O13   D    
O23   H7    S    
S1    O9    D    
Cu1   O1    S    
Cu2   O2    S    
S6    O24   D    
C15   N5    S    
C4    C6    S    
C3    C8    S    
C17   O7    A    
S9    O33   D    
C5    C7    S    
S8    O30   D    
C6    C8    S    
C27   H1    S    
Cu1   O8    S    
C14   H18   S    
C4    S12   S    
S1    O10   D    
S3    O17   S    
C12   N5    S    
C3    C9    S    
S9    O34   D    
O38   H12   S    
C26   S8    S    
S13   O47   S    
S10   O36   D    
Cu1   Cu2   S    
C15   S3    S    
O35   H11   S    
Cu2   O3    S    
C32   N1    A    
O29   H9    S    
C5    S9    S    
C12   C14   S    
S11   O41   S    
C6    S10   S    
C21   C23   A    
Cu1   O5    S    
C22   C24   A    
C16   S4    S    
C4    C10   S    
C19   C29   A    
C16   N6    S    
S7    O29   S    
S14   O48   D    
C18   O8    A    
S5    O22   D    
C7    C9    S    
O11   H3    S    
Cu2   O7    S    
C17   O5    A    
C20   C22   A    
C3    C5    S    
S8    O32   S    
C18   O6    A    
S5    O23   S    
S2    O14   S    
C25   C27   A    
C26   C28   A    
C31   N2    A    
S1    O11   S    
Cu1   N5    S    
C23   C32   S    
C28   C30   A    
C24   C31   S    
S5    O21   D    
N1    N3    A    
O44   H14   S    
O17   H5    S    
S9    O35   S    
N2    N4    A    
C11   C13   S    
C24   C26   A    
C1    O3    A    
S12   O43   D    
C31   N3    A    
C32   N4    A    
O20   H6    S    
O26   H8    S    
C19   S1    S    
C5    C10   S    
Cu2   O6    S    
C28   H2    S    
C8    C10   S    
C13   C16   S    
C14   C15   S    
O32   H10   S    
C13   H17   S    
S12   O44   S    
