data_mof_unit_9705.cif
_audit_creation_date              2012-12-10T17:43:56-0500
_audit_creation_method            fapswitch 2.2
_symmetry_space_group_name_H-M    P1
_symmetry_Int_Tables_number       1
_space_group_crystal_system       triclinic
_cell_length_a                    15.844382
_cell_length_b                    15.041971
_cell_length_c                    13.781822
_cell_angle_alpha                 89.484991
_cell_angle_beta                  90.98637
_cell_angle_gamma                 89.488689
_cell_volume                      3283.87697727

loop_
_atom_site_label
_atom_site_type_symbol
_atom_type_description
_atom_site_fract_x
_atom_site_fract_y
_atom_site_fract_z
_atom_type_partial_charge
C1    C     C_R   0.501453 0.328981 0.500398 0.845053
C2    C     C_R   0.498426 0.670971 0.499549 0.850101
C3    C     C_R   0.495491 0.767427 0.498822 -0.105460
C4    C     C_R   0.505988 0.232465 0.501523 -0.106479
C5    C     C_R   0.554201 0.812491 0.443979 -0.301145
C6    C     C_R   0.448211 0.187144 0.557370 -0.312600
C7    C     C_R   0.557150 0.904504 0.445529 0.087638
C8    C     C_R   0.446493 0.095161 0.557283 0.095206
C9    C     C_R   0.500176 0.952949 0.502462 -0.018919
C10   C     C_R   0.504703 0.046721 0.502000 -0.014452
C11   C     C_R   0.438552 0.907692 0.558856 0.016993
C12   C     C_R   0.566900 0.091983 0.446420 0.003095
C13   C     C_R   0.618325 0.947830 0.391967 -0.250180
C14   C     C_R   0.386445 0.051742 0.612415 -0.263831
C15   C     C_R   0.626098 0.040093 0.394012 0.246213
C16   C     C_R   0.382591 0.959249 0.615811 0.255466
C17   C     C_R   0.552768 0.442852 0.795115 0.404168
C18   C     C_R   0.446686 0.556518 0.204988 0.405214
C19   C     C_R   0.449533 0.558517 0.791353 -0.065983
C20   C     C_R   0.554280 0.445359 0.208769 -0.063911
C21   C     C_R   0.449367 0.562260 0.894402 -0.024874
C22   C     C_R   0.557083 0.444318 0.105810 -0.025628
C23   C     C_R   0.339931 0.499888 0.499235 0.836048
C24   C     C_R   0.660104 0.501029 0.500789 0.819353
C25   C     C_R   0.503306 0.503756 0.948263 0.032307
C26   C     C_R   0.503638 0.503368 0.051959 0.032612
C27   C     C_R   0.557101 0.445578 0.898482 -0.066174
C28   C     C_R   0.449806 0.561520 0.101758 -0.066977
C29   C     C_R   0.398348 0.623537 0.945409 0.110382
C30   C     C_R   0.611979 0.386934 0.054883 0.109269
C31   C     C_R   0.400355 0.622990 0.047488 -0.238528
C32   C     C_R   0.613249 0.390935 0.952967 -0.239906
C33   C     C_3   0.973503 0.436467 0.561241 -0.256823
C34   C     C_3   0.026858 0.566977 0.439201 -0.258307
C35   C     C_3   0.025756 0.421791 0.468336 0.066455
C36   C     C_3   0.974628 0.581717 0.532160 0.066221
C37   C     C_1   0.250410 0.499479 0.497439 -0.193610
C38   C     C_1   0.749717 0.502649 0.502708 -0.191583
C39   C     C_3   0.031405 0.514799 0.588264 0.302271
C40   C     C_3   0.968971 0.488631 0.412199 0.301414
C41   C     C_3   0.083381 0.499723 0.497063 0.026298
C42   C     C_3   0.916886 0.503806 0.503406 0.024796
C43   C     C_1   0.174944 0.499312 0.496506 -0.063443
C44   C     C_1   0.825232 0.503705 0.503788 -0.055612
C45   C     C_R   0.435740 0.813137 0.554148 0.211075
C46   C     C_R   0.566423 0.186875 0.446585 0.210566
Cu1   Cu    Cu3+1 0.500010 0.499990 0.597420 0.959019
Cu2   Cu    Cu3+1 0.499990 0.500010 0.402580 0.960581
H1    H     H_    0.362451 0.671923 0.084118 0.142167
H2    H     H_    0.659174 0.350067 0.916806 0.143351
H3    H     H_    0.950675 0.384236 0.611520 0.142862
H4    H     H_    0.049790 0.619129 0.388884 0.142023
H5    H     H_    0.599245 0.775161 0.401593 0.151890
H6    H     H_    0.402700 0.224286 0.599310 0.149741
H7    H     H_    0.662003 0.909338 0.349088 0.146782
H8    H     H_    0.342574 0.090068 0.655276 0.144033
H9    H     H_    0.409490 0.601997 0.747737 0.161242
H10   H     H_    0.595310 0.402880 0.252390 0.165893
N1    N     N_R   0.499960 0.499930 0.743810 -0.196633
N2    N     N_R   0.500040 0.500070 0.256190 -0.197285
O1    O     O_R   0.500020 0.370250 0.582280 -0.563409
O2    O     O_R   0.499980 0.629750 0.417720 -0.574683
O3    O     O_R   0.500010 0.370270 0.417740 -0.567687
O4    O     O_R   0.499990 0.629730 0.582260 -0.575595
O5    O     O_R   0.379080 0.499980 0.582260 -0.579927
O6    O     O_R   0.620920 0.500020 0.417740 -0.580448
O7    O     O_R   0.379070 0.500000 0.417710 -0.552812
O8    O     O_R   0.620930 0.500000 0.582290 -0.564409
C47   C     C_3   0.059932 0.331745 0.435721 -0.382807
C48   C     C_3   0.989024 0.264833 0.418617 -0.354626
C49   C     C_3   0.024656 0.175472 0.386509 -0.855953
H11   H     H_    0.058384 0.183262 0.316996 0.253671
H12   H     H_    0.068927 0.147944 0.442713 0.253806
H13   H     H_    0.972469 0.127728 0.375682 0.238543
H14   H     H_    0.953454 0.254837 0.486601 0.216654
H15   H     H_    0.944514 0.290240 0.361703 0.221310
H16   H     H_    0.096622 0.341128 0.368571 0.195705
H17   H     H_    0.103727 0.305627 0.493260 0.200663
C50   C     C_3   0.942139 0.672441 0.564889 -0.383109
C51   C     C_3   0.014735 0.737257 0.582960 -0.354336
C52   C     C_3   0.981664 0.827912 0.614265 -0.852268
H18   H     H_    0.939715 0.857292 0.556821 0.253175
H19   H     H_    0.946070 0.821447 0.682674 0.253653
H20   H     H_    0.035570 0.873296 0.626909 0.240341
H21   H     H_    0.057806 0.710718 0.640712 0.221686
H22   H     H_    0.051494 0.745837 0.515601 0.216681
H23   H     H_    0.899355 0.699879 0.507081 0.200736
H24   H     H_    0.904855 0.663784 0.631707 0.196458
C53   C     C_3   0.341078 0.691165 0.894670 -0.428745
C54   C     C_3   0.257030 0.649365 0.863414 -0.327984
C55   C     C_3   0.196165 0.719228 0.820826 -0.881995
H25   H     H_    0.184985 0.772868 0.874074 0.254201
H26   H     H_    0.221961 0.748496 0.753478 0.269124
H27   H     H_    0.134686 0.688072 0.803276 0.243857
H28   H     H_    0.267804 0.597092 0.808446 0.219786
H29   H     H_    0.227263 0.617875 0.927462 0.221822
H30   H     H_    0.327665 0.747312 0.944268 0.194806
H31   H     H_    0.373397 0.721419 0.832130 0.183127
C56   C     C_3   0.667436 0.317245 0.105042 -0.422043
C57   C     C_3   0.751425 0.356194 0.140442 -0.332517
C58   C     C_3   0.810367 0.283012 0.179885 -0.883476
H32   H     H_    0.782569 0.250218 0.244164 0.266825
H33   H     H_    0.821901 0.232349 0.123380 0.256621
H34   H     H_    0.871949 0.311907 0.201290 0.243964
H35   H     H_    0.782745 0.390375 0.079099 0.222474
H36   H     H_    0.740290 0.405641 0.198346 0.218163
H37   H     H_    0.633474 0.285388 0.165524 0.180386
H38   H     H_    0.680884 0.262398 0.053726 0.195366
N3    N     N_2   0.929764 0.476962 0.317582 -0.423717
H39   H     H_    0.882127 0.430827 0.316826 0.245526
C59   C     C_3   0.986436 0.470110 0.236932 -0.714437
H40   H     H_    0.949478 0.475294 0.167919 0.230117
H41   H     H_    0.019779 0.404987 0.238816 0.220357
H42   H     H_    0.033111 0.524741 0.238385 0.234576
N4    N     N_2   0.070714 0.526099 0.682910 -0.423613
H43   H     H_    0.119030 0.571453 0.683797 0.246080
C60   C     C_3   0.014118 0.533622 0.763552 -0.714861
H44   H     H_    0.051010 0.527941 0.832572 0.229832
H45   H     H_    0.966839 0.479576 0.762032 0.234689
H46   H     H_    0.981499 0.599148 0.761707 0.220973
N5    N     N_2   0.371917 0.761764 0.599074 -0.419854
H47   H     H_    0.365654 0.767445 0.672716 0.279877
C61   C     C_3   0.294883 0.750775 0.542795 -0.687188
H48   H     H_    0.261250 0.815444 0.533630 0.231433
H49   H     H_    0.253060 0.703330 0.580560 0.217414
H50   H     H_    0.309272 0.723331 0.470267 0.224346
N6    N     N_2   0.623158 0.238733 0.390810 -0.416031
H51   H     H_    0.631684 0.221316 0.319709 0.260589
C62   C     C_3   0.695995 0.273047 0.442570 -0.653823
H52   H     H_    0.739822 0.218414 0.464162 0.237137
H53   H     H_    0.676455 0.308477 0.508920 0.212719
H54   H     H_    0.729671 0.320678 0.395314 0.215437
N7    N     N_2   0.693564 0.078846 0.342299 -0.433457
H55   H     H_    0.688167 0.069630 0.268367 0.242717
C63   C     C_3   0.777298 0.056620 0.379187 -0.715968
H56   H     H_    0.823795 0.100621 0.344053 0.227304
H57   H     H_    0.793748 0.986521 0.362483 0.218665
H58   H     H_    0.781392 0.066427 0.458961 0.235656
N8    N     N_2   0.323101 0.920268 0.678930 -0.433191
H59   H     H_    0.262944 0.946024 0.669228 0.249526
C64   C     C_3   0.349373 0.920132 0.780065 -0.749339
H60   H     H_    0.301927 0.884882 0.823982 0.234898
H61   H     H_    0.354693 0.989280 0.807099 0.230557
H62   H     H_    0.411195 0.885394 0.789660 0.234646
N9    N     N_2   0.602588 0.380570 0.743398 -0.383858
H63   H     H_    0.666747 0.387686 0.753895 0.220911
C65   C     C_3   0.575228 0.288775 0.748927 -0.659379
H64   H     H_    0.604028 0.250682 0.689144 0.227847
H65   H     H_    0.505413 0.284452 0.741905 0.240892
H66   H     H_    0.595165 0.256729 0.818343 0.192049
N10   N     N_2   0.388111 0.609512 0.256776 -0.379404
H67   H     H_    0.395502 0.677026 0.247133 0.224318
C66   C     C_3   0.300747 0.581570 0.249880 -0.675557
H68   H     H_    0.271655 0.600527 0.178910 0.195507
H69   H     H_    0.264134 0.614230 0.307783 0.219704
H70   H     H_    0.295790 0.508348 0.259153 0.243145

loop_
_geom_bond_atom_site_label_1
_geom_bond_atom_site_label_2
_ccdc_geom_bond_type
C63   H58   S    
C14   H8    S    
C58   H32   S    
C47   H16   S    
C65   H64   S    
C13   H7    S    
C50   H23   S    
C52   H18   S    
C61   H48   S    
C39   C41   S    
C4    C46   A    
C19   H9    S    
C56   H38   S    
C57   H35   S    
C33   C39   S    
C34   C40   S    
C33   C42   S    
C5    H5    S    
C19   C21   A    
C31   H1    S    
C60   H45   S    
N9    H63   S    
C61   H49   S    
C1    O1    A    
N4    H43   S    
C7    C9    A    
C23   O7    A    
C51   H22   S    
N3    C59   S    
C52   H19   S    
C36   C42   S    
Cu1   Cu2   S    
N4    C60   S    
C24   C38   S    
N10   H67   S    
C48   C49   S    
C20   N2    A    
C9    C10   A    
C24   O6    A    
C62   H54   S    
C40   C42   S    
C58   H33   S    
C41   C43   S    
C47   H17   S    
C34   C41   S    
C42   C44   S    
C6    H6    S    
C1    O3    A    
C29   C53   S    
C50   H24   S    
N9    C65   S    
C2    O4    A    
Cu2   N2    S    
C28   C31   A    
C17   C27   A    
C46   N6    S    
C63   H56   S    
C65   H66   S    
C18   C28   A    
C4    C6    A    
C60   H46   S    
Cu1   O4    S    
C49   H12   S    
C61   H50   S    
C6    C8    A    
C45   N5    S    
C25   C26   A    
C23   C37   S    
C21   C29   A    
C30   C56   S    
C3    C45   A    
C64   H62   S    
C33   H3    S    
C53   H30   S    
C37   C43   T    
C17   N9    S    
N6    C62   S    
C38   C44   T    
C51   H21   S    
C55   H26   S    
C11   C16   A    
Cu2   O2    S    
C56   C57   S    
C12   C15   A    
C59   H41   S    
C66   H70   S    
C9    C11   A    
C32   H2    S    
N5    H47   S    
C10   C12   A    
C17   N1    A    
C12   C46   A    
C20   C22   A    
C58   H34   S    
C39   N4    S    
C13   C15   A    
C48   H15   S    
N7    H55   S    
C14   C16   A    
C11   C45   A    
C16   N8    S    
C66   H69   S    
C20   H10   S    
N6    H51   S    
C3    C5    A    
Cu1   O8    S    
C55   H25   S    
C52   H20   S    
C5    C7    A    
C62   H52   S    
C18   N2    A    
C63   H57   S    
C21   C25   A    
C8    C14   A    
C22   C30   A    
C59   H40   S    
C65   H65   S    
C27   C32   A    
C34   H4    S    
C64   H60   S    
C36   C39   S    
C51   C52   S    
Cu2   O3    S    
C36   C50   S    
C54   H28   S    
Cu1   O1    S    
C49   H13   S    
N8    H59   S    
C54   H29   S    
C40   N3    S    
C15   N7    S    
C57   H36   S    
C25   C27   A    
C56   H37   S    
C26   C28   A    
C53   H31   S    
C1    C4    S    
C19   N1    A    
C23   O5    A    
C64   H61   S    
C2    C3    S    
C53   C54   S    
C49   H11   S    
C29   C31   A    
C60   H44   S    
C55   H27   S    
C30   C32   A    
N8    C64   S    
C54   C55   S    
C57   C58   S    
C33   C35   S    
C35   C40   S    
C59   H42   S    
C34   C36   S    
N10   C66   S    
Cu2   O7    S    
C47   C48   S    
C35   C41   S    
N5    C61   S    
C24   O8    A    
Cu1   N1    S    
C50   C51   S    
C2    O2    A    
C7    C13   A    
C35   C47   S    
C8    C10   A    
C22   C26   A    
C48   H14   S    
N7    C63   S    
Cu2   O6    S    
C66   H68   S    
N3    H39   S    
Cu1   O5    S    
C18   N10   S    
C62   H53   S    
