data_mof_unit_23929.cif
_audit_creation_date              2012-10-26T20:32:56-0400
_audit_creation_method            fapswitch 2.2
_symmetry_space_group_name_H-M    P1
_symmetry_Int_Tables_number       1
_space_group_crystal_system       triclinic
_cell_length_a                    27.811301
_cell_length_b                    10.857648
_cell_length_c                    9.536358
_cell_angle_alpha                 90.014632
_cell_angle_beta                  89.860251
_cell_angle_gamma                 90.154604
_cell_volume                      2879.6302252

loop_
_atom_site_label
_atom_site_type_symbol
_atom_type_description
_atom_site_fract_x
_atom_site_fract_y
_atom_site_fract_z
_atom_type_partial_charge
C1    C     C_R   0.499932 0.262688 0.499836 0.556117
C2    C     C_R   0.974330 0.385979 0.498336 0.019002
C3    C     C_R   0.974608 0.613180 0.513991 0.019021
C4    C     C_R   0.407453 0.499907 0.500147 0.558691
C5    C     C_R   0.949217 0.499606 0.506349 0.033980
C6    C     C_R   0.947233 0.275378 0.498556 -0.139787
C7    C     C_R   0.897305 0.276603 0.500774 -0.111254
C8    C     C_R   0.872301 0.387879 0.503422 0.024886
C9    C     C_R   0.898076 0.499663 0.506576 -0.027159
C10   C     C_R   0.872575 0.611509 0.509800 0.025044
C11   C     C_R   0.822092 0.609534 0.509339 0.397631
C12   C     C_R   0.278877 0.512619 0.627678 -0.053138
C13   C     C_R   0.821821 0.389994 0.503300 0.398243
C14   C     C_R   0.720460 0.457789 0.621348 -0.056351
C15   C     C_R   0.670322 0.457980 0.619875 -0.145763
C16   C     C_R   0.500084 0.737314 0.499851 0.562689
C17   C     C_R   0.671499 0.542241 0.384437 -0.144358
C18   C     C_R   0.721627 0.542283 0.386174 -0.055274
C19   C     C_R   0.746278 0.499911 0.504506 0.240907
C20   C     C_R   0.025401 0.386410 0.491300 0.018865
C21   C     C_R   0.050796 0.499520 0.505110 0.034254
C22   C     C_R   0.025687 0.612657 0.519740 0.018870
C23   C     C_R   0.253633 0.499460 0.501775 0.243296
C24   C     C_R   0.052220 0.277340 0.469643 -0.139955
C25   C     C_R   0.102725 0.720199 0.541699 -0.110463
C26   C     C_R   0.947776 0.723834 0.514455 -0.139825
C27   C     C_R   0.897848 0.722719 0.512645 -0.111354
C28   C     C_R   0.592514 0.500083 0.500063 0.545985
C29   C     C_R   0.052797 0.721686 0.540616 -0.139847
C30   C     C_R   0.499337 0.062109 0.621176 -0.007765
C31   C     C_R   0.499912 0.130094 0.498117 0.006462
C32   C     C_R   0.500583 0.064536 0.370220 -0.155494
C33   C     C_R   0.500690 0.935378 0.370254 -0.164159
C34   C     C_R   0.101934 0.499501 0.504223 -0.027005
C35   C     C_R   0.500131 0.869912 0.498195 0.008255
C36   C     C_R   0.499514 0.938039 0.621235 0.095686
C37   C     C_3   0.498957 0.929647 0.777201 0.103118
C38   C     C_3   0.498456 0.071683 0.777080 -0.235302
C39   C     C_R   0.523523 0.590488 0.073493 0.158189
C40   C     C_R   0.177912 0.390925 0.484097 0.399051
C41   C     C_R   0.473061 0.417879 0.074628 -0.011815
C42   C     C_R   0.473056 0.417889 0.925670 -0.011629
C43   C     C_R   0.523480 0.590590 0.925961 0.178625
C44   C     C_3   0.575915 0.618725 0.919489 -0.275733
C45   C     C_R   0.127429 0.388831 0.485082 0.024588
C46   C     C_3   0.576018 0.617780 0.078340 -0.285373
C47   C     C_R   0.178192 0.608051 0.521577 0.399952
C48   C     C_R   0.278738 0.486368 0.375294 -0.053297
C49   C     C_R   0.328885 0.486802 0.374513 -0.138209
C50   C     C_R   0.329012 0.512437 0.627333 -0.132799
C51   C     C_R   0.102148 0.278792 0.466822 -0.110581
C52   C     C_R   0.127716 0.610159 0.522442 0.024144
C53   C     C_R   0.354494 0.499730 0.500637 0.007994
C54   C     C_R   0.645408 0.499852 0.501111 0.006405
Cu1   Cu    Cu3+1 0.500000 0.499980 0.640670 0.968820
Cu2   Cu    Cu3+1 0.500000 0.500020 0.359330 0.945462
H1    H     H_    0.347757 0.522699 0.726072 0.139843
H2    H     H_    0.501233 0.887592 0.270534 0.134971
H3    H     H_    0.259576 0.522628 0.725757 0.130785
H4    H     H_    0.531901 0.886984 0.821583 0.099003
H5    H     H_    0.464431 0.112722 0.816566 0.157611
H6    H     H_    0.531965 0.113435 0.819262 0.103469
H7    H     H_    0.452000 0.349893 0.130670 0.116507
H8    H     H_    0.451956 0.350017 0.869879 0.113314
H9    H     H_    0.597373 0.542454 0.873780 0.150734
H10   H     H_    0.583385 0.711025 0.874117 0.120896
H11   H     H_    0.597038 0.539813 0.121496 0.151158
H12   H     H_    0.259328 0.476273 0.277653 0.130367
H13   H     H_    0.583763 0.709381 0.125345 0.124139
H14   H     H_    0.120898 0.192657 0.450077 0.168418
H15   H     H_    0.651089 0.424175 0.710957 0.119842
H16   H     H_    0.739303 0.425125 0.713291 0.132187
H17   H     H_    0.878336 0.189296 0.500401 0.166927
H18   H     H_    0.963427 0.185453 0.499678 0.106330
H19   H     H_    0.035799 0.188882 0.451589 0.107763
H20   H     H_    0.347537 0.476582 0.275386 0.132078
H21   H     H_    0.458496 0.877468 0.929819 0.318376
H22   H     H_    0.121704 0.806315 0.557837 0.168666
H23   H     H_    0.964178 0.813735 0.513384 0.106260
H24   H     H_    0.653289 0.577241 0.292941 0.114651
H25   H     H_    0.879093 0.810069 0.513242 0.166710
H26   H     H_    0.741380 0.575272 0.295619 0.132087
H27   H     H_    0.036618 0.810152 0.559265 0.107825
H28   H     H_    0.501050 0.112255 0.270493 0.135011
N1    N     N_R   0.202115 0.499485 0.502401 -0.400126
N2    N     N_R   0.797847 0.499803 0.505987 -0.398930
N3    N     N_R   0.500300 0.500930 0.147930 -0.232055
N4    N     N_R   0.500310 0.500890 0.852020 -0.229148
O1    O     O_R   0.500000 0.319640 0.618810 -0.509301
O2    O     O_R   0.569730 0.499960 0.618810 -0.513611
O3    O     O_R   0.569740 0.500000 0.381220 -0.505177
O4    O     O_2   0.202653 0.285313 0.465968 -0.485725
O5    O     O_3   0.455761 0.878706 0.826133 -0.664484
O6    O     O_2   0.796867 0.283259 0.499174 -0.491602
O7    O     O_2   0.203205 0.713654 0.538842 -0.482300
O8    O     O_2   0.797397 0.716338 0.513220 -0.492798
O9    O     O_R   0.500010 0.319680 0.381230 -0.513088
O10   O     O_R   0.430260 0.500000 0.618780 -0.496205
O11   O     O_R   0.430270 0.500040 0.381190 -0.503571
O12   O     O_R   0.499990 0.680320 0.618770 -0.467740
O13   O     O_R   0.500000 0.680360 0.381190 -0.510612

loop_
_geom_bond_atom_site_label_1
_geom_bond_atom_site_label_2
_ccdc_geom_bond_type
C10   C27   A    
C11   O8    S    
Cu1   Cu2   S    
C33   H2    S    
C22   C29   A    
C4    O10   A    
C4    C53   S    
C41   C42   A    
C44   H10   S    
C35   C36   A    
C39   N3    A    
C19   N2    S    
C7    C8    A    
C7    H17   S    
C12   C23   A    
C26   C27   A    
C8    C13   A    
C43   N4    A    
C47   N1    A    
C36   C37   S    
Cu2   O13   S    
C29   H27   S    
Cu1   O2    S    
C16   C35   S    
C30   C31   A    
C45   C51   A    
C11   N2    A    
C1    C31   S    
C30   C38   S    
C18   C19   A    
Cu1   N4    S    
C46   H13   S    
C18   H26   S    
C12   H3    S    
Cu2   O3    S    
C20   C24   A    
C8    C9    A    
Cu1   O12   S    
C51   H14   S    
C9    C10   A    
C38   H5    S    
C24   C51   A    
C21   C22   A    
C44   H9    S    
C2    C6    A    
Cu2   O9    S    
C41   N3    A    
C44   C46   S    
C6    H18   S    
C25   C29   A    
C40   C45   A    
C32   H28   S    
C50   C53   A    
C2    C20   A    
C25   H22   S    
C15   C54   A    
C27   H25   S    
C1    O9    A    
C28   C54   S    
C16   O12   A    
Cu2   N3    S    
C39   C43   A    
C21   C34   A    
C17   H24   S    
C40   O4    S    
C40   N1    A    
C13   N2    A    
C43   C44   S    
C5    C9    A    
C37   C38   S    
C31   C32   A    
C17   C18   A    
C49   H20   S    
C37   O5    S    
C34   C45   A    
C48   H12   S    
C47   C52   A    
C39   C46   S    
C48   C49   A    
C2    C5    A    
C42   N4    A    
C41   H7    S    
C42   H8    S    
C1    O1    A    
C23   C48   A    
C50   H1    S    
C14   H16   S    
C14   C19   A    
C3    C26   A    
C3    C5    A    
C12   C50   A    
C24   H19   S    
C6    C7    A    
C15   H15   S    
C34   C52   A    
C26   H23   S    
C30   C36   A    
C13   O6    S    
C32   C33   A    
C25   C52   A    
C46   H11   S    
Cu1   O1    S    
C49   C53   A    
Cu1   O10   S    
H21   O5    S    
C33   C35   A    
C28   O3    A    
C37   H4    S    
C10   C11   A    
C16   O13   A    
C20   C21   A    
C23   N1    S    
C4    O11   A    
C47   O7    S    
C14   C15   A    
C3    C22   A    
C28   O2    A    
Cu2   O11   S    
C17   C54   A    
C38   H6    S    
