data_mof_unit_33336.cif
_audit_creation_date              2012-12-10T18:47:06-0500
_audit_creation_method            fapswitch 2.2
_symmetry_space_group_name_H-M    P1
_symmetry_Int_Tables_number       1
_space_group_crystal_system       triclinic
_cell_length_a                    10.639184
_cell_length_b                    9.839553
_cell_length_c                    15.010062
_cell_angle_alpha                 90.023525
_cell_angle_beta                  90.11283
_cell_angle_gamma                 90.013568
_cell_volume                      1571.3223377

loop_
_atom_site_label
_atom_site_type_symbol
_atom_type_description
_atom_site_fract_x
_atom_site_fract_y
_atom_site_fract_z
_atom_type_partial_charge
C1    C     C_R   0.260515 0.499992 0.499963 0.900577
C2    C     C_R   0.128357 0.500003 0.499979 -0.451691
C3    C     C_R   0.572051 0.072020 0.559433 -0.055748
C4    C     C_R   0.427949 0.927980 0.440566 -0.055749
C5    C     C_R   0.427955 0.071892 0.440565 -0.057262
C6    C     C_R   0.572045 0.928107 0.559434 -0.057263
C7    C     C_R   0.499830 0.499979 0.326537 0.863155
C8    C     C_R   0.500170 0.500020 0.673463 0.863154
C9    C     C_R   0.500406 0.376208 0.815131 -0.221993
C10   C     C_R   0.499594 0.623792 0.184869 -0.221996
C11   C     C_R   0.500365 0.500030 0.769372 -0.067584
C12   C     C_R   0.739485 0.500008 0.500037 0.900575
C13   C     C_R   0.499635 0.499970 0.230628 -0.067581
C14   C     C_R   0.500408 0.623840 0.815208 -0.234579
C15   C     C_R   0.499592 0.376160 0.184792 -0.234576
C16   C     C_R   0.500249 0.624770 0.907358 0.118915
C17   C     C_R   0.499751 0.375230 0.092642 0.118915
C18   C     C_R   0.500127 0.500006 0.953655 0.064846
C19   C     C_R   0.499873 0.499994 0.046344 0.064846
C20   C     C_R   0.500248 0.375255 0.907277 0.119704
C21   C     C_R   0.499752 0.624745 0.092722 0.119705
C22   C     C_R   0.500132 0.748198 0.953801 -0.198323
C23   C     C_R   0.499872 0.748186 0.046361 -0.193117
C24   C     C_R   0.499868 0.251802 0.046199 -0.198323
C25   C     C_R   0.500128 0.251814 0.953639 -0.193117
C26   C     C_R   0.064908 0.453694 0.576606 0.420578
C27   C     C_R   0.935092 0.546306 0.423393 0.420580
C28   C     C_R   0.935531 0.453641 0.576617 0.412706
C29   C     C_R   0.064469 0.546359 0.423382 0.412710
C30   C     C_R   0.871643 0.499998 0.500020 -0.451690
H1    H     H_    0.500479 0.280497 0.779248 0.164130
H2    H     H_    0.370325 0.873377 0.393075 0.142785
H3    H     H_    0.370347 0.126389 0.393063 0.134586
H4    H     H_    0.629653 0.873610 0.606937 0.134586
H5    H     H_    0.214799 0.435527 0.652734 0.326841
H6    H     H_    0.785199 0.564491 0.347269 0.326847
H7    H     H_    0.785983 0.434790 0.652645 0.322121
H8    H     H_    0.214019 0.565218 0.347355 0.322124
H9    H     H_    0.499521 0.719503 0.220752 0.164129
H10   H     H_    0.500482 0.719555 0.779382 0.162539
H11   H     H_    0.499518 0.280445 0.220618 0.162538
H12   H     H_    0.500222 0.844371 0.918603 0.143924
H13   H     H_    0.499778 0.155629 0.081397 0.143924
H14   H     H_    0.499783 0.844348 0.081623 0.144068
H15   H     H_    0.500217 0.155652 0.918377 0.144068
H16   H     H_    0.629674 0.126623 0.606925 0.142786
N1    N     N_R   0.500000 0.857200 0.500000 -0.085073
N2    N     N_R   0.500000 0.142800 0.500000 -0.085073
O1    O     O_R   0.316770 0.614620 0.499990 -0.604459
O2    O     O_3   0.875122 0.589548 0.346380 -0.683393
O3    O     O_3   0.876023 0.410259 0.653622 -0.690380
O4    O     O_3   0.123978 0.589740 0.346376 -0.690383
O5    O     O_R   0.683230 0.385380 0.500010 -0.604452
O6    O     O_R   0.683230 0.614620 0.500010 -0.604308
O7    O     O_R   0.316770 0.385380 0.499990 -0.604300
O8    O     O_R   0.499980 0.614680 0.367850 -0.631834
O9    O     O_R   0.500020 0.385320 0.632150 -0.631830
O10   O     O_R   0.500020 0.614680 0.632150 -0.628311
O11   O     O_R   0.499980 0.385320 0.367850 -0.628310
O12   O     O_3   0.124878 0.410451 0.653618 -0.683387
Zn1   Zn    Zn3+2 0.500000 0.653120 0.500000 0.966559
Zn2   Zn    Zn3+2 0.500000 0.346880 0.500000 0.966565

loop_
_geom_bond_atom_site_label_1
_geom_bond_atom_site_label_2
_ccdc_geom_bond_type
C10   C21   A    
N1    Zn1   S    
C10   C13   A    
O6    Zn1   S    
C8    O9    A    
C27   C29   A    
O5    Zn2   S    
C9    C20   A    
N2    Zn2   S    
C12   O5    A    
C27   O2    S    
C3    C6    A    
C12   C30   S    
O10   Zn1   S    
C28   C30   A    
C1    O7    A    
O9    Zn2   S    
C2    C26   A    
C22   H12   S    
C27   C30   A    
C9    C11   A    
C4    H2    S    
C26   O12   S    
C7    O8    A    
C8    C11   S    
H8    O4    S    
C7    O11   A    
C17   C19   A    
C1    C2    S    
C18   C20   A    
C5    H3    S    
C21   C23   A    
C13   C15   A    
C2    C29   A    
H7    O3    S    
C28   O3    S    
C14   C16   A    
C17   C24   A    
O1    Zn1   S    
C20   C25   A    
C9    H1    S    
C14   H10   S    
H5    O12   S    
O7    Zn2   S    
C25   H15   S    
C3    N2    A    
C7    C13   S    
H6    O2    S    
C24   C25   A    
C15   H11   S    
C16   C18   A    
C18   C19   A    
C6    N1    A    
C11   C14   A    
C15   C17   A    
C24   H13   S    
O8    Zn1   S    
C10   H9    S    
O11   Zn2   S    
C16   C22   A    
C3    H16   S    
C8    O10   A    
C22   C23   A    
C26   C28   A    
C4    N1    A    
C12   O6    A    
C23   H14   S    
C6    H4    S    
C5    N2    A    
C4    C5    A    
C19   C21   A    
C29   O4    S    
C1    O1    A    
