data_mof_unit_59024.cif
_audit_creation_date              2012-12-10T17:03:28-0500
_audit_creation_method            fapswitch 2.2
_symmetry_space_group_name_H-M    P1
_symmetry_Int_Tables_number       1
_space_group_crystal_system       triclinic
_cell_length_a                    15.115648
_cell_length_b                    11.104322
_cell_length_c                    9.856588
_cell_angle_alpha                 109.764075
_cell_angle_beta                  98.057626
_cell_angle_gamma                 93.15078
_cell_volume                      1532.26080679

loop_
_atom_site_label
_atom_site_type_symbol
_atom_type_description
_atom_site_fract_x
_atom_site_fract_y
_atom_site_fract_z
_atom_type_partial_charge
C1    C     C_R   0.492222 0.254424 0.442754 0.828234
C2    C     C_R   0.505848 0.745011 0.556656 0.814895
C3    C     C_R   0.054939 0.400931 0.681751 0.105323
C4    C     C_R   0.943805 0.611739 0.315501 0.100705
C5    C     C_2   0.493155 0.116403 0.415355 -0.025777
C6    C     C_2   0.510921 0.882091 0.579106 -0.033873
C7    C     C_2   0.464164 0.060867 0.506485 0.123943
C8    C     C_2   0.464395 0.924022 0.478710 0.149672
C9    C     C_2   0.519448 0.476575 0.067424 0.022926
C10   C     C_2   0.499214 0.475223 0.911109 0.018040
C11   C     C_R   0.328794 0.501278 0.501120 0.811449
C12   C     C_R   0.671010 0.504129 0.499476 0.808898
C13   C     C_R   0.810983 0.585186 0.430922 0.132535
C14   C     C_R   0.185418 0.424870 0.563273 0.115812
C15   C     C_R   0.767626 0.509361 0.497521 -0.070458
C16   C     C_R   0.231541 0.502262 0.502409 -0.066948
C17   C     C_R   0.816929 0.440115 0.569398 -0.203547
C18   C     C_R   0.183290 0.574003 0.431552 -0.205027
C19   C     C_R   0.910012 0.444918 0.579192 0.032585
C20   C     C_R   0.089531 0.570591 0.421309 0.034203
C21   C     C_R   0.952810 0.508565 0.499254 -0.010246
C22   C     C_R   0.046101 0.507988 0.501452 -0.010134
C23   C     C_R   0.901906 0.569417 0.413980 0.015014
C24   C     C_R   0.096197 0.444961 0.584335 0.018560
C25   C     C_R   0.961117 0.390035 0.669663 0.166481
C26   C     C_R   0.038061 0.623676 0.329097 0.171369
Cu1   Cu    Cu3+1 0.515770 0.521810 0.644910 0.986784
Cu2   Cu    Cu3+1 0.484230 0.478190 0.355090 0.980634
H1    H     H_    0.781281 0.386442 0.622029 0.190206
H2    H     H_    0.219666 0.626949 0.379098 0.195115
H3    H     H_    0.447533 0.406891 0.833510 0.164245
H4    H     H_    0.587109 0.508159 0.127395 0.128928
N1    N     N_2   0.460520 0.445420 0.137370 -0.149617
N2    N     N_2   0.539480 0.554580 0.862630 -0.142411
O1    O     O_R   0.508410 0.332340 0.577400 -0.563144
O2    O     O_R   0.491590 0.667660 0.422600 -0.564054
O3    O     O_R   0.481780 0.295500 0.332650 -0.552768
O4    O     O_R   0.518220 0.704500 0.667350 -0.563265
O5    O     O_R   0.383570 0.518390 0.622380 -0.571969
O6    O     O_R   0.616430 0.481610 0.377620 -0.578476
O7    O     O_R   0.356940 0.481550 0.377630 -0.595655
O8    O     O_R   0.643060 0.518450 0.622370 -0.580322
C27   C     C_3   0.766422 0.697950 0.406257 -0.423936
C28   C     C_3   0.750126 0.796650 0.549189 -0.758367
H5    H     H_    0.698180 0.757199 0.595846 0.228607
H6    H     H_    0.813392 0.827458 0.630208 0.273220
H7    H     H_    0.726378 0.882480 0.527857 0.271159
H8    H     H_    0.810082 0.753934 0.362960 0.245295
H9    H     H_    0.702521 0.663481 0.327477 0.216291
C29   C     C_3   0.223132 0.303366 0.570939 -0.398167
C30   C     C_3   0.234263 0.211928 0.419497 -0.752419
H10   H     H_    0.173656 0.203701 0.337449 0.265786
H11   H     H_    0.294238 0.245578 0.384107 0.226671
H12   H     H_    0.243172 0.114326 0.422799 0.280158
H13   H     H_    0.287547 0.331565 0.647508 0.234601
H14   H     H_    0.177898 0.246379 0.611083 0.249587
I1    I     I_    0.898688 0.287472 0.787583 -0.235272
I2    I     I_    0.100138 0.720506 0.205968 -0.229880
I3    I     I_    0.133283 0.391975 0.876665 -0.340529
I4    I     I_    0.867484 0.610703 0.113787 -0.340149
I5    I     I_    0.363026 0.809307 0.299310 -0.294940
I6    I     I_    0.395480 0.145626 0.682053 -0.416575
I7    I     I_    0.603494 0.008362 0.763806 -0.318008
I8    I     I_    0.554561 0.012180 0.235274 -0.315725
C31   C     C_3   0.619959 0.635839 0.957484 -0.180533
C32   C     C_3   0.645983 0.753650 0.920483 -0.609951
H15   H     H_    0.669469 0.727392 0.814259 0.253889
H16   H     H_    0.588855 0.812467 0.923774 0.281057
H17   H     H_    0.702822 0.813973 0.004463 0.225546
H18   H     H_    0.608825 0.677674 0.072502 0.162872
H19   H     H_    0.677185 0.576959 0.952463 0.202546
C33   C     C_3   0.366416 0.404542 0.068060 -0.107985
C34   C     C_3   0.340129 0.266265 0.056252 -0.663909
H20   H     H_    0.392601 0.204228 0.014606 0.275346
H21   H     H_    0.331204 0.262057 0.164065 0.247089
H22   H     H_    0.275537 0.227477 0.980175 0.242074
H23   H     H_    0.322694 0.469546 0.132859 0.225820
H24   H     H_    0.348949 0.411767 0.959062 0.149862

loop_
_geom_bond_atom_site_label_1
_geom_bond_atom_site_label_2
_ccdc_geom_bond_type
C32   H16   S    
C17   H1    S    
C34   H20   S    
C7    C8    S    
C1    C5    S    
C19   C21   A    
C32   H17   S    
Cu2   O6    S    
Cu1   O4    S    
C31   H18   S    
Cu2   O7    S    
C13   C23   A    
C14   C24   A    
C12   O8    A    
N1    C33   S    
C10   H3    S    
Cu1   O5    S    
C33   H24   S    
C18   H2    S    
C27   H8    S    
C18   C20   A    
C9    H4    S    
C28   H7    S    
C1    O3    A    
C8    I5    S    
C32   H15   S    
C21   C22   A    
C9    N1    D    
C34   H21   S    
C3    C24   A    
C2    C6    S    
C25   I1    S    
N2    C31   S    
C28   H6    S    
Cu1   N2    S    
C30   H10   S    
C3    C25   A    
C5    C7    D    
C4    C23   A    
C27   H9    S    
C6    C8    D    
Cu1   O1    S    
C31   H19   S    
C29   H14   S    
C5    I8    S    
C30   H11   S    
C6    I7    S    
C12   O6    A    
C27   C28   S    
C7    I6    S    
C33   H23   S    
C11   C16   S    
C2    O4    A    
C12   C15   S    
C4    I4    S    
C29   C30   S    
C10   N2    D    
C11   O5    A    
C26   I2    S    
C20   C22   A    
Cu2   N1    S    
C21   C23   A    
C34   H22   S    
C14   C16   A    
C13   C27   S    
C28   H5    S    
C1    O1    A    
C9    C10   S    
C2    O2    A    
C15   C17   A    
C33   C34   S    
C4    C26   A    
C29   H13   S    
C30   H12   S    
C13   C15   A    
Cu1   O8    S    
C14   C29   S    
C20   C26   A    
Cu2   O3    S    
C17   C19   A    
C11   O7    A    
C22   C24   A    
C19   C25   A    
Cu2   O2    S    
C16   C18   A    
C31   C32   S    
Cu1   Cu2   S    
C3    I3    S    
