data_mof_unit_50972.cif
_audit_creation_date              2012-12-10T20:45:27-0500
_audit_creation_method            fapswitch 2.2
_symmetry_space_group_name_H-M    P1
_symmetry_Int_Tables_number       1
_space_group_crystal_system       triclinic
_cell_length_a                    10.678974
_cell_length_b                    10.658745
_cell_length_c                    9.881235
_cell_angle_alpha                 89.600116
_cell_angle_beta                  89.982028
_cell_angle_gamma                 90.726612
_cell_volume                      1124.60832139

loop_
_atom_site_label
_atom_site_type_symbol
_atom_type_description
_atom_site_fract_x
_atom_site_fract_y
_atom_site_fract_z
_atom_type_partial_charge
C1    C     C_R   0.503808 0.260081 0.500372 0.884354
C2    C     C_R   0.233670 0.839877 0.125239 0.627270
C3    C     C_R   0.933438 0.568135 0.402492 -0.237355
C4    C     C_R   0.872205 0.496882 0.501797 -0.054898
C5    C     C_R   0.938054 0.432011 0.603260 0.114102
C6    C     C_R   0.066521 0.436792 0.600186 -0.209237
C7    C     C_R   0.127889 0.506688 0.499854 -0.093867
C8    C     C_R   0.062275 0.574959 0.400607 0.014023
C9    C     C_R   0.857512 0.415243 0.839718 -0.126073
C10   C     C_R   0.800519 0.347213 0.944870 -0.238513
C11   C     C_R   0.764260 0.222253 0.925231 -0.309246
C12   C     C_R   0.260363 0.503429 0.499828 0.874631
C13   C     C_R   0.785034 0.165044 0.800410 0.614791
C14   C     C_R   0.840026 0.233445 0.693912 0.534103
C15   C     C_R   0.876704 0.359075 0.713350 -0.125764
C16   C     C_R   0.514298 0.063023 0.623194 0.182010
C17   C     C_R   0.523580 0.128935 0.501718 -0.121659
C18   C     C_R   0.556858 0.066557 0.382596 -0.151200
C19   C     C_R   0.557229 0.936715 0.382285 -0.197157
C20   C     C_R   0.523939 0.871608 0.500933 -0.157339
C21   C     C_R   0.514564 0.935326 0.622824 0.263373
C22   C     C_3   0.417675 0.925675 0.731772 -0.378613
C23   C     C_R   0.504224 0.739974 0.499729 0.883832
C24   C     C_3   0.417583 0.067908 0.732282 -0.477332
C25   C     C_R   0.445672 0.403076 0.072123 0.104905
C26   C     C_R   0.565959 0.588692 0.069207 0.323228
C27   C     C_R   0.564601 0.588419 0.926028 0.642780
C28   C     C_R   0.444355 0.403951 0.929743 0.071817
C29   C     C_3   0.309302 0.366433 0.926362 -0.440571
C30   C     C_3   0.312192 0.362153 0.079963 -0.405103
C31   C     C_R   0.739693 0.497181 0.500428 0.902936
C32   C     C_R   0.248208 0.852251 0.264714 -0.207451
C33   C     C_R   0.194174 0.763944 0.352565 -0.253514
C34   C     C_R   0.124141 0.661922 0.301999 0.022413
C35   C     C_R   0.108361 0.650115 0.159464 0.383960
C36   C     C_R   0.163997 0.739575 0.073103 -0.218898
H1    H     H_    0.720928 0.169518 0.007141 0.196979
H2    H     H_    0.574021 0.116843 0.288598 0.179561
H3    H     H_    0.574211 0.888453 0.288128 0.221554
H4    H     H_    0.328003 0.883322 0.695945 0.180165
H5    H     H_    0.455670 0.884180 0.826520 0.280304
H6    H     H_    0.327829 0.108455 0.696769 0.195849
H7    H     H_    0.455841 0.108431 0.827294 0.240333
H8    H     H_    0.300384 0.931157 0.305077 0.170466
H9    H     H_    0.248776 0.441928 0.885553 0.220712
H10   H     H_    0.293872 0.272832 0.880337 0.209657
H11   H     H_    0.252313 0.433116 0.128299 0.229098
H12   H     H_    0.301897 0.265638 0.122223 0.219104
H13   H     H_    0.205417 0.776149 0.460675 0.154678
H14   H     H_    0.153148 0.730973 0.964570 0.182501
H15   H     H_    0.880624 0.621970 0.328931 0.183717
H16   H     H_    0.118840 0.384383 0.675353 0.155333
H17   H     H_    0.885729 0.511915 0.856151 0.226438
H18   H     H_    0.784942 0.391206 0.041749 0.193460
N1    N     N_R   0.499160 0.499140 0.142800 -0.196201
N2    N     N_R   0.499160 0.499180 0.857150 -0.196642
O1    O     O_R   0.500020 0.316790 0.614690 -0.622977
O2    O     O_R   0.500000 0.316760 0.385350 -0.616690
O3    O     O_R   0.316770 0.500030 0.614670 -0.631682
O4    O     O_R   0.316750 0.499990 0.385330 -0.614142
O5    O     O_R   0.500000 0.683240 0.614650 -0.563928
O6    O     O_R   0.499980 0.683210 0.385310 -0.628691
O7    O     O_R   0.683250 0.500010 0.614670 -0.583012
O8    O     O_R   0.683230 0.499970 0.385330 -0.655158
Zn1   Zn    Zn3+2 0.500010 0.500020 0.653130 1.000075
Zn2   Zn    Zn3+2 0.499990 0.499980 0.346870 0.952573
F1    F     F_    0.286237 0.926027 0.040337 -0.681273
F2    F     F_    0.753510 0.042563 0.783519 -0.617397
F3    F     F_    0.858894 0.177293 0.572854 -0.643398
O9    O     O_3   0.635070 0.682040 0.130014 -0.717088
H19   H     H_    0.654860 0.654474 0.222296 0.373977
F4    F     F_    0.629686 0.677908 0.856559 -0.598339
O10   O     O_3   0.041035 0.553661 0.100058 -0.784181
H20   H     H_    0.023417 0.487033 0.167775 0.343527

loop_
_geom_bond_atom_site_label_1
_geom_bond_atom_site_label_2
_ccdc_geom_bond_type
O7    Zn1   S    
C16   C21   A    
C24   H6    S    
O10   H20   S    
C35   C36   A    
C26   N1    A    
C28   N2    A    
C7    C8    A    
C25   C28   A    
C26   C27   A    
C30   H12   S    
C28   C29   S    
C34   C35   A    
C5    C6    A    
C22   H5    S    
C33   H13   S    
N2    Zn1   S    
C2    C32   A    
C18   C19   A    
C11   H1    S    
C12   O3    A    
O2    Zn2   S    
C23   O6    A    
C19   C20   A    
C16   C17   A    
O9    H19   S    
C9    C10   A    
O4    Zn2   S    
C16   C24   S    
C21   C22   S    
C33   C34   A    
C7    C12   S    
O6    Zn2   S    
C31   O7    A    
C30   H11   S    
C3    C8    A    
C3    H15   S    
C27   N2    A    
C29   H9    S    
O8    Zn2   S    
C29   C30   S    
C1    O1    A    
C20   C23   S    
C22   H4    S    
C17   C18   A    
C32   H8    S    
C8    C34   S    
C19   H3    S    
C2    F1    S    
C26   O9    S    
C14   F3    S    
C22   C24   S    
C9    H17   S    
C3    C4    A    
N1    Zn2   S    
C36   H14   S    
C2    C36   A    
C25   C30   S    
C35   O10   S    
C31   O8    A    
C25   N1    A    
O1    Zn1   S    
C4    C5    A    
C6    C7    A    
C1    C17   S    
C29   H10   S    
C32   C33   A    
C18   H2    S    
C1    O2    A    
O3    Zn1   S    
C11   C13   A    
C9    C15   A    
C10   H18   S    
C5    C15   S    
C4    C31   S    
C10   C11   A    
C12   O4    A    
O5    Zn1   S    
C23   O5    A    
C20   C21   A    
C24   H7    S    
C14   C15   A    
C6    H16   S    
C13   C14   A    
C27   F4    S    
C13   F2    S    
