data_mof_unit_42126.cif
_audit_creation_date              2012-10-26T19:41:54-0400
_audit_creation_method            fapswitch 2.2
_symmetry_space_group_name_H-M    P1
_symmetry_Int_Tables_number       1
_space_group_crystal_system       triclinic
_cell_length_a                    10.620303
_cell_length_b                    10.892136
_cell_length_c                    9.627821
_cell_angle_alpha                 90.610537
_cell_angle_beta                  89.420969
_cell_angle_gamma                 94.365967
_cell_volume                      1110.38183958

loop_
_atom_site_label
_atom_site_type_symbol
_atom_type_description
_atom_site_fract_x
_atom_site_fract_y
_atom_site_fract_z
_atom_type_partial_charge
C1    C     C_R   0.507922 0.262916 0.499569 0.562024
C2    C     C_R   0.527906 0.065200 0.627058 -0.021465
C3    C     C_R   0.516258 0.128469 0.499822 0.025994
C4    C     C_R   0.259448 0.499587 0.500614 0.542139
C5    C     C_R   0.494892 0.060462 0.375307 0.214124
C6    C     C_R   0.485297 0.932338 0.379509 -0.153271
C7    C     C_R   0.482951 0.870536 0.505997 -0.046547
C8    C     C_R   0.658867 0.689709 0.134857 0.245673
C9    C     C_R   0.712726 0.788027 0.053361 0.203014
C10   C     C_R   0.718183 0.774648 0.912233 -0.140763
C11   C     C_R   0.656874 0.673759 0.849518 -0.155297
C12   C     C_3   0.961098 0.501357 0.367669 -0.108605
C13   C     C_R   0.576779 0.587568 0.923417 0.094674
C14   C     C_R   0.576906 0.590940 0.073156 0.145004
C15   C     C_R   0.427746 0.416023 0.073677 0.000473
C16   C     C_R   0.491545 0.736767 0.501630 0.556763
C17   C     C_R   0.427351 0.416473 0.926179 -0.009728
C18   C     C_R   0.740482 0.500162 0.499447 0.557994
C19   C     C_3   0.038671 0.499068 0.632507 -0.109891
C20   C     C_3   0.948926 0.398571 0.563243 -0.124393
C21   C     C_3   0.877484 0.500350 0.498457 0.044150
C22   C     C_3   0.964907 0.600872 0.567631 -0.125601
C23   C     C_3   0.034810 0.399535 0.432540 -0.122986
C24   C     C_3   0.050853 0.601849 0.436938 -0.126562
C25   C     C_3   0.122343 0.500005 0.501700 0.043846
C26   C     C_R   0.575729 0.122976 0.750327 -0.098907
C27   C     C_R   0.556416 0.066269 0.878510 -0.108753
C28   C     C_R   0.489756 0.951719 0.885749 -0.115448
C29   C     C_R   0.456634 0.887689 0.763846 -0.089903
C30   C     C_R   0.488310 0.939070 0.632288 0.007100
Cu1   Cu    Cu3+1 0.499990 0.499990 0.640660 0.909885
Cu2   Cu    Cu3+1 0.500010 0.500010 0.359340 1.013219
H1    H     H_    0.903902 0.315435 0.614701 0.111700
H2    H     H_    0.932931 0.683169 0.622745 0.106104
H3    H     H_    0.095676 0.685048 0.385456 0.114807
H4    H     H_    0.926674 0.502449 0.259211 0.133909
H5    H     H_    0.066519 0.317139 0.377438 0.119297
H6    H     H_    0.630338 0.210818 0.749239 0.147551
H7    H     H_    0.590658 0.112734 0.972170 0.156575
H8    H     H_    0.787268 0.724947 0.275566 0.313645
H9    H     H_    0.733348 0.906685 0.204661 0.337459
H10   H     H_    0.460432 0.059024 0.176649 0.306827
H11   H     H_    0.468234 0.909859 0.985486 0.103294
H12   H     H_    0.403363 0.799904 0.775072 0.150399
H13   H     H_    0.478106 0.880912 0.282576 0.127969
H14   H     H_    0.368313 0.347016 0.128373 0.140792
H15   H     H_    0.769902 0.844058 0.849732 0.156303
H16   H     H_    0.673367 0.670774 0.741228 0.202352
H17   H     H_    0.367515 0.347751 0.871200 0.123451
H18   H     H_    0.072950 0.498139 0.741020 0.123879
N1    N     N_R   0.501210 0.501210 0.147910 -0.228362
N2    N     N_R   0.501250 0.501290 0.852040 -0.242347
O1    O     O_R   0.499990 0.319640 0.618810 -0.532277
O2    O     O_3   0.769388 0.894904 0.110498 -0.710277
O3    O     O_3   0.485461 0.120045 0.250215 -0.692916
O4    O     O_R   0.500000 0.319660 0.381240 -0.434266
O5    O     O_R   0.316850 0.499960 0.618770 -0.510014
O6    O     O_R   0.316860 0.499980 0.381190 -0.513665
O7    O     O_R   0.500000 0.680340 0.618760 -0.539559
O8    O     O_R   0.500010 0.680360 0.381190 -0.445902
O9    O     O_R   0.683140 0.500020 0.618810 -0.536399
O10   O     O_R   0.683150 0.500040 0.381230 -0.437130
O11   O     O_3   0.699264 0.687585 0.268687 -0.661156

loop_
_geom_bond_atom_site_label_1
_geom_bond_atom_site_label_2
_ccdc_geom_bond_type
C4    O5    A    
C8    C14   A    
Cu2   N1    S    
C6    C7    A    
C6    H13   S    
C15   N1    A    
H10   O3    S    
C12   H4    S    
C13   N2    A    
C9    C10   A    
Cu1   O9    S    
C28   H11   S    
C14   N1    A    
C19   H18   S    
C20   C23   S    
Cu2   O6    S    
Cu1   N2    S    
C2    C30   A    
Cu1   O5    S    
C19   C20   S    
C2    C3    A    
C26   C27   A    
Cu2   O10   S    
C2    C26   A    
C7    C30   A    
C23   H5    S    
C21   C22   S    
Cu1   O1    S    
C11   C13   A    
C12   C23   S    
C11   H16   S    
C29   C30   A    
H8    O11   S    
C19   C25   S    
C20   H1    S    
C17   N2    A    
C28   C29   A    
C1    O4    A    
Cu2   O4    S    
C4    C25   S    
C23   C25   S    
C29   H12   S    
C5    C6    A    
C22   H2    S    
C22   C24   S    
H9    O2    S    
C24   H3    S    
C10   C11   A    
Cu2   O8    S    
C8    O11   S    
Cu1   O7    S    
C18   C21   S    
C3    C5    A    
C27   C28   A    
C19   C22   S    
C24   C25   S    
C16   O8    A    
C17   H17   S    
C10   H15   S    
C15   C17   A    
C12   C24   S    
C7    C16   S    
C1    O1    A    
C9    O2    S    
C15   H14   S    
C4    O6    A    
C20   C21   S    
C13   C14   A    
C12   C21   S    
C5    O3    S    
C18   O9    A    
C26   H6    S    
C18   O10   A    
Cu1   Cu2   S    
C27   H7    S    
C8    C9    A    
C1    C3    S    
C16   O7    A    
