data_mof_unit_59932.cif
_audit_creation_date              2013-03-05T16:08:06-0500
_audit_creation_method            fapswitch 2.2
_symmetry_space_group_name_H-M    P1
_symmetry_Int_Tables_number       1
_space_group_crystal_system       triclinic
_cell_length_a                    6.960021
_cell_length_b                    14.523016
_cell_length_c                    15.968311
_cell_angle_alpha                 90.472374
_cell_angle_beta                  90.033299
_cell_angle_gamma                 89.99189
_cell_volume                      1614.02965841

loop_
_atom_site_label
_atom_site_type_symbol
_atom_site_description
_atom_site_fract_x
_atom_site_fract_y
_atom_site_fract_z
_atom_type_partial_charge
O1    O     O_R   0.494400 0.415450 0.412630 -0.596712
O2    O     O_R   0.823940 0.405730 0.586760 -0.606387
O3    O     O_R   0.994240 0.584550 0.587370 -0.572163
C1    C     C_R   0.655205 0.383557 0.615276 0.935572
O4    O     O_R   0.824110 0.404430 0.413240 -0.605767
O5    O     O_R   0.994420 0.583240 0.412620 -0.579863
C2    C     C_R   0.655309 0.382176 0.384286 0.927619
O6    O     O_R   0.494230 0.416760 0.587380 -0.596378
O7    O     O_3   0.660800 0.558670 0.500000 -0.250611
V1    V     V_3+5 0.935650 0.489120 0.500000 1.166646
O8    O     O_R   0.324140 0.594270 0.413240 -0.599320
C3    C     C_R   0.155048 0.616016 0.384186 0.970782
O9    O     O_R   0.323960 0.595570 0.586760 -0.598337
C4    C     C_R   0.155135 0.618046 0.615159 0.996406
V2    V     V_3+5 0.435660 0.510880 0.500000 1.168815
O10   O     O_3   0.160640 0.441330 0.500000 -0.292861
C5    C     C_3   0.050953 0.669433 0.770680 -0.195604
C6    C     C_3   0.224980 0.715970 0.814830 -0.102181
H1    H     H_    0.300712 0.689067 0.870724 0.101615
H2    H     H_    0.984193 0.603390 0.789658 0.120156
C7    C     C_3   0.120954 0.809586 0.809999 -0.123499
C8    C     C_3   0.946177 0.763899 0.766894 -0.193540
C9    C     C_3   0.042754 0.781519 0.682036 0.413524
C10   C     C_3   0.214789 0.829154 0.724400 -0.212434
C11   C     C_3   0.318460 0.734396 0.728297 -0.116209
C12   C     C_3   0.144522 0.688238 0.684762 -0.224796
H3    H     H_    0.792720 0.776695 0.781910 0.134863
H4    H     H_    0.280226 0.895305 0.704876 0.146112
H5    H     H_    0.471647 0.722035 0.712479 0.140940
C13   C     C_R   0.272639 0.815459 0.239588 0.173232
C14   C     C_R   0.118471 0.815251 0.183063 -0.231749
C15   C     C_R   0.966804 0.753542 0.198823 -0.159517
H6    H     H_    0.844371 0.750952 0.157266 0.137566
C16   C     C_R   0.977810 0.689929 0.264881 -0.145696
H7    H     H_    0.862964 0.640549 0.272324 0.127755
C17   C     C_R   0.141147 0.685809 0.317040 -0.222067
C18   C     C_R   0.283966 0.752255 0.304712 0.212431
C19   C     C_3   0.494758 0.739925 0.293042 -0.475820
C20   C     C_3   0.482542 0.809144 0.222407 -0.473865
H8    H     H_    0.531135 0.669190 0.271222 0.179249
H9    H     H_    0.578508 0.765394 0.347812 0.226984
H10   H     H_    0.512603 0.778796 0.159640 0.190896
H11   H     H_    0.558508 0.874804 0.236489 0.199696
C21   C     C_R   0.493427 0.315856 0.741353 0.157975
C22   C     C_R   0.647632 0.317165 0.685040 -0.226582
C23   C     C_R   0.799020 0.254742 0.698940 -0.148761
H12   H     H_    0.921291 0.253283 0.657303 0.142799
C24   C     C_R   0.787742 0.189003 0.763065 -0.128720
H13   H     H_    0.902365 0.139242 0.769244 0.140406
C25   C     C_R   0.624394 0.183544 0.814911 -0.230138
C26   C     C_R   0.481876 0.250560 0.804592 0.157038
C27   C     C_3   0.271010 0.238794 0.792437 -0.468067
C28   C     C_3   0.283499 0.310385 0.723837 -0.456041
H14   H     H_    0.187273 0.262459 0.847823 0.190187
H15   H     H_    0.234391 0.168854 0.768607 0.194773
H16   H     H_    0.207799 0.375634 0.739729 0.180955
H17   H     H_    0.253265 0.282209 0.660251 0.198358
C29   C     C_R   0.492988 0.315447 0.256702 0.155939
C30   C     C_R   0.647351 0.316141 0.313088 -0.222836
C31   C     C_R   0.799015 0.254174 0.297330 -0.150347
H18   H     H_    0.921480 0.252282 0.338870 0.141498
C32   C     C_R   0.787913 0.189478 0.231271 -0.149315
H19   H     H_    0.902750 0.139952 0.223744 0.135393
C33   C     C_R   0.624505 0.184586 0.179178 -0.226009
C34   C     C_R   0.481563 0.251164 0.191563 0.161734
C35   C     C_3   0.270884 0.238840 0.203457 -0.470036
C36   C     C_3   0.283202 0.309271 0.274119 -0.457135
H20   H     H_    0.234918 0.168448 0.225265 0.191624
H21   H     H_    0.186707 0.263297 0.148803 0.191812
H22   H     H_    0.253577 0.279974 0.336892 0.196818
H23   H     H_    0.206893 0.374632 0.260172 0.182081
O11   O     O_R   0.771650 0.079500 0.908680 -0.595186
O12   O     O_R   0.441690 0.091800 0.082800 -0.594819
O13   O     O_R   0.271460 0.912980 0.083410 -0.593710
C37   C     C_R   0.610720 0.113893 0.111932 0.934620
O14   O     O_R   0.441930 0.090510 0.909280 -0.595386
O15   O     O_R   0.271690 0.911670 0.908660 -0.592119
C38   C     C_R   0.610920 0.112518 0.880615 0.950103
O16   O     O_R   0.771410 0.080810 0.083440 -0.595911
O17   O     O_3   0.605100 0.937580 0.996050 -0.277195
V3    V     V_3+5 0.330220 0.007110 0.996030 1.145203
O18   O     O_R   0.941980 0.900620 0.909250 -0.595024
C39   C     C_R   0.110732 0.878624 0.880477 0.938010
O19   O     O_R   0.941740 0.901920 0.082770 -0.599637
C40   C     C_R   0.110556 0.880150 0.111794 0.933200
V4    V     V_3+5 0.830220 0.985300 0.996000 1.147159
O20   O     O_3   0.105210 0.054870 0.996020 -0.277941
N1    N     N_R   0.942011 0.820360 0.610499 0.224406
O21   O     O_R   0.857698 0.899924 0.617871 -0.415944
O22   O     O_R   0.939479 0.777441 0.538725 -0.420716

loop_
_geom_bond_atom_site_label_1
_geom_bond_atom_site_label_2
_geom_bond_distance
_ccdc_geom_bond_type
C35   H20   1.111334 S    
C14   C40   1.484647 S    
C6    C7    1.542733 S    
C1    O6    1.299632 A    
C22   C23   1.408590 A    
C27   C28   1.519026 S    
C32   H19   1.081265 S    
C5    C12   1.545407 S    
C17   C18   1.400599 A    
O19   V4    2.003689 S    
C16   H7    1.081221 S    
O5    C3    1.298809 A    
C19   C20   1.519393 S    
C35   H21   1.111540 S    
O15   C39   1.297637 A    
V2    O10   2.164429 S    
C5    H2    1.110302 S    
C31   C32   1.408925 A    
C6    H1    1.110061 S    
C9    C12   1.529547 S    
O12   V3    2.001356 S    
C32   C33   1.410128 A    
O8    V2    2.003665 S    
C21   C28   1.489481 S    
C7    C39   1.502790 S    
O17   V4    1.713362 S    
C9    C10   1.536708 S    
O1    V2    2.000756 S    
C3    C17   1.484641 S    
O7    V1    2.163129 S    
C36   H23   1.111723 S    
C27   H15   1.111346 S    
C24   C25   1.409416 A    
C35   C36   1.519103 S    
C30   C31   1.408467 A    
O9    C4    1.300369 A    
O12   C37   1.304000 A    
C6    C11   1.552881 S    
C25   C38   1.480404 S    
C2    C30   1.482347 S    
C27   H14   1.111542 S    
C25   C26   1.400189 A    
C20   H10   1.111547 S    
C1    C22   1.480297 S    
C11   H5    1.110085 S    
C23   C24   1.407965 A    
C26   C27   1.489971 S    
O19   C40   1.302675 A    
C10   C11   1.555457 S    
C19   H9    1.111587 S    
O4    C2    1.302118 A    
C28   H17   1.111573 S    
V4    O20   2.164378 S    
C20   H11   1.111707 S    
C29   C30   1.401361 A    
O18   V4    2.002324 S    
C13   C18   1.394941 A    
C31   H18   1.080239 S    
C15   C16   1.409967 A    
O2    C1    1.301310 A    
C18   C19   1.489601 S    
C29   C34   1.394184 A    
C14   C15   1.408933 A    
O15   V3    2.000305 S    
C5    C6    1.553157 S    
C4    C12   1.503769 S    
V3    O20   1.712714 S    
O3    C4    1.297532 A    
C21   C26   1.393332 A    
C24   H13   1.081374 S    
N1    O22   1.300223 A    
O18   C39   1.300284 A    
O6    V2    2.003032 S    
C9    N1    1.457516 S    
O9    V2    2.002357 S    
O13   V3    2.003809 S    
O2    V1    2.004934 S    
C21   C22   1.400815 A    
C28   H16   1.111762 S    
C23   H12   1.080343 S    
O1    C2    1.299786 A    
C10   H4    1.110323 S    
O14   C38   1.303152 A    
O17   V3    2.163179 S    
O14   V3    2.004911 S    
O5    V1    2.003725 S    
O11   V4    2.003158 S    
O8    C3    1.304498 A    
C5    C8    1.555215 S    
C8    H3    1.110086 S    
C36   H22   1.111586 S    
C15   H6    1.080202 S    
C11   C12   1.545905 S    
O4    V1    2.001438 S    
O3    V1    2.000290 S    
V1    O10   1.712764 S    
C33   C34   1.400216 A    
C19   H8    1.111290 S    
C13   C14   1.401745 A    
C33   C37   1.482586 S    
C13   C20   1.489294 S    
C16   C17   1.410446 A    
O13   C40   1.300473 A    
O7    V2    1.713898 S    
C29   C36   1.489380 S    
N1    O21   1.300411 A    
C34   C35   1.489695 S    
C7    C10   1.543730 S    
O11   C38   1.298086 A    
C8    C9    1.536307 S    
C7    C8    1.544511 S    
C37   O16   1.298271 A    
O16   V4    2.002425 S    
