data_mof_unit_32296.cif
_audit_creation_date              2012-12-10T17:31:55-0500
_audit_creation_method            fapswitch 2.2
_symmetry_space_group_name_H-M    P1
_symmetry_Int_Tables_number       1
_space_group_crystal_system       triclinic
_cell_length_a                    12.026375
_cell_length_b                    11.531965
_cell_length_c                    12.844347
_cell_angle_alpha                 89.508983
_cell_angle_beta                  93.567184
_cell_angle_gamma                 86.293855
_cell_volume                      1774.0421454

loop_
_atom_site_label
_atom_site_type_symbol
_atom_type_description
_atom_site_fract_x
_atom_site_fract_y
_atom_site_fract_z
_atom_type_partial_charge
C1    C     C_R   0.477787 0.501508 0.300214 0.937204
C2    C     C_R   0.522213 0.498492 0.699785 0.937209
C3    C     C_R   0.042462 0.644866 0.547931 0.079040
C4    C     C_R   0.957538 0.355134 0.452070 0.079046
C5    C     C_R   0.159749 0.624187 0.549367 0.014823
C6    C     C_R   0.840251 0.375813 0.450634 0.014819
C7    C     C_R   0.143999 0.433192 0.487166 -0.073826
C8    C     C_R   0.856001 0.566808 0.512834 -0.073827
C9    C     C_R   0.025632 0.446217 0.484655 -0.005109
C10   C     C_R   0.974368 0.553783 0.515346 -0.005110
C11   C     C_R   0.499700 0.281991 0.499271 0.910443
C12   C     C_R   0.500301 0.718009 0.500729 0.910443
C13   C     C_1   0.499333 0.161572 0.498895 -0.209285
C14   C     C_1   0.500667 0.838428 0.501105 -0.209284
C15   C     C_1   0.499654 0.059347 0.499430 -0.020517
C16   C     C_1   0.500346 0.940653 0.500570 -0.020517
C17   C     C_R   0.535889 0.488668 0.810540 -0.196299
C18   C     C_R   0.464111 0.511331 0.189460 -0.196299
C19   C     C_R   0.434289 0.641031 0.042242 -0.295114
C20   C     C_R   0.565710 0.358968 0.957757 -0.295117
C21   C     C_R   0.427360 0.620278 0.147594 0.484777
C22   C     C_R   0.572638 0.379720 0.852405 0.484777
C23   C     C_R   0.507388 0.420865 0.128150 0.063403
C24   C     C_R   0.492615 0.579136 0.871850 0.063402
C25   C     C_R   0.518246 0.444204 0.021653 0.042875
C26   C     C_R   0.481754 0.555796 0.978347 0.042871
H1    H     H_    0.403858 0.725824 0.013047 0.174154
H2    H     H_    0.596141 0.274175 0.986952 0.174153
H3    H     H_    0.813419 0.645813 0.538328 0.135530
H4    H     H_    0.186581 0.354187 0.461672 0.135530
H5    H     H_    0.785800 0.308730 0.427746 0.156188
H6    H     H_    0.214200 0.691270 0.572254 0.156185
N1    N     N_R   0.792200 0.479100 0.480660 -0.117737
N2    N     N_R   0.207800 0.520900 0.519340 -0.117736
O1    O     O_R   0.578300 0.494420 0.341180 -0.628439
O2    O     O_R   0.421700 0.505580 0.658820 -0.628438
O3    O     O_R   0.390690 0.507830 0.353590 -0.584782
O4    O     O_R   0.609310 0.492170 0.646410 -0.584784
O5    O     O_R   0.593810 0.327740 0.493800 -0.610426
O6    O     O_R   0.406190 0.672260 0.506200 -0.610426
O7    O     O_R   0.406190 0.341150 0.506220 -0.632946
O8    O     O_R   0.593810 0.658850 0.493780 -0.632947
Zn1   Zn    Zn3+2 0.625270 0.491050 0.491710 0.954636
Zn2   Zn    Zn3+2 0.374730 0.508950 0.508290 0.954637
C27   C     C_3   0.462503 0.699725 0.823228 -0.383287
C28   C     C_3   0.336720 0.722482 0.798727 -0.840878
H7    H     H_    0.304020 0.655483 0.746084 0.277421
H8    H     H_    0.289658 0.722312 0.870135 0.254200
H9    H     H_    0.320425 0.808665 0.759621 0.235367
H10   H     H_    0.494830 0.768379 0.874742 0.191467
H11   H     H_    0.504955 0.711048 0.749811 0.183922
C29   C     C_3   0.537510 0.300278 0.176774 -0.383291
C30   C     C_3   0.663295 0.277532 0.201268 -0.840872
H12   H     H_    0.710350 0.277706 0.129856 0.254202
H13   H     H_    0.695993 0.344534 0.253908 0.277422
H14   H     H_    0.679597 0.191351 0.240374 0.235364
H15   H     H_    0.495063 0.288955 0.250195 0.183925
H16   H     H_    0.505184 0.231621 0.125264 0.191465
O9    O     O_3   0.618331 0.294248 0.789684 -0.591193
C31   C     C_3   0.541745 0.207509 0.773515 -0.315530
H17   H     H_    0.460589 0.244459 0.736988 0.159705
H18   H     H_    0.528441 0.160576 0.847221 0.152523
H19   H     H_    0.576911 0.142532 0.719345 0.198499
O10   O     O_3   0.381666 0.705750 0.210315 -0.591193
C32   C     C_3   0.458252 0.792488 0.226486 -0.315528
H20   H     H_    0.471562 0.839420 0.152781 0.152521
H21   H     H_    0.539407 0.755537 0.263017 0.159705
H22   H     H_    0.423085 0.857466 0.280653 0.198499
C33   C     C_3   0.988911 0.762437 0.578360 -0.423560
C34   C     C_3   0.068838 0.856807 0.606959 -0.886058
H23   H     H_    0.123384 0.830168 0.677095 0.256964
H24   H     H_    0.120152 0.875328 0.540520 0.263606
H25   H     H_    0.019804 0.938207 0.625257 0.261767
H26   H     H_    0.932276 0.796783 0.511926 0.213832
H27   H     H_    0.937968 0.749375 0.646281 0.212645
C35   C     C_3   0.011089 0.237562 0.421645 -0.423568
C36   C     C_3   0.931162 0.143192 0.393053 -0.886064
H28   H     H_    0.879849 0.124675 0.459495 0.263609
H29   H     H_    0.876614 0.169827 0.322918 0.256963
H30   H     H_    0.980195 0.061791 0.374758 0.261770
H31   H     H_    0.062029 0.250621 0.353721 0.212647
H32   H     H_    0.067727 0.203220 0.488077 0.213834

loop_
_geom_bond_atom_site_label_1
_geom_bond_atom_site_label_2
_ccdc_geom_bond_type
C18   C21   A    
C36   H28   S    
C28   H9    S    
C1    C18   S    
C31   H19   S    
C24   C27   S    
C19   C21   A    
C24   C26   A    
C36   H30   S    
C20   C25   A    
C27   H11   S    
C15   C16   S    
C31   H18   S    
C19   C26   A    
C21   O10   S    
C12   O8    A    
C32   H21   S    
C11   O7    A    
C34   H23   S    
O1    Zn1   S    
C9    C10   A    
C1    O3    A    
C5    H6    S    
C36   H29   S    
C6    H5    S    
O9    C31   S    
C7    H4    S    
C2    C17   S    
C30   H13   S    
C28   H8    S    
C17   C24   A    
C18   C23   A    
N1    Zn1   S    
N2    Zn2   S    
C35   C36   S    
C4    C6    A    
C35   H32   S    
C22   O9    S    
O5    Zn1   S    
C20   H2    S    
C25   C26   A    
C27   C28   S    
C31   H17   S    
C12   O6    A    
C2    O4    A    
C32   H22   S    
C5    N2    A    
C34   H25   S    
C33   H26   S    
C11   O5    A    
C29   H16   S    
C12   C14   S    
C13   C15   T    
C7    N2    A    
C14   C16   T    
O2    Zn2   S    
O8    Zn1   S    
C8    H3    S    
C19   H1    S    
C29   C30   S    
C1    O1    A    
C30   H14   S    
C2    O2    A    
C7    C9    A    
C28   H7    S    
C3    C33   S    
C20   C22   A    
C3    C5    A    
C35   H31   S    
C30   H12   S    
C17   C22   A    
C6    N1    A    
O10   C32   S    
O3    Zn2   S    
O4    Zn1   S    
C3    C10   A    
C11   C13   S    
C23   C29   S    
C27   H10   S    
O7    Zn2   S    
C33   H27   S    
C8    N1    A    
C23   C25   A    
C33   C34   S    
C4    C35   S    
C29   H15   S    
O6    Zn2   S    
C8    C10   A    
C32   H20   S    
C34   H24   S    
C4    C9    A    
