data_mof_unit_37384.cif
_audit_creation_date              2013-03-05T15:48:05-0500
_audit_creation_method            fapswitch 2.2
_symmetry_space_group_name_H-M    P1
_symmetry_Int_Tables_number       1
_space_group_crystal_system       triclinic
_cell_length_a                    15.006947
_cell_length_b                    12.993521
_cell_length_c                    11.746722
_cell_angle_alpha                 99.997599
_cell_angle_beta                  93.700442
_cell_angle_gamma                 91.768467
_cell_volume                      2248.98190509

loop_
_atom_site_label
_atom_site_type_symbol
_atom_site_description
_atom_site_fract_x
_atom_site_fract_y
_atom_site_fract_z
_atom_type_partial_charge
O1    O     O_R   0.504720 0.354460 0.582000 -0.598302
O2    O     O_R   0.495280 0.645540 0.418000 -0.564207
O3    O     O_R   0.493480 0.341410 0.386200 -0.514853
O4    O     O_R   0.506520 0.658590 0.613800 -0.520268
C1    C     C_R   0.507045 0.299565 0.478527 0.824331
C2    C     C_R   0.492731 0.700269 0.521670 0.832106
O5    O     O_R   0.375880 0.506510 0.597910 -0.540224
O6    O     O_R   0.624120 0.493490 0.402090 -0.544694
O7    O     O_R   0.364640 0.493450 0.402110 -0.572297
O8    O     O_R   0.635360 0.506550 0.597890 -0.569847
C3    C     C_R   0.329227 0.498935 0.500168 0.782964
C4    C     C_R   0.670774 0.501070 0.499834 0.785687
Cu1   Cu    Cu3+1 0.506660 0.507730 0.615930 1.018542
Cu2   Cu    Cu3+1 0.493340 0.492270 0.384070 1.030382
C5    C     C_R   0.815618 0.598555 0.505969 0.132319
C6    C     C_R   0.184391 0.401464 0.494132 0.134303
C7    C     C_R   0.767041 0.503635 0.499887 -0.114399
C8    C     C_R   0.232964 0.496374 0.500130 -0.113255
C9    C     C_R   0.809201 0.409951 0.495473 -0.143212
C10   C     C_R   0.190804 0.590055 0.504521 -0.146711
C11   C     C_R   0.902042 0.407230 0.496679 -0.016878
C12   C     C_R   0.097965 0.592783 0.503364 -0.016302
C13   C     C_R   0.953119 0.501613 0.501207 -0.042656
C14   C     C_R   0.046890 0.498403 0.498868 -0.043286
C15   C     C_R   0.910216 0.598936 0.507883 -0.003694
C16   C     C_R   0.089795 0.401085 0.492240 -0.004501
C17   C     C_R   0.943922 0.311102 0.490384 0.228220
C18   C     C_R   0.056090 0.688916 0.509711 0.230039
C19   C     C_R   0.036840 0.307457 0.486058 0.248047
C20   C     C_R   0.963176 0.692569 0.514132 0.246497
H1    H     H_    0.768009 0.338970 0.489387 0.183301
H2    H     H_    0.231999 0.661030 0.510567 0.181300
C21   C     C_R   0.481008 0.814091 0.535011 -0.242445
C22   C     C_R   0.518207 0.185515 0.466029 -0.257088
C23   C     C_R   0.508165 0.012506 0.345475 0.070862
C24   C     C_R   0.495424 0.986359 0.656428 0.100184
C25   C     C_R   0.518269 0.121771 0.355457 0.273080
C26   C     C_R   0.483734 0.877372 0.645991 0.251694
C27   C     C_R   0.528187 0.138472 0.565624 0.131378
C28   C     C_R   0.469732 0.861082 0.435699 0.141627
C29   C     C_R   0.507053 0.031147 0.556447 0.055857
C30   C     C_R   0.493562 0.968146 0.444900 -0.001245
N1    N     N_R   0.516670 0.519360 0.790130 -0.185684
N2    N     N_R   0.483330 0.480640 0.209870 -0.186160
C31   C     C_R   0.410036 0.404605 0.024577 0.231609
C32   C     C_R   0.590496 0.594633 0.975520 0.233514
C33   C     C_R   0.420093 0.413901 0.146161 0.291991
C34   C     C_R   0.581012 0.584645 0.853795 0.294256
C35   C     C_R   0.538857 0.541172 0.158309 0.324353
C36   C     C_R   0.459360 0.461126 0.842177 0.303206
C37   C     C_R   0.533067 0.534832 0.034205 -0.172792
C38   C     C_R   0.466561 0.465645 0.966020 -0.172855
N3    N     N_3   0.768296 0.693268 0.508237 -0.500522
H3    H     H_    0.725374 0.685791 0.433298 0.236422
H4    H     H_    0.729992 0.703989 0.580325 0.235027
N4    N     N_3   0.231714 0.306756 0.491906 -0.503474
H5    H     H_    0.270060 0.296036 0.419861 0.233456
H6    H     H_    0.274590 0.314240 0.566886 0.235665
N5    N     N_R   0.342807 0.331152 0.963844 0.083077
O9    O     O_R   0.360820 0.232801 0.939072 -0.320075
O10   O     O_R   0.259793 0.357220 0.960020 -0.329619
N6    N     N_R   0.659869 0.665214 0.036018 0.081979
O11   O     O_R   0.741352 0.634153 0.042424 -0.329279
O12   O     O_R   0.646183 0.764884 0.057949 -0.312367
N7    N     N_R   0.892203 0.215673 0.487806 0.152247
O13   O     O_R   0.849983 0.201541 0.577565 -0.299224
O14   O     O_R   0.893127 0.139689 0.399770 -0.217424
N8    N     N_R   0.107816 0.784349 0.512330 0.151690
O15   O     O_R   0.150031 0.798522 0.422582 -0.310582
O16   O     O_R   0.106928 0.860285 0.600419 -0.219465
N9    N     N_R   0.075930 0.207314 0.475853 0.184657
O17   O     O_R   0.076750 0.156809 0.562313 -0.212803
O18   O     O_R   0.097241 0.159831 0.375025 -0.250548
N10   N     N_R   0.924100 0.792737 0.524607 0.185445
O19   O     O_R   0.902614 0.839898 0.625476 -0.247111
O20   O     O_R   0.923519 0.843589 0.438448 -0.211054
N11   N     N_3   0.426723 0.802793 0.329271 -0.495978
H7    H     H_    0.380186 0.748455 0.349670 0.234146
H8    H     H_    0.384465 0.852455 0.292384 0.249890
N12   N     N_3   0.571680 0.194799 0.672009 -0.506222
H9    H     H_    0.626557 0.239430 0.654073 0.252885
H10   H     H_    0.526856 0.242663 0.717772 0.259464
N13   N     N_R   0.464159 0.832807 0.745978 0.136440
O21   O     O_R   0.514617 0.855928 0.841899 -0.348748
O22   O     O_R   0.390554 0.776754 0.744475 -0.314490
N14   N     N_R   0.539107 0.166255 0.255924 0.135927
O23   O     O_R   0.490296 0.141944 0.158768 -0.349338
O24   O     O_R   0.612224 0.223579 0.259280 -0.312859
N15   N     N_3   0.520857 0.945792 0.237113 -0.497450
H11   H     H_    0.470289 0.957309 0.175794 0.282361
H12   H     H_    0.582789 0.965286 0.208790 0.298335
N16   N     N_3   0.488998 0.052328 0.766964 -0.500996
H13   H     H_    0.428889 0.034150 0.800810 0.293422
H14   H     H_    0.542614 0.039379 0.823248 0.296655
N17   N     N_3   0.391406 0.398478 0.768365 -0.513722
H15   H     H_    0.328487 0.423107 0.791632 0.265247
H16   H     H_    0.398606 0.319439 0.771066 0.247138
N18   N     N_3   0.601087 0.611204 0.233522 -0.502842
H17   H     H_    0.588982 0.688367 0.225364 0.273984
H18   H     H_    0.666387 0.591199 0.216835 0.259864
N19   N     N_3   0.640004 0.643043 0.795217 -0.495862
H19   H     H_    0.705467 0.621704 0.812355 0.245368
H20   H     H_    0.635999 0.722651 0.827640 0.284887
N20   N     N_3   0.362452 0.353848 0.204710 -0.496302
H21   H     H_    0.296602 0.374367 0.188743 0.245031
H22   H     H_    0.367162 0.274543 0.171230 0.283855

loop_
_geom_bond_atom_site_label_1
_geom_bond_atom_site_label_2
_geom_bond_distance
_ccdc_geom_bond_type
N2    C35   1.367458 A    
C3    C8    1.443948 S    
N19   H19   1.045551 S    
C26   N13   1.439188 S    
C17   C19   1.400581 A    
C22   C25   1.414113 A    
C29   C30   1.418147 A    
N3    H4    1.045793 S    
N17   H15   1.044158 S    
C9    H1    1.083550 S    
N20   H22   1.043483 S    
C27   C29   1.404649 A    
N11   H7    1.045738 S    
O5    C3    1.292612 A    
N10   O20   1.300913 A    
C32   N6    1.431514 S    
O1    C1    1.301282 A    
C5    N3    1.436859 S    
C9    C11   1.394025 A    
C14   C16   1.429035 A    
C20   N10   1.433118 S    
N14   O24   1.301584 A    
C36   N17   1.429655 S    
C5    C15   1.418207 A    
N4    H5    1.045777 S    
C31   C33   1.410087 A    
O4    Cu1   1.964765 S    
C23   C30   1.415370 A    
N6    O12   1.301207 A    
C35   N18   1.429218 S    
N8    O15   1.301198 A    
N7    O14   1.300992 A    
C4    C7    1.443985 S    
C36   C38   1.442595 A    
C13   C14   1.411026 A    
N15   H12   1.045611 S    
N1    C34   1.359111 A    
N2    C33   1.358244 A    
C24   N16   1.436943 S    
C28   C30   1.409578 A    
C11   C17   1.408172 A    
N5    O9    1.301218 A    
N19   H20   1.043370 S    
C12   C18   1.408159 A    
Cu1   Cu2   2.689900 S    
C24   C29   1.416310 A    
O2    C2    1.302757 A    
N20   H21   1.045244 S    
N11   H8    1.045551 S    
C6    C16   1.418179 A    
C32   C34   1.410596 A    
N5    O10   1.301094 A    
C21   C28   1.410881 A    
N10   O19   1.301091 A    
C22   C27   1.412821 A    
C25   N14   1.438598 S    
N12   H10   1.041474 S    
N9    O18   1.301187 A    
N14   O23   1.300570 A    
C31   C38   1.430014 A    
C35   C37   1.442582 A    
N3    H3    1.045228 S    
C32   C37   1.429361 A    
C37   C38   1.427322 A    
O7    Cu2   1.956772 S    
C6    N4    1.436855 S    
N6    O11   1.301124 A    
C17   N7    1.437129 S    
N13   O21   1.300588 A    
O6    C4    1.292628 A    
C1    C22   1.479397 S    
N16   H14   1.044588 S    
O7    C3    1.291177 A    
O3    Cu2   1.964766 S    
O8    C4    1.291173 A    
C23   N15   1.437473 S    
O4    C2    1.299546 A    
N13   O22   1.301625 A    
C10   C12   1.394027 A    
N18   H17   1.043926 S    
N18   H18   1.043608 S    
C11   C13   1.417187 A    
C12   C14   1.417194 A    
O1    Cu1   1.960908 S    
O3    C1    1.302452 A    
Cu1   N1    2.020945 S    
Cu2   N2    2.020943 S    
C10   H2    1.083552 S    
C15   C20   1.420916 A    
C5    C7    1.401732 A    
C31   N5    1.431431 S    
O6    Cu2   1.959639 S    
C33   N20   1.432347 S    
C23   C25   1.406774 A    
N12   H9    1.046067 S    
C18   N8    1.437151 S    
O8    Cu1   1.956771 S    
N17   H16   1.041690 S    
N1    C36   1.369065 A    
C21   C26   1.412849 A    
C2    C21   1.477139 S    
C27   N12   1.439107 S    
C18   C20   1.400614 A    
N9    O17   1.300993 A    
C34   N19   1.432296 S    
C24   C26   1.404570 A    
N16   H13   1.045611 S    
C7    C9    1.383703 A    
N4    H6    1.045220 S    
C8    C10   1.383688 A    
C13   C15   1.429025 A    
O2    Cu2   1.960909 S    
O5    Cu1   1.959636 S    
C16   C19   1.420914 A    
C6    C8    1.401721 A    
N7    O13   1.301204 A    
N8    O16   1.300969 A    
C28   N11   1.445706 S    
N15   H11   1.044506 S    
C19   N9    1.433064 S    
