data_mof_unit_64749.cif
_audit_creation_date              2012-12-11T16:11:12-0500
_audit_creation_method            fapswitch 2.2
_symmetry_space_group_name_H-M    P1
_symmetry_Int_Tables_number       1
_space_group_crystal_system       triclinic
_cell_length_a                    12.855593
_cell_length_b                    13.285492
_cell_length_c                    26.946645
_cell_angle_alpha                 97.252403
_cell_angle_beta                  90.155126
_cell_angle_gamma                 118.915635
_cell_volume                      3985.52546279

loop_
_atom_site_label
_atom_site_type_symbol
_atom_type_description
_atom_site_fract_x
_atom_site_fract_y
_atom_site_fract_z
_atom_type_partial_charge
Br1   Br    Br    0.877054 0.538953 0.339155 -0.509115
Br2   Br    Br    0.495968 0.541939 0.779677 -0.465580
Br3   Br    Br    0.480405 0.114983 0.169383 -0.496897
Br4   Br    Br    0.435055 0.908853 0.708708 -0.453314
Br5   Br    Br    0.402693 0.887765 0.831199 -0.392027
C1    C     C_R   0.627915 0.894713 0.424338 0.543964
C2    C     C_1   0.140026 0.824211 0.179487 0.000492
C3    C     C_1   0.160282 0.837200 0.231838 0.029063
C4    C     C_R   0.601901 0.223635 0.443213 0.543308
C5    C     C_1   0.174701 0.844180 0.276518 0.027248
C6    C     C_1   0.194668 0.851056 0.328520 -0.001542
C7    C     C_1   0.220695 0.859354 0.372316 0.031209
C8    C     C_1   0.689134 0.799045 0.136132 0.015478
C9    C     C_1   0.672597 0.808872 0.179950 -0.016649
C10   C     C_1   0.661496 0.818294 0.232035 0.021055
C11   C     C_1   0.655836 0.827500 0.276782 0.019693
C12   C     C_R   0.596728 0.237587 0.217686 0.181634
C13   C     C_1   0.650283 0.842545 0.329155 -0.019684
C14   C     C_1   0.643013 0.861798 0.373453 0.012516
C15   C     C_1   0.693594 0.384673 0.874838 0.027970
C16   C     C_R   0.268301 0.875574 0.422476 0.550771
C17   C     C_1   0.684341 0.358241 0.830064 0.004889
C18   C     C_1   0.675658 0.337459 0.777324 0.049536
C19   C     C_1   0.667228 0.322282 0.732228 0.044991
C20   C     C_1   0.653249 0.301343 0.679502 -0.007742
C21   C     C_1   0.634914 0.274727 0.634748 0.016322
C22   C     C_1   0.220816 0.865503 0.609712 0.031321
C23   C     C_R   0.587454 0.225458 0.268402 -0.109084
C24   C     C_R   0.284958 0.874365 0.736372 0.206670
C25   C     C_R   0.272073 0.866341 0.787718 0.216329
C26   C     C_R   0.066189 0.823997 0.775716 -0.150694
C27   C     C_R   0.078696 0.831709 0.724933 -0.145499
C28   C     C_R   0.630596 0.898353 0.563762 0.559099
C29   C     C_R   0.187090 0.855623 0.705169 0.017240
C30   C     C_R   0.161882 0.840363 0.806945 0.015248
C31   C     C_1   0.140927 0.821918 0.857842 0.007630
C32   C     C_1   0.198260 0.859291 0.652647 -0.001545
C33   C     C_1   0.111764 0.799812 0.898951 0.030279
C34   C     C_R   0.669061 0.314277 0.304896 0.016765
C35   C     C_1   0.655622 0.857953 0.606358 0.023011
C36   C     C_R   0.787245 0.886995 0.725355 -0.104803
C37   C     C_R   0.795843 0.870257 0.774847 -0.134821
C38   C     C_R   0.615360 0.682703 0.758457 0.195333
C39   C     C_R   0.606759 0.700230 0.708850 -0.048991
C40   C     C_R   0.602874 0.227047 0.582951 0.551171
C41   C     C_R   0.691799 0.802924 0.692576 0.015290
C42   C     C_R   0.709166 0.769375 0.791767 0.050156
C43   C     C_1   0.716815 0.758857 0.843704 0.008616
C44   C     C_1   0.673512 0.829449 0.644599 -0.020074
C45   C     C_R   0.689034 0.339440 0.203471 0.016379
C46   C     C_1   0.727619 0.754020 0.887451 0.026865
C47   C     C_R   0.065354 0.771895 0.084190 0.557163
C48   C     C_R   0.715829 0.438373 0.066521 0.550585
C49   C     C_R   0.720124 0.782383 0.086056 0.562946
C50   C     C_R   0.060359 0.765450 0.944589 0.544801
C51   C     C_R   0.709485 0.432228 0.926635 0.542683
C52   C     C_R   0.268075 0.879384 0.562008 0.556804
C53   C     C_R   0.747907 0.751362 0.939151 0.555755
C54   C     C_1   0.635048 0.271555 0.397747 0.026272
C55   C     C_R   0.762485 0.415423 0.290669 0.181419
C56   C     C_1   0.694789 0.360803 0.152541 0.011785
C57   C     C_R   0.771871 0.427519 0.239899 -0.108568
C58   C     C_1   0.654693 0.297323 0.356367 0.010781
C59   C     C_1   0.702063 0.389119 0.111605 0.031674
C60   C     C_1   0.113566 0.805686 0.135153 0.030289
Cr1   Cr    Cr6+3 0.416010 0.828400 0.490230 1.067964
Cr2   Cr    Cr6+3 0.676380 0.087280 0.505260 1.058819
Cr3   Cr    Cr6+3 0.407590 0.084280 0.504540 1.055087
Cr4   Cr    Cr6+3 0.914090 0.832340 0.018020 1.058616
Cr5   Cr    Cr6+3 0.923310 0.576840 0.003860 1.056582
Cr6   Cr    Cr6+3 0.654200 0.573160 0.004700 1.077425
H1    H     H_    0.868684 0.937241 0.800266 0.129204
H2    H     H_    0.532099 0.635665 0.683558 0.152285
H3    H     H_    0.842523 0.506709 0.228918 0.144895
H4    H     H_    0.515713 0.146968 0.279413 0.144390
H5    H     H_    0.980878 0.802822 0.790564 0.122018
H6    H     H_    0.003504 0.817453 0.701002 0.129096
H7    H     H_    0.852614 0.967226 0.713147 0.134986
O1    O     O_R   0.294740 0.800910 0.434410 -0.492258
O2    O     O_R   0.635480 0.460400 0.052590 -0.492961
O3    O     O_R   0.662650 0.681410 0.060750 -0.487415
O4    O     O_R   0.526010 0.837250 0.440870 -0.496124
O5    O     O_R   0.814500 0.852290 0.965490 -0.491584
O6    O     O_R   0.013160 0.821640 0.966980 -0.516407
O7    O     O_R   0.038850 0.666600 0.954370 -0.489894
O8    O     O_R   0.813260 0.476410 0.948680 -0.497161
O9    O     O_R   0.630060 0.454430 0.944230 -0.493475
O10   O     O_R   0.657630 0.675880 0.960300 -0.467014
O11   O     O_3   0.830530 0.660780 0.008860 -0.298559
O12   O     O_R   0.664100 0.185180 0.560770 -0.489971
O13   O     O_R   0.704290 0.994500 0.446090 -0.501246
O14   O     O_R   0.662870 0.181760 0.460430 -0.491265
O15   O     O_R   0.498970 0.199080 0.457120 -0.505057
O16   O     O_R   0.309350 0.975930 0.448180 -0.500052
O17   O     O_R   0.296060 0.804610 0.542650 -0.491145
O18   O     O_R   0.527240 0.840670 0.541200 -0.485896
O19   O     O_R   0.705610 0.998200 0.554330 -0.502667
O20   O     O_R   0.500290 0.202770 0.565360 -0.496485
O21   O     O_R   0.310570 0.979360 0.548520 -0.491807
O22   O     O_3   0.499990 0.999990 0.500010 -0.263996
O23   O     O_R   0.819910 0.858260 0.073860 -0.492180
O24   O     O_R   0.018180 0.827180 0.067430 -0.488101
O25   O     O_R   0.044260 0.672570 0.062730 -0.497796
O26   O     O_R   0.818270 0.481940 0.049130 -0.494719

loop_
_geom_bond_atom_site_label_1
_geom_bond_atom_site_label_2
_ccdc_geom_bond_type
C47   O25   A    
C1    O4    A    
C29   C32   S    
C36   C37   A    
C49   O23   A    
C30   C31   S    
C15   C51   S    
C2    C3    S    
Cr4   O24   S    
C1    C14   S    
C41   C44   S    
C47   O24   A    
C25   C30   A    
Cr4   O5    S    
Br5   C25   S    
C40   O20   A    
C48   C59   S    
Cr5   O26   S    
Cr1   O4    S    
C16   O16   A    
C48   O26   A    
C10   C11   T    
C52   O21   A    
C55   C57   A    
C13   C14   T    
Cr1   O22   S    
C21   C40   S    
C27   H6    S    
C43   C46   T    
C33   C50   S    
C26   C27   A    
C36   C41   A    
Br4   C24   S    
C8    C9    T    
Cr4   O11   S    
C4    O14   A    
C37   H1    S    
Cr6   O2    S    
C39   C41   A    
C28   C35   S    
C48   O2    A    
C19   C20   S    
C22   C52   S    
Br1   C55   S    
C36   H7    S    
Cr5   O25   S    
C51   O9    A    
C23   C34   A    
C20   C21   T    
C24   C29   A    
Cr2   O12   S    
Cr3   O16   S    
C4    C54   S    
C27   C29   A    
C50   O7    A    
C56   C59   T    
C38   C39   A    
Cr3   O22   S    
C24   C25   A    
Cr1   O1    S    
C2    C60   T    
C51   O8    A    
C42   C43   S    
Cr6   O11   S    
Br2   C38   S    
C18   C19   T    
C16   O1    A    
Cr2   O13   S    
C46   C53   S    
C40   O12   A    
Cr2   O22   S    
Cr6   O9    S    
C11   C13   S    
C15   C17   T    
C45   C57   A    
C26   C30   A    
Cr5   O11   S    
C1    O13   A    
Cr5   O8    S    
C28   O18   A    
C4    O15   A    
Cr1   O18   S    
C8    C49   S    
C9    C10   S    
C12   C23   A    
C53   O10   A    
C12   C45   A    
C6    C7    T    
Cr4   O23   S    
C34   C58   S    
C54   C58   T    
Cr3   O15   S    
C31   C33   T    
Cr3   O21   S    
Cr4   O6    S    
C53   O5    A    
C23   H4    S    
C26   H5    S    
C22   C32   T    
C34   C55   A    
C7    C16   S    
Cr2   O14   S    
Br3   C12   S    
C28   O19   A    
C37   C42   A    
C39   H2    S    
Cr3   O20   S    
C5    C6    S    
Cr2   O19   S    
Cr6   O10   S    
C3    C5    T    
C52   O17   A    
C45   C56   S    
C17   C18   S    
C57   H3    S    
C50   O6    A    
Cr5   O7    S    
C38   C42   A    
C49   O3    A    
C47   C60   S    
C35   C44   T    
Cr1   O17   S    
Cr6   O3    S    
