data_mof_unit_33980.cif
_audit_creation_date              2012-12-11T16:34:02-0500
_audit_creation_method            fapswitch 2.2
_symmetry_space_group_name_H-M    P1
_symmetry_Int_Tables_number       1
_space_group_crystal_system       triclinic
_cell_length_a                    8.239993
_cell_length_b                    17.460581
_cell_length_c                    27.037856
_cell_angle_alpha                 95.930164
_cell_angle_beta                  92.285744
_cell_angle_gamma                 83.924856
_cell_volume                      3845.87747892

loop_
_atom_site_label
_atom_site_type_symbol
_atom_type_description
_atom_site_fract_x
_atom_site_fract_y
_atom_site_fract_z
_atom_type_partial_charge
Ba1   Ba    Ba6+2 0.856110 0.463800 0.523550 1.643870
Ba2   Ba    Ba6+2 0.333710 0.536130 0.476450 1.652911
C1    C     C_3   0.644864 0.189721 0.655824 -0.363997
C2    C     C_R   0.856743 0.552179 0.173329 0.612306
C3    C     C_2   0.726355 0.508957 0.270056 -0.074150
C4    C     C_3   0.149390 0.290172 0.659524 0.292016
C5    C     C_3   0.694918 0.508562 0.324952 -0.042786
C6    C     C_1   0.986635 0.480725 0.339209 -0.014020
C7    C     C_2   0.018323 0.474435 0.290217 -0.103752
C8    C     C_2   0.879468 0.491298 0.252618 0.171955
C9    C     C_R   0.990596 0.489406 0.098320 -0.068567
C10   C     C_R   0.038790 0.424638 0.124304 -0.036173
C11   C     C_R   0.146893 0.364951 0.101938 -0.083756
C12   C     C_3   0.649421 0.267961 0.636259 0.345074
C13   C     C_R   0.895313 0.552813 0.122753 -0.023359
C14   C     C_2   0.849593 0.518533 0.355559 -0.274036
C15   C     C_2   0.348002 0.478631 0.641722 -0.279344
C16   C     C_3   0.107566 0.271558 0.710896 -0.334019
C17   C     C_R   0.166277 0.425432 0.972140 0.040204
C18   C     C_R   0.036036 0.559056 0.972165 0.022986
C19   C     C_R   0.122518 0.492571 0.947013 0.052755
C20   C     C_R   0.227952 0.357188 0.943210 -0.046358
C21   C     C_R   0.270168 0.357997 0.893848 -0.048337
C22   C     C_R   0.242782 0.425976 0.869953 -0.034617
C23   C     C_3   0.496480 0.655083 0.628540 0.280035
C24   C     C_R   0.163811 0.492762 0.895970 -0.079666
C25   C     C_R   0.125585 0.559606 0.870934 -0.034778
C26   C     C_R   0.168998 0.559226 0.820654 0.594314
C27   C     C_R   0.288359 0.427821 0.820129 0.582419
C28   C     C_3   0.198362 0.301792 0.419877 0.312122
C29   C     C_2   0.450985 0.477286 0.729615 -0.074177
C30   C     C_3   0.495427 0.484455 0.676341 -0.064673
C31   C     C_1   0.207062 0.513680 0.657028 0.040233
C32   C     C_2   0.166079 0.515259 0.704377 -0.103006
C33   C     C_2   0.293590 0.494346 0.743709 0.204546
C34   C     C_3   0.489763 0.681371 0.684423 -0.107630
C35   C     C_R   0.138196 0.427228 0.024343 -0.017727
C36   C     C_R   0.037641 0.490851 0.047971 0.052679
C37   C     C_R   0.986212 0.556704 0.022084 0.028973
C38   C     C_R   0.207454 0.368646 0.054480 -0.050610
C39   C     C_R   0.842952 0.616430 0.096457 -0.051729
C40   C     C_3   0.197205 0.213810 0.409842 -0.117671
C41   C     C_R   0.000957 0.625462 0.946012 -0.095871
C42   C     C_R   0.044946 0.625640 0.896730 -0.054894
C43   C     C_R   0.886017 0.618203 0.047304 -0.091392
C44   C     C_R   0.413334 0.280068 0.522588 -0.291487
C45   C     C_3   0.980768 0.706120 0.344820 0.258623
C46   C     C_R   0.555245 0.255736 0.496776 0.075541
C47   C     C_R   0.613335 0.176662 0.491513 -0.111520
C48   C     C_R   0.527806 0.122144 0.511783 -0.003361
C49   C     C_R   0.380855 0.147445 0.536199 -0.134152
C50   C     C_R   0.322907 0.226464 0.540816 0.000293
C51   C     C_R   0.593235 0.836530 0.512662 -0.099255
C52   C     C_3   0.992851 0.699476 0.583064 0.300154
C53   C     C_R   0.643796 0.756828 0.506800 0.044064
C54   C     C_R   0.882822 0.780381 0.464553 0.017520
C55   C     C_R   0.833031 0.860473 0.469295 -0.125623
C56   C     C_3   0.926373 0.738011 0.295899 -0.342850
C57   C     C_R   0.686276 0.888949 0.493176 0.008148
C58   C     C_1   0.633146 0.971511 0.499462 0.007064
C59   C     C_1   0.585949 0.040142 0.505099 0.007480
C60   C     C_R   0.784155 0.729350 0.481254 -0.285723
C61   C     C_3   0.975306 0.786467 0.597358 -0.393554
C62   C     C_3   0.696829 0.352263 0.371951 0.348596
C63   C     C_3   0.733520 0.315192 0.319248 -0.099335
C64   C     C_2   0.186115 0.453380 0.271793 0.967908
C65   C     C_2   0.362586 0.319843 0.042514 0.852483
C66   C     C_3   0.446709 0.730808 0.337500 0.442414
C67   C     C_3   0.405102 0.771951 0.290334 -0.093337
C68   C     C_R   0.987947 0.423267 0.173707 0.632072
H1    H     H_    0.752314 0.263337 0.610300 0.096679
H2    H     H_    0.599689 0.400970 0.370298 0.006684
H3    H     H_    0.761962 0.173259 0.675814 0.134407
H4    H     H_    0.776395 0.358418 0.296997 0.063013
H5    H     H_    0.620179 0.295217 0.300770 0.120593
H6    H     H_    0.531943 0.282442 0.616225 -0.044224
H7    H     H_    0.626731 0.145016 0.624273 0.075021
H8    H     H_    0.372609 0.643520 0.614309 0.024692
H9    H     H_    0.580944 0.601142 0.623002 0.016307
H10   H     H_    0.444076 0.635956 0.704293 0.069462
H11   H     H_    0.614880 0.690020 0.699359 0.119747
H12   H     H_    0.241655 0.185880 0.443437 0.060845
H13   H     H_    0.542317 0.192262 0.681725 0.128950
H14   H     H_    0.148333 0.316154 0.739404 0.127670
H15   H     H_    0.061530 0.651369 0.336785 0.060245
H16   H     H_    0.869459 0.693509 0.363276 0.021562
H17   H     H_    0.898836 0.689645 0.268038 0.155642
H18   H     H_    0.814923 0.779329 0.301091 0.116504
H19   H     H_    0.023696 0.768444 0.281691 0.130022
H20   H     H_    0.333790 0.708621 0.348236 0.109615
H21   H     H_    0.511300 0.800988 0.280387 0.113900
H22   H     H_    0.301445 0.817415 0.297658 0.105378
H23   H     H_    0.069833 0.199638 0.401720 0.129892
H24   H     H_    0.096885 0.350346 0.655147 0.080555
H25   H     H_    0.196902 0.318557 0.123550 0.156681
H26   H     H_    0.547476 0.464731 0.757051 0.106459
H27   H     H_    0.322169 0.304386 0.874120 0.122662
H28   H     H_    0.240937 0.301506 0.957785 0.077892
H29   H     H_    0.623482 0.518657 0.244359 0.100651
H30   H     H_    0.767541 0.665697 0.113897 0.124799
H31   H     H_    0.941286 0.679183 0.962780 0.074863
H32   H     H_    0.284228 0.285929 0.657005 -0.016271
H33   H     H_    0.014625 0.678242 0.878742 0.126863
H34   H     H_    0.871933 0.680324 0.572606 0.013539
H35   H     H_    0.040855 0.532083 0.714980 0.125546
H36   H     H_    0.836766 0.668780 0.029932 0.073408
H37   H     H_    0.848361 0.556578 0.390049 0.066218
H38   H     H_    0.355890 0.443955 0.606014 0.069099
H39   H     H_    0.484614 0.857584 0.533254 0.073111
H40   H     H_    0.309793 0.105974 0.550146 0.081984
H41   H     H_    0.908469 0.899989 0.455150 0.084581
H42   H     H_    0.721914 0.157500 0.470480 0.087950
H43   H     H_    0.366887 0.340617 0.525368 0.068045
H44   H     H_    0.973572 0.271251 0.713402 0.150016
H45   H     H_    0.075144 0.686129 0.551196 0.061772
H46   H     H_    0.822485 0.667834 0.477234 0.059765
H47   H     H_    0.168771 0.214011 0.718390 0.119720
H48   H     H_    0.324189 0.316401 0.427913 -0.008944
H49   H     H_    0.122346 0.321561 0.452644 0.044325
H50   H     H_    0.417899 0.197806 0.375109 0.198590
H51   H     H_    0.252648 0.204580 0.335745 0.239680
H52   H     H_    0.809058 0.203762 0.333174 0.196439
H53   H     H_    0.894318 0.232582 0.283978 0.208661
H54   H     H_    0.427736 0.797354 0.677725 0.209518
H55   H     H_    0.266590 0.745344 0.679480 0.209748
H56   H     H_    0.891600 0.801163 0.628760 0.138716
H57   H     H_    0.511992 0.758437 0.410151 0.190886
H58   H     H_    0.609408 0.803575 0.370268 0.161210
H59   H     H_    0.271949 0.684834 0.258901 0.199996
H60   H     H_    0.463304 0.680046 0.238003 0.247322
H61   H     H_    0.356307 0.473453 0.224430 0.297661
H62   H     H_    0.586960 0.312594 0.013935 0.319169
H63   H     H_    0.925648 0.817732 0.565750 0.064014
H64   H     H_    0.096151 0.806082 0.608542 0.114902
H65   H     H_    0.809646 0.373135 0.389582 0.011422
N1    N     N_R   0.907388 0.488602 0.199039 -0.412812
N2    N     N_R   0.249685 0.493696 0.795615 -0.425189
N3    N     N_3   0.299643 0.181460 0.368260 -0.482950
N4    N     N_3   0.860239 0.250242 0.320561 -0.466280
N5    N     N_3   0.382859 0.753133 0.694798 -0.465319
N6    N     N_3   0.495609 0.786767 0.377911 -0.493437
N7    N     N_3   0.360463 0.717986 0.248140 -0.480089
O1    O     O_2   0.910880 0.540430 0.617910 -0.462055
O2    O     O_2   0.225338 0.773206 0.460030 -0.477306
O3    O     O_3   0.068087 0.760336 0.374043 -0.608417
O4    O     O_3   0.142880 0.540370 0.557740 -0.487449
O5    O     O_3   0.562610 0.408580 0.475460 -0.485622
O6    O     O_2   0.365880 0.685750 0.523280 -0.464307
O7    O     O_3   0.554262 0.713307 0.604268 -0.652337
O8    O     O_2   0.360500 0.570047 0.324450 -0.512053
O9    O     O_3   0.576116 0.672099 0.327713 -0.635058
O10   O     O_2   0.016810 0.364007 0.194288 -0.587703
O11   O     O_2   0.362350 0.370605 0.798592 -0.601070
O12   O     O_3   0.639076 0.297052 0.398329 -0.653104
O13   O     O_2   0.779140 0.608751 0.194517 -0.616169
O14   O     O_2   0.136919 0.617777 0.799442 -0.588600
O15   O     O_3   0.675650 0.402220 0.588450 -0.485884
O16   O     O_2   0.834585 0.441828 0.673042 -0.496748
O17   O     O_3   0.056434 0.663503 0.624343 -0.637305
O18   O     O_3   0.670900 0.324177 0.676379 -0.591986
O19   O     O_2   0.823810 0.314230 0.476690 -0.465010
O20   O     O_3   0.086630 0.363340 0.564170 -0.490113
O21   O     O_2   0.987229 0.226280 0.530714 -0.487218
O22   O     O_2   0.271642 0.397970 0.286226 -0.599481
O23   O     O_3   0.082967 0.237284 0.623697 -0.598758
O24   O     O_R   0.243323 0.495080 0.235766 -0.762874
O25   O     O_2   0.384783 0.253653 0.054308 -0.594422
O26   O     O_R   0.486213 0.350820 0.019453 -0.752038
O27   O     O_2   0.278810 0.459550 0.382060 -0.450887
O28   O     O_3   0.046820 0.459570 0.442260 -0.497649
O29   O     O_3   0.514050 0.597710 0.411540 -0.467212
O30   O     O_3   0.136626 0.335986 0.377621 -0.594515
O31   O     O_3   0.627090 0.591350 0.524530 -0.470531
O32   O     O_3   0.103080 0.636600 0.435820 -0.490155
P1    P     P_3+3 0.078810 0.562990 0.610370 0.994598
P2    P     P_3+3 0.645380 0.325580 0.462150 0.983914
P3    P     P_3+3 0.120362 0.262483 0.564583 0.934510
P4    P     P_3+3 0.110900 0.436950 0.389630 1.033795
P5    P     P_3+3 0.073381 0.737927 0.435578 0.953125
P6    P     P_3+3 0.669258 0.414634 0.653509 0.968789
P7    P     P_3+3 0.549318 0.687955 0.539989 0.949550
P8    P     P_3+3 0.531581 0.583914 0.347119 0.955532

loop_
_geom_bond_atom_site_label_1
_geom_bond_atom_site_label_2
_ccdc_geom_bond_type
C65   O26   S    
C68   N1    Am   
C19   C24   A    
C45   O3    S    
Ba1   P2    S    
C20   H28   S    
H53   N4    S    
C40   N3    S    
C40   H23   S    
O23   P3    S    
C12   H1    S    
O29   P8    S    
C40   H12   S    
O1    P1    D    
C56   H17   S    
C16   H44   S    
C51   C57   A    
O8    P8    D    
Ba1   O31   S    
C24   C25   A    
C11   H25   S    
C45   H15   S    
C52   H34   S    
C17   C19   A    
C8    N1    S    
H52   N4    S    
C32   C33   S    
C35   C38   A    
Ba2   O31   S    
C36   C37   A    
C55   C57   A    
C52   C61   S    
Ba2   O6    S    
C29   H26   S    
C53   C60   A    
C62   O12   S    
Ba1   O28   S    
C54   C55   A    
C23   O7    S    
Ba1   Ba2   S    
H57   N6    S    
O16   P6    D    
C50   P3    S    
O18   P6    S    
O20   P3    S    
C17   C35   A    
C14   H37   S    
C52   O17   S    
C7    C64   S    
C1    H3    S    
C9    C13   A    
C25   C42   A    
C3    H29   S    
H61   O24   S    
C66   C67   S    
C4    H24   S    
C38   C65   S    
O21   P3    D    
C66   H20   S    
C21   C22   A    
C67   H22   S    
C7    C8    S    
C5    P8    S    
Ba2   O29   S    
C37   C43   A    
C4    H32   S    
C4    O23   S    
O31   P7    S    
C57   C58   S    
C6    C14   D    
O17   P1    S    
C52   H45   S    
O7    P7    S    
Ba1   O4    S    
C15   C31   D    
C31   P1    S    
C42   H33   S    
C31   C32   D    
C51   C53   A    
H55   N5    S    
C53   P7    S    
C4    C16   S    
C44   C46   A    
C64   O24   S    
C23   H8    S    
C61   H64   S    
C17   C20   A    
C68   O10   D    
C13   C39   A    
C34   H10   S    
C15   H38   S    
C3    C5    S    
O19   P2    D    
O5    P2    S    
C6    C7    D    
H59   N7    S    
C28   H48   S    
C44   C50   A    
C67   N7    S    
C63   H4    S    
C49   C50   A    
C12   O18   S    
C58   C59   T    
O15   P6    S    
C12   H6    S    
H51   N3    S    
C9    C36   A    
C41   C42   A    
C41   H31   S    
C60   H46   S    
C35   C36   A    
Ba1   O1    S    
C16   H14   S    
C29   C30   S    
O2    P5    D    
C34   H11   S    
O4    P1    S    
O3    P5    S    
Ba2   O27   S    
C48   C49   A    
O6    P7    D    
C39   H30   S    
C64   O22   D    
C66   N6    S    
C10   C11   A    
C34   N5    S    
C16   H47   S    
C28   O30   S    
C1    C12   S    
Ba2   O28   S    
C47   H42   S    
C5    C14   S    
C21   H27   S    
O28   P4    S    
Ba1   O20   S    
C49   H40   S    
C1    H13   S    
C15   C30   S    
C54   C60   A    
Ba1   O5    S    
H50   N3    S    
C1    H7    S    
C61   H63   S    
O27   P4    D    
C18   C41   A    
C43   H36   S    
O9    P8    S    
C27   O11   D    
H58   N6    S    
O30   P4    S    
C18   C37   A    
C10   C68   A    
Ba1   P1    S    
C44   H43   S    
C23   H9    S    
C32   H35   S    
H54   N5    S    
C28   C40   S    
C26   N2    Am   
H62   O26   S    
C22   C24   A    
C56   H18   S    
C9    C10   A    
Ba2   O4    S    
C27   N2    Am   
C63   H5    S    
O12   P2    S    
C62   C63   S    
C2    C13   A    
Ba1   O15   S    
C45   H16   S    
Ba2   O5    S    
C3    C8    D    
C66   O9    S    
C33   N2    S    
C45   C56   S    
C65   O25   D    
C55   H41   S    
C46   C47   A    
C29   C33   D    
C62   H2    S    
H60   N7    S    
C56   H19   S    
C62   H65   S    
C61   H56   S    
C11   C38   A    
C23   C34   S    
Ba1   O19   S    
C63   N4    S    
C6    P4    S    
C2    N1    Am   
C22   C27   A    
C2    O13   D    
C18   C19   A    
C47   C48   A    
C28   H49   S    
C25   C26   A    
C26   O14   D    
C48   C59   S    
C39   C43   A    
C20   C21   A    
C30   P6    S    
C51   H39   S    
Ba2   P4    S    
C67   H21   S    
O32   P5    S    
Ba2   O32   S    
C46   P2    S    
C54   P5    S    
