data_mof_unit_45610.cif
_audit_creation_date              2012-10-26T19:18:49-0400
_audit_creation_method            fapswitch 2.2
_symmetry_space_group_name_H-M    P1
_symmetry_Int_Tables_number       1
_space_group_crystal_system       triclinic
_cell_length_a                    9.888236
_cell_length_b                    10.925895
_cell_length_c                    15.795795
_cell_angle_alpha                 88.145921
_cell_angle_beta                  71.814493
_cell_angle_gamma                 89.187196
_cell_volume                      1620.43947487

loop_
_atom_site_label
_atom_site_type_symbol
_atom_type_description
_atom_site_fract_x
_atom_site_fract_y
_atom_site_fract_z
_atom_type_partial_charge
C1    C     C_R   0.998430 0.265569 0.503254 0.546848
C2    C     C_R   0.233282 0.401417 0.050499 0.035101
C3    C     C_R   0.331615 0.423876 0.095906 0.026103
C4    C     C_R   0.914897 0.496651 0.671299 0.546386
C5    C     C_R   0.088977 0.403527 0.096087 -0.117435
C6    C     C_R   0.036080 0.445101 0.182898 0.011150
C7    C     C_R   0.279872 0.456556 0.186381 -0.149732
C8    C     C_2   0.881501 0.929848 0.528166 -0.171345
C9    C     C_2   0.001811 0.865928 0.496246 -0.132952
C10   C     C_2   0.876649 0.063847 0.522326 -0.040300
C11   C     C_2   0.994501 0.132256 0.512315 -0.128978
C12   C     C_R   0.669516 0.433414 0.905362 0.032487
C13   C     C_2   0.387682 0.481387 0.570997 -0.028752
C14   C     C_2   0.542623 0.460552 0.566308 0.027402
C15   C     C_R   0.999782 0.733850 0.499533 0.552842
C16   C     C_R   0.084647 0.494481 0.328170 0.532568
C17   C     C_R   0.864464 0.479220 0.768597 0.001538
C18   C     C_R   0.132666 0.469182 0.230883 0.002415
C19   C     C_R   0.914054 0.447727 0.907681 -0.134928
C20   C     C_R   0.961397 0.473345 0.816698 -0.133134
C21   C     C_R   0.718797 0.461199 0.813204 -0.131345
C22   C     C_1   0.737864 0.115878 0.529825 0.233888
C23   C     C_R   0.769782 0.426030 0.952195 0.051722
C24   C     C_3   0.625824 0.582813 0.431206 -0.104045
C25   C     C_3   0.715606 0.698285 0.399710 -0.356734
C26   C     C_3   0.877134 0.465684 0.217590 -0.261483
C27   C     C_3   0.798946 0.348299 0.259971 -0.408540
C28   C     C_R   0.523386 0.415566 0.953191 0.035891
C29   C     C_R   0.478431 0.415729 0.048129 0.038110
C30   C     C_R   0.581182 0.399932 0.091795 -0.140805
C31   C     C_R   0.724212 0.396935 0.043078 -0.141290
C32   C     C_R   0.421728 0.393114 0.910132 -0.135276
C33   C     C_R   0.279444 0.379740 0.959133 -0.134637
Cu1   Cu    Cu3+1 0.138640 0.500020 0.499980 0.936242
Cu2   Cu    Cu3+1 0.861360 0.499980 0.500020 0.935948
H1    H     H_    0.798579 0.370450 0.076643 0.105081
H2    H     H_    0.204865 0.357950 0.924304 0.102213
H3    H     H_    0.990364 0.449186 0.943074 0.097764
H4    H     H_    0.073989 0.488419 0.784188 0.122497
H5    H     H_    0.645031 0.471670 0.775529 0.117000
H6    H     H_    0.552370 0.381765 0.162837 0.103744
H7    H     H_    0.450564 0.379417 0.839309 0.099461
H8    H     H_    0.696956 0.763601 0.454641 0.158005
H9    H     H_    0.829391 0.682495 0.366044 0.187524
H10   H     H_    0.677830 0.746549 0.348146 0.076939
H11   H     H_    0.628867 0.530075 0.372068 0.102996
H12   H     H_    0.016805 0.374782 0.062668 0.092598
H13   H     H_    0.523911 0.632095 0.456139 0.140373
H14   H     H_    0.828596 0.272391 0.212450 0.140477
H15   H     H_    0.825749 0.320769 0.321084 0.201586
H16   H     H_    0.682279 0.362840 0.277896 0.117744
H17   H     H_    0.848335 0.543444 0.261832 0.160964
H18   H     H_    0.838337 0.499891 0.162748 0.120782
H19   H     H_    0.781135 0.881879 0.556770 0.144861
H20   H     H_    0.104220 0.909151 0.466136 0.103784
H21   H     H_    0.093343 0.089691 0.513824 0.100589
H22   H     H_    0.309126 0.482950 0.636521 0.135000
H23   H     H_    0.412383 0.462712 0.443227 0.216653
H24   H     H_    0.561642 0.416733 0.624161 0.123153
H25   H     H_    0.353614 0.477588 0.221857 0.122325
N1    N     N_2   0.346430 0.498660 0.500980 -0.367916
N2    N     N_2   0.652550 0.498630 0.501000 -0.213694
N3    N     N_1   0.626741 0.156759 0.535798 -0.313079
O1    O     O_R   0.117050 0.321960 0.499980 -0.489925
O2    O     O_R   0.882890 0.321920 0.500020 -0.477093
O3    O     O_R   0.052910 0.500040 0.629810 -0.502881
O4    O     O_R   0.818750 0.499990 0.629840 -0.508839
O5    O     O_R   0.117110 0.678080 0.499980 -0.480397
O6    O     O_R   0.882950 0.678040 0.500020 -0.510703
O7    O     O_R   0.181250 0.500010 0.370160 -0.508062
O8    O     O_R   0.947090 0.499960 0.370190 -0.516457

loop_
_geom_bond_atom_site_label_1
_geom_bond_atom_site_label_2
_ccdc_geom_bond_type
C4    O4    A    
C1    O2    A    
C26   H18   S    
C30   H6    S    
C29   C30   A    
C9    H20   S    
C19   H3    S    
C26   H17   S    
Cu1   O7    S    
C19   C23   A    
C19   C20   A    
C1    C11   S    
C27   H15   S    
Cu2   O4    S    
C14   N2    D    
C7    C18   A    
C24   H11   S    
C32   C33   A    
Cu1   O3    S    
H23   N1    S    
Cu1   O1    S    
C2    C3    A    
C9    C15   S    
Cu2   O8    S    
C16   O8    A    
C13   C14   S    
C10   C22   S    
C4    O3    A    
C14   H24   S    
C5    H12   S    
C12   C23   A    
C25   H8    S    
C26   C27   S    
C6    C26   S    
C21   H5    S    
C12   C28   A    
C5    C6    A    
C15   O5    A    
C25   H9    S    
C8    C10   S    
C28   C29   A    
C27   H16   S    
Cu2   N2    S    
C3    C7    A    
C30   C31   A    
C6    C18   A    
C15   O6    A    
C33   H2    S    
C2    C5    A    
C13   H22   S    
C10   C11   D    
C4    C17   S    
Cu1   O5    S    
C24   H13   S    
C1    O1    A    
C25   H10   S    
C7    H25   S    
C28   C32   A    
C17   C20   A    
C13   N1    D    
C24   C25   S    
Cu2   O6    S    
C16   C18   S    
Cu1   Cu2   S    
C8    H19   S    
C3    C29   A    
C20   H4    S    
C32   H7    S    
C31   H1    S    
C8    C9    D    
C24   N2    S    
C16   O7    A    
C22   N3    T    
C12   C21   A    
Cu1   N1    S    
C17   C21   A    
C11   H21   S    
C27   H14   S    
C2    C33   A    
Cu2   O2    S    
C23   C31   A    
