data_mof_unit_29137.cif
_audit_creation_date              2012-12-10T18:47:44-0500
_audit_creation_method            fapswitch 2.2
_symmetry_space_group_name_H-M    P1
_symmetry_Int_Tables_number       1
_space_group_crystal_system       triclinic
_cell_length_a                    9.849019
_cell_length_b                    10.686266
_cell_length_c                    15.517353
_cell_angle_alpha                 90.209463
_cell_angle_beta                  67.810383
_cell_angle_gamma                 90.207585
_cell_volume                      1512.21943653

loop_
_atom_site_label
_atom_site_type_symbol
_atom_type_description
_atom_site_fract_x
_atom_site_fract_y
_atom_site_fract_z
_atom_type_partial_charge
C1    C     C_R   0.501139 0.739962 0.498864 0.949086
C2    C     C_R   0.499086 0.260124 0.501013 0.929386
C3    C     C_R   0.356476 0.368832 0.090068 -0.228704
C4    C     C_R   0.684528 0.481991 0.892110 -0.230123
C5    C     C_R   0.254949 0.353844 0.048299 -0.241815
C6    C     C_R   0.786394 0.497258 0.933330 -0.248800
C7    C     C_R   0.634252 0.937373 0.454197 0.542100
C8    C     C_R   0.368207 0.062601 0.551171 0.546781
C9    C     C_R   0.630140 0.066345 0.454295 -0.363380
C10   C     C_R   0.370405 0.934005 0.547165 -0.368620
C11   C     C_R   0.498332 0.127816 0.502397 -0.212080
C12   C     C_R   0.502288 0.872430 0.499150 -0.213027
C13   C     C_R   0.962420 0.422646 0.441739 -0.075196
C14   C     C_R   0.037574 0.577372 0.558247 -0.086990
C15   C     C_R   0.106212 0.422612 0.441801 -0.037640
C16   C     C_R   0.893772 0.577360 0.558215 -0.075978
C17   C     C_R   0.408535 0.498942 0.676024 0.850105
C18   C     C_R   0.591555 0.497986 0.324023 0.876242
C19   C     C_R   0.353682 0.479795 0.776332 -0.050966
C20   C     C_R   0.649322 0.488341 0.222851 -0.056443
C21   C     C_R   0.183499 0.383931 0.916409 -0.232075
C22   C     C_R   0.841773 0.517066 0.071857 -0.219552
C23   C     C_R   0.217312 0.424339 0.825212 -0.232184
C24   C     C_R   0.795298 0.517312 0.168476 -0.188743
C25   C     C_R   0.452657 0.498395 0.819669 -0.252439
C26   C     C_R   0.553106 0.451972 0.180630 -0.262364
C27   C     C_R   0.427167 0.448327 0.907180 0.096163
C28   C     C_R   0.597113 0.450015 0.083986 0.097142
C29   C     C_R   0.287693 0.395377 0.957741 0.179863
C30   C     C_R   0.742823 0.486933 0.029335 0.176846
C31   C     C_R   0.536301 0.451980 0.945874 0.069023
C32   C     C_R   0.496265 0.422698 0.041066 0.070099
H1    H     H_    0.149478 0.311578 0.087641 0.150342
H2    H     H_    0.898178 0.522454 0.890289 0.149740
H3    H     H_    0.871470 0.544544 0.200492 0.166684
H4    H     H_    0.139736 0.408393 0.792081 0.156789
H5    H     H_    0.935424 0.360809 0.395147 0.118463
H6    H     H_    0.064561 0.639231 0.604827 0.121677
N1    N     N_R   0.142780 0.500030 0.500020 -0.074090
N2    N     N_R   0.857220 0.499970 0.499980 -0.072586
O1    O     O_R   0.385370 0.683250 0.500010 -0.628112
O2    O     O_R   0.614630 0.316750 0.499990 -0.630592
O3    O     O_R   0.614700 0.683220 0.500000 -0.584753
O4    O     O_R   0.385300 0.316780 0.500000 -0.571207
O5    O     O_R   0.319830 0.500020 0.632250 -0.616791
O6    O     O_R   0.680170 0.499980 0.367750 -0.612943
O7    O     O_R   0.549160 0.499990 0.632240 -0.621747
O8    O     O_R   0.450840 0.500010 0.367760 -0.625124
Zn1   Zn    Zn3+2 0.346870 0.500020 0.500000 0.962522
Zn2   Zn    Zn3+2 0.653130 0.499980 0.500000 0.957092
H7    H     H_    0.441074 0.432378 0.224821 0.153395
H8    H     H_    0.551340 0.550716 0.782622 0.146491
H9    H     H_    0.077905 0.340615 0.953603 0.147856
H10   H     H_    0.953215 0.545200 0.030622 0.153494
H11   H     H_    0.324183 0.333373 0.159978 0.142065
H12   H     H_    0.725766 0.491467 0.817393 0.149912
O9    O     O_3   0.761783 0.874394 0.401846 -0.595753
C33   C     C_3   0.866407 0.891035 0.442892 -0.255538
H13   H     H_    0.959038 0.826135 0.408744 0.191927
H14   H     H_    0.820403 0.867978 0.518489 0.148306
H15   H     H_    0.911395 0.987778 0.431963 0.153705
O10   O     O_3   0.237845 0.123924 0.599128 -0.590169
C34   C     C_3   0.222147 0.135968 0.692919 -0.302322
H16   H     H_    0.118367 0.186207 0.731393 0.192492
H17   H     H_    0.313336 0.191977 0.699495 0.154869
H18   H     H_    0.215024 0.042814 0.726250 0.153636
H19   H     H_    0.728803 0.118405 0.415134 0.179726
H20   H     H_    0.269805 0.882507 0.583070 0.183376
H21   H     H_    0.188072 0.360679 0.395241 0.122116
H22   H     H_    0.811901 0.639265 0.604783 0.119336

loop_
_geom_bond_atom_site_label_1
_geom_bond_atom_site_label_2
_ccdc_geom_bond_type
O4    Zn1   S    
C19   C23   A    
C34   H17   S    
O3    Zn2   S    
C21   C29   A    
O10   C34   S    
C14   C16   A    
C10   H20   S    
C14   H6    S    
O6    Zn2   S    
C13   H5    S    
C31   C32   A    
O5    Zn1   S    
C2    O2    A    
C33   H15   S    
C28   C30   A    
C33   H13   S    
C25   H8    S    
C22   H10   S    
C26   H7    S    
C4    H12   S    
C21   H9    S    
C9    C11   A    
C15   N1    A    
O9    C33   S    
C3    C32   A    
C1    C12   S    
C20   C26   A    
C9    H19   S    
C16   N2    A    
C8    C11   A    
C15   H21   S    
C2    C11   S    
C10   C12   A    
C1    O1    A    
C26   C28   A    
N1    Zn1   S    
O2    Zn2   S    
O7    Zn2   S    
C5    C29   A    
C5    H1    S    
C13   C15   A    
C21   C23   A    
C7    C12   A    
C19   C25   A    
C22   C24   A    
C34   H18   S    
C4    C31   A    
C27   C29   A    
C7    O9    S    
C33   H14   S    
C34   H16   S    
C24   H3    S    
C17   C19   S    
C17   O7    A    
N2    Zn2   S    
C28   C32   A    
C16   H22   S    
C2    O4    A    
C27   C31   A    
C18   C20   S    
C4    C6    A    
C23   H4    S    
O1    Zn1   S    
C7    C9    A    
C20   C24   A    
O8    Zn1   S    
C13   N2    A    
C22   C30   A    
C6    C30   A    
C14   N1    A    
C18   O6    A    
C3    H11   S    
C1    O3    A    
C8    C10   A    
C6    H2    S    
C8    O10   S    
C17   O5    A    
C3    C5    A    
C25   C27   A    
C18   O8    A    
