data_mof_unit_5608.cif
_audit_creation_date              2012-12-11T14:13:30-0500
_audit_creation_method            fapswitch 2.2
_symmetry_space_group_name_H-M    P1
_symmetry_Int_Tables_number       1
_space_group_crystal_system       triclinic
_cell_length_a                    17.361737
_cell_length_b                    17.352847
_cell_length_c                    17.434948
_cell_angle_alpha                 89.942997
_cell_angle_beta                  90.033886
_cell_angle_gamma                 89.92525
_cell_volume                      5252.71583114

loop_
_atom_site_label
_atom_site_type_symbol
_atom_type_description
_atom_site_fract_x
_atom_site_fract_y
_atom_site_fract_z
_atom_type_partial_charge
C1    C     C_R   0.604423 0.304377 0.105004 0.153851
C2    C     C_R   0.196134 0.105254 0.602557 0.143970
C3    C     C_3   0.711754 0.149070 0.982710 -0.901604
C4    C     C_3   0.893854 0.272906 0.036637 -0.911469
C5    C     C_3   0.315663 0.170275 0.173129 -0.910655
C6    C     C_3   0.144503 0.705629 0.020707 -0.911439
C7    C     C_3   0.675641 0.828979 0.172323 -0.906920
C8    C     C_3   0.360638 0.201667 0.477171 -0.907443
C9    C     C_3   0.845912 0.335187 0.310339 -0.934358
C10   C     C_3   0.643951 0.793672 0.477810 -0.907598
C11   C     C_3   0.167311 0.663714 0.318967 -0.900527
C12   C     C_3   0.336541 0.833525 0.682278 -0.900367
C13   C     C_R   0.918254 0.170672 0.642488 0.170961
C14   C     C_3   0.799198 0.638584 0.523571 -0.907388
C15   C     C_3   0.669895 0.170625 0.677915 -0.914701
C16   C     C_3   0.206581 0.356190 0.522220 -0.907327
C17   C     C_R   0.803757 0.894342 0.601889 0.146512
C18   C     C_R   0.105740 0.196339 0.398319 0.144585
C19   C     C_R   0.170504 0.918152 0.357405 0.171342
C20   C     C_R   0.894796 0.803741 0.397756 0.144451
C21   C     C_R   0.829940 0.081234 0.356963 0.173202
C22   C     C_R   0.574978 0.666991 0.143474 -0.179265
C23   C     C_R   0.304711 0.605524 0.103638 -0.172905
C24   C     C_R   0.422884 0.330749 0.142178 -0.180989
C25   C     C_R   0.671931 0.582622 0.141491 0.172020
C26   C     C_R   0.694689 0.394736 0.105267 -0.171650
C27   C     C_R   0.606531 0.304408 0.898111 -0.171041
C28   C     C_R   0.333276 0.425556 0.856298 -0.177347
C29   C     C_R   0.394408 0.695413 0.896503 -0.172360
C30   C     C_R   0.669363 0.576896 0.857989 -0.178301
C31   C     C_R   0.105839 0.195587 0.602152 -0.162710
C32   C     C_R   0.833261 0.074604 0.643787 -0.180470
C33   C     C_R   0.894013 0.804065 0.601150 -0.161401
C34   C     C_R   0.166637 0.925655 0.643750 -0.176309
C35   C     C_R   0.074385 0.833314 0.356315 -0.176159
C36   C     C_R   0.394756 0.695960 0.103247 0.147108
C37   C     C_R   0.804317 0.893850 0.398496 -0.162250
C38   C     C_R   0.925960 0.166143 0.355713 -0.184015
C39   C     C_R   0.195899 0.105978 0.398914 -0.161808
C40   C     C_R   0.680150 0.318813 0.123600 0.123488
C41   C     C_R   0.636215 0.639706 0.185210 0.133781
C42   C     C_R   0.318480 0.681768 0.120374 0.113330
C43   C     C_R   0.360751 0.357050 0.183315 0.148101
C44   C     C_R   0.642958 0.639015 0.816637 0.147964
C45   C     C_R   0.683024 0.318484 0.881962 0.124066
C46   C     C_R   0.360921 0.364903 0.814079 0.130005
C47   C     C_R   0.325657 0.415100 0.139421 0.162667
C48   C     C_R   0.318127 0.681716 0.879933 0.113521
C49   C     C_R   0.139046 0.865211 0.686319 0.133706
C50   C     C_R   0.182094 0.181716 0.618967 0.112258
C51   C     C_R   0.861093 0.135121 0.686210 0.130515
C52   C     C_R   0.817564 0.817529 0.617243 0.107294
C53   C     C_R   0.182480 0.182473 0.382915 0.109425
C54   C     C_R   0.134897 0.860869 0.313866 0.133436
C55   C     C_R   0.818242 0.817564 0.381788 0.111408
C56   C     C_R   0.865846 0.137984 0.312715 0.129091
C57   C     C_2   0.746493 0.649663 0.721627 0.125063
C58   C     C_R   0.584858 0.674191 0.860374 0.162571
C59   C     C_2   0.272122 0.813564 0.849900 0.162497
C60   C     C_2   0.255811 0.352142 0.720284 0.125716
C61   C     C_2   0.730153 0.187643 0.851217 0.137240
C62   C     C_2   0.810766 0.267495 0.147059 0.159748
C63   C     C_2   0.350509 0.253596 0.278731 0.124526
C64   C     C_2   0.186762 0.727619 0.150743 0.161946
C65   C     C_2   0.648744 0.744377 0.279272 0.125300
C66   C     C_2   0.313836 0.226261 0.349169 0.154047
C67   C     C_2   0.856890 0.238576 0.211611 0.154635
C68   C     C_2   0.687370 0.772679 0.348193 0.149089
C69   C     C_R   0.696571 0.394859 0.898384 0.150158
C70   C     C_2   0.145907 0.756946 0.218130 0.122994
C71   C     C_2   0.242769 0.854575 0.782490 0.122818
C72   C     C_2   0.773857 0.686072 0.651026 0.154132
C73   C     C_2   0.757875 0.147199 0.782837 0.124995
C74   C     C_2   0.227033 0.312770 0.651992 0.150210
C75   C     C_2   0.671607 0.657890 0.740468 -0.260032
C76   C     C_2   0.262918 0.736507 0.849002 -0.233326
C77   C     C_2   0.330407 0.342033 0.739723 -0.252906
C78   C     C_2   0.738862 0.264614 0.850572 -0.204043
C79   C     C_2   0.734072 0.263987 0.156431 -0.263736
C80   C     C_R   0.418195 0.329238 0.857652 0.172094
C81   C     C_2   0.341950 0.328450 0.259539 -0.259901
C82   C     C_2   0.263786 0.736863 0.151541 -0.233345
C83   C     C_2   0.658826 0.669824 0.259727 -0.252319
C84   C     C_2   0.237350 0.238055 0.353052 -0.237303
C85   C     C_2   0.843399 0.166081 0.236595 -0.262182
C86   C     C_2   0.764163 0.762518 0.349900 -0.230788
C87   C     C_2   0.157439 0.830961 0.238990 -0.260687
C88   C     C_2   0.168848 0.842843 0.761379 -0.261293
C89   C     C_2   0.761621 0.762500 0.646311 -0.237062
C90   C     C_2   0.831823 0.157761 0.761376 -0.250903
C91   C     C_R   0.303992 0.605363 0.896940 0.146431
C92   C     C_2   0.236858 0.235870 0.651212 -0.231678
C93   C     C_3   0.570105 0.175242 0.149845 -0.988574
C94   C     C_3   0.778709 0.529807 0.217867 -0.969654
C95   C     C_3   0.430357 0.825002 0.147469 -0.989815
C96   C     C_3   0.195960 0.410322 0.199452 -0.961188
C97   C     C_3   0.589009 0.803662 0.799422 -0.962249
C98   C     C_3   0.827697 0.429672 0.859961 -0.979434
C99   C     C_3   0.476711 0.227164 0.779102 -0.960368
C100  C     C_3   0.174812 0.569944 0.852996 -0.989399
C101  C     C_3   0.021465 0.729039 0.722058 -0.957547
C102  C     C_R   0.081791 0.829565 0.642745 0.171274
C103  C     C_3   0.325929 0.070463 0.645579 -0.991080
C104  C     C_3   0.977157 0.272597 0.721081 -0.958891
C105  C     C_3   0.675153 0.931594 0.646126 -0.990924
C106  C     C_3   0.070613 0.325792 0.354603 -0.982929
C107  C     C_3   0.271218 0.978311 0.278319 -0.957915
C108  C     C_3   0.930188 0.674007 0.355075 -0.992416
C109  C     C_3   0.729275 0.019860 0.278498 -0.960337
C110  C     C_3   0.829480 0.685111 0.827324 -0.910647
C111  C     C_3   0.294241 0.855815 0.979865 -0.911777
C112  C     C_3   0.170719 0.326276 0.826941 -0.908475
H1    H     H_    0.533177 0.708231 0.162273 0.166514
H2    H     H_    0.792109 0.032695 0.662385 0.168791
H3    H     H_    0.858714 0.731344 0.794247 0.251100
H4    H     H_    0.341068 0.905321 0.883541 0.157921
H5    H     H_    0.333443 0.892001 0.014846 0.254678
H6    H     H_    0.293191 0.797502 0.005069 0.276532
H7    H     H_    0.235634 0.881647 0.981521 0.246781
H8    H     H_    0.156744 0.413122 0.747219 0.156057
H9    H     H_    0.130623 0.355164 0.867359 0.244082
H10   H     H_    0.218274 0.300114 0.860752 0.263012
H11   H     H_    0.139105 0.280020 0.796210 0.251189
H12   H     H_    0.665644 0.094218 0.888649 0.155626
H13   H     H_    0.920443 0.748593 0.594986 0.147605
H14   H     H_    0.671089 0.118103 0.020771 0.257798
H15   H     H_    0.717993 0.209053 0.003562 0.281637
H16   H     H_    0.768367 0.119207 0.985163 0.239348
H17   H     H_    0.872495 0.362347 0.111408 0.154822
H18   H     H_    0.915130 0.312911 0.991693 0.253433
H19   H     H_    0.860942 0.226264 0.008142 0.262751
H20   H     H_    0.944162 0.247854 0.067298 0.238813
H21   H     H_    0.405518 0.152013 0.248518 0.156110
H22   H     H_    0.340625 0.128713 0.131596 0.245729
H23   H     H_    0.290409 0.219042 0.140346 0.260815
H24   H     H_    0.207277 0.968017 0.662285 0.164709
H25   H     H_    0.269330 0.141060 0.206034 0.250898
H26   H     H_    0.094782 0.659028 0.117031 0.158163
H27   H     H_    0.108158 0.666561 0.985743 0.254686
H28   H     H_    0.202797 0.706386 0.995602 0.276389
H29   H     H_    0.118965 0.764387 0.018884 0.246918
H30   H     H_    0.589189 0.844312 0.251997 0.156074
H31   H     H_    0.647360 0.869771 0.132048 0.244025
H32   H     H_    0.700779 0.781069 0.138346 0.263141
H33   H     H_    0.722596 0.859603 0.202990 0.251290
H34   H     H_    0.406746 0.156695 0.378121 0.155494
H35   H     H_    0.032071 0.792611 0.337766 0.164998
H36   H     H_    0.395749 0.160222 0.510834 0.255093
H37   H     H_    0.302951 0.205422 0.503660 0.275583
H38   H     H_    0.389097 0.258983 0.479073 0.246366
H39   H     H_    0.930299 0.330879 0.226559 0.162510
H40   H     H_    0.880244 0.376495 0.344738 0.246146
H41   H     H_    0.817334 0.294333 0.350255 0.266468
H42   H     H_    0.801143 0.367777 0.278366 0.253105
H43   H     H_    0.593579 0.839215 0.381029 0.156055
H44   H     H_    0.608968 0.833540 0.513288 0.253766
H45   H     H_    0.702572 0.790941 0.502241 0.275344
H46   H     H_    0.748663 0.919954 0.404429 0.147073
H47   H     H_    0.617056 0.735595 0.479581 0.246747
H48   H     H_    0.075905 0.663500 0.243007 0.158144
H49   H     H_    0.135987 0.626498 0.360295 0.240318
H50   H     H_    0.201131 0.706711 0.352001 0.260594
H51   H     H_    0.207074 0.627122 0.284737 0.252571
H52   H     H_    0.335748 0.925242 0.757810 0.157802
H53   H     H_    0.373624 0.865025 0.640979 0.240328
H54   H     H_    0.293938 0.799244 0.649205 0.260549
H55   H     H_    0.373315 0.794145 0.716877 0.252665
H56   H     H_    0.844056 0.593318 0.623196 0.155468
H57   H     H_    0.968499 0.206630 0.337217 0.170744
H58   H     H_    0.841171 0.603865 0.490290 0.255249
H59   H     H_    0.794723 0.696156 0.496761 0.275558
H60   H     H_    0.742292 0.609362 0.521582 0.246435
H61   H     H_    0.658991 0.084958 0.759336 0.156390
H62   H     H_    0.628591 0.140977 0.639326 0.244189
H63   H     H_    0.716174 0.196228 0.642143 0.263654
H64   H     H_    0.639159 0.217452 0.708736 0.251644
H65   H     H_    0.160019 0.406104 0.618551 0.155864
H66   H     H_    0.167127 0.391608 0.486607 0.253940
H67   H     H_    0.209160 0.297677 0.497558 0.275712
H68   H     H_    0.251348 0.079468 0.404925 0.147426
H69   H     H_    0.264751 0.382866 0.521004 0.246392
H70   H     H_    0.631381 0.681223 0.698823 0.132033
H71   H     H_    0.221941 0.711338 0.809349 0.147370
H72   H     H_    0.368891 0.312521 0.700440 0.138433
H73   H     H_    0.249058 0.579062 0.100426 0.145474
H74   H     H_    0.778903 0.290227 0.810207 0.138130
H75   H     H_    0.710159 0.227413 0.200985 0.152027
H76   H     H_    0.318277 0.368660 0.300925 0.131999
H77   H     H_    0.289026 0.777800 0.191182 0.147396
H78   H     H_    0.687455 0.630870 0.299319 0.137288
H79   H     H_    0.211701 0.280871 0.315787 0.151241
H80   H     H_    0.808551 0.128333 0.201274 0.142969
H81   H     H_    0.790081 0.721607 0.310641 0.146595
H82   H     H_    0.188578 0.869189 0.200750 0.140045
H83   H     H_    0.130655 0.811586 0.799537 0.140109
H84   H     H_    0.464379 0.289279 0.161228 0.163622
H85   H     H_    0.717801 0.788147 0.682312 0.152287
H86   H     H_    0.870755 0.187937 0.799642 0.137852
H87   H     H_    0.277445 0.210113 0.691015 0.147469
H88   H     H_    0.527052 0.230677 0.051835 0.167781
H89   H     H_    0.516734 0.140390 0.144551 0.257270
H90   H     H_    0.569177 0.204549 0.206554 0.249549
H91   H     H_    0.619977 0.135418 0.147311 0.259423
H92   H     H_    0.777498 0.545145 0.097024 0.151154
H93   H     H_    0.823780 0.486106 0.205494 0.246453
H94   H     H_    0.731257 0.501387 0.249988 0.255662
H95   H     H_    0.750276 0.421276 0.102660 0.130948
H96   H     H_    0.805141 0.575437 0.253663 0.259770
H97   H     H_    0.472578 0.768930 0.049745 0.169386
H98   H     H_    0.485851 0.856589 0.144087 0.258871
H99   H     H_    0.427268 0.796298 0.204461 0.250312
H100  H     H_    0.383104 0.867718 0.142452 0.259687
H101  H     H_    0.224458 0.454101 0.092390 0.157059
H102  H     H_    0.137369 0.434208 0.189700 0.253033
H103  H     H_    0.212403 0.425819 0.258819 0.255148
H104  H     H_    0.193298 0.346854 0.191628 0.256474
H105  H     H_    0.545818 0.775586 0.906805 0.156980
H106  H     H_    0.580544 0.248579 0.902895 0.147101
H107  H     H_    0.564967 0.862251 0.808818 0.252489
H108  H     H_    0.573352 0.786842 0.740198 0.255579
H109  H     H_    0.652465 0.806597 0.807082 0.256698
H110  H     H_    0.767628 0.472135 0.955070 0.164189
H111  H     H_    0.858489 0.485621 0.863952 0.254966
H112  H     H_    0.801730 0.425768 0.801758 0.245699
H113  H     H_    0.870451 0.382742 0.867669 0.261307
H114  H     H_    0.456341 0.222405 0.899267 0.152471
H115  H     H_    0.526116 0.188510 0.791759 0.250577
H116  H     H_    0.498412 0.277499 0.746078 0.253782
H117  H     H_    0.291961 0.467414 0.837693 0.166547
H118  H     H_    0.434832 0.194560 0.743779 0.257275
H119  H     H_    0.231277 0.527308 0.950449 0.169319
H120  H     H_    0.143061 0.514531 0.856500 0.258915
H121  H     H_    0.203286 0.572991 0.795935 0.250228
H122  H     H_    0.132291 0.617351 0.858087 0.259611
H123  H     H_    0.044259 0.722108 0.602352 0.152445
H124  H     H_    0.970720 0.692409 0.709168 0.251132
H125  H     H_    0.001450 0.780070 0.755068 0.253677
H126  H     H_    0.061943 0.694715 0.757565 0.256063
H127  H     H_    0.268320 0.026198 0.549756 0.169325
H128  H     H_    0.420880 0.751085 0.899767 0.144764
H129  H     H_    0.359975 0.016463 0.640765 0.258683
H130  H     H_    0.297808 0.071235 0.702882 0.249568
H131  H     H_    0.366455 0.119537 0.640938 0.260511
H132  H     H_    0.955499 0.277882 0.601051 0.152357
H133  H     H_    0.026810 0.310739 0.708251 0.250397
H134  H     H_    0.998687 0.222160 0.754177 0.253765
H135  H     H_    0.935617 0.305722 0.756429 0.257050
H136  H     H_    0.731355 0.972711 0.548069 0.169073
H137  H     H_    0.646548 0.988831 0.644450 0.259915
H138  H     H_    0.703389 0.925026 0.703062 0.253026
H139  H     H_    0.711076 0.535178 0.839535 0.161301
H140  H     H_    0.629998 0.886964 0.639654 0.264842
H141  H     H_    0.026229 0.268396 0.450542 0.168996
H142  H     H_    0.015915 0.358653 0.358197 0.259386
H143  H     H_    0.073230 0.297516 0.297420 0.252825
H144  H     H_    0.118476 0.367634 0.360002 0.262697
H145  H     H_    0.277874 0.955581 0.398098 0.152502
H146  H     H_    0.307929 0.029000 0.291229 0.251104
H147  H     H_    0.220306 0.998444 0.245119 0.253649
H148  H     H_    0.305482 0.937724 0.242987 0.256159
H149  H     H_    0.973894 0.731776 0.451030 0.169315
H150  H     H_    0.079498 0.251234 0.596969 0.147653
H151  H     H_    0.984879 0.641036 0.359438 0.259126
H152  H     H_    0.928186 0.702010 0.297687 0.250062
H153  H     H_    0.882013 0.632504 0.360334 0.261279
H154  H     H_    0.722540 0.044343 0.397757 0.152735
H155  H     H_    0.692289 0.969578 0.292216 0.251107
H156  H     H_    0.780231 0.998964 0.245934 0.254595
H157  H     H_    0.695114 0.059798 0.242262 0.255651
H158  H     H_    0.848013 0.594803 0.752627 0.155713
H159  H     H_    0.870935 0.660387 0.869193 0.245587
H160  H     H_    0.780608 0.710466 0.859735 0.260887
N1    N     N_R   0.574080 0.369570 0.076720 -0.076490
N2    N     N_R   0.130430 0.074080 0.576720 -0.075808
N3    N     N_R   0.925920 0.130430 0.576720 -0.079250
N4    N     N_R   0.869570 0.925920 0.576720 -0.075165
N5    N     N_R   0.074080 0.130430 0.423280 -0.075385
N6    N     N_R   0.130430 0.925920 0.423280 -0.079235
N7    N     N_R   0.925920 0.869570 0.423280 -0.075774
N8    N     N_R   0.869570 0.074080 0.423280 -0.078945
N9    N     N_R   0.574050 0.630410 0.076720 -0.066225
N10   N     N_R   0.369590 0.574050 0.076720 -0.062446
N11   N     N_R   0.425950 0.369590 0.076720 -0.065853
N12   N     N_R   0.630430 0.574080 0.076720 -0.079561
N13   N     N_R   0.630410 0.425950 0.076720 -0.060103
N14   N     N_R   0.574050 0.369590 0.923280 -0.060353
N15   N     N_R   0.369590 0.425950 0.923280 -0.066384
N16   N     N_R   0.425950 0.630410 0.923280 -0.062375
N17   N     N_R   0.630410 0.574050 0.923280 -0.066155
N18   N     N_R   0.074050 0.130410 0.576720 -0.060552
N19   N     N_R   0.869590 0.074050 0.576720 -0.066132
N20   N     N_R   0.925950 0.869590 0.576720 -0.060588
N21   N     N_R   0.130410 0.925950 0.576720 -0.066727
N22   N     N_R   0.074050 0.869590 0.423280 -0.066685
N23   N     N_R   0.425920 0.630430 0.076720 -0.074672
N24   N     N_R   0.869590 0.925950 0.423280 -0.060387
N25   N     N_R   0.925950 0.130410 0.423280 -0.066533
N26   N     N_R   0.130410 0.074050 0.423280 -0.060368
N27   N     N_2   0.574657 0.230096 0.087257 -0.107184
N28   N     N_2   0.751243 0.563214 0.146871 -0.109634
N29   N     N_2   0.425041 0.769987 0.085190 -0.108251
N30   N     N_2   0.249080 0.444327 0.145379 -0.112397
N31   N     N_2   0.555422 0.750700 0.853958 -0.112172
N32   N     N_2   0.769929 0.424577 0.919697 -0.100539
N33   N     N_2   0.440115 0.250774 0.849880 -0.110616
N34   N     N_R   0.369570 0.425920 0.076720 -0.080393
N35   N     N_2   0.230068 0.575021 0.915135 -0.108312
N36   N     N_2   0.059298 0.751405 0.651487 -0.111032
N37   N     N_2   0.269924 0.074576 0.584047 -0.108552
N38   N     N_2   0.940152 0.249095 0.650436 -0.111001
N39   N     N_2   0.729963 0.925262 0.583722 -0.109018
N40   N     N_2   0.074769 0.270107 0.416500 -0.109004
N41   N     N_2   0.248676 0.940530 0.348891 -0.110992
N42   N     N_2   0.925662 0.730021 0.416504 -0.108691
N43   N     N_2   0.751710 0.058910 0.348386 -0.111291
N44   N     N_2   0.802786 0.625020 0.776269 -0.108510
N45   N     N_R   0.574080 0.630430 0.923280 -0.080590
N46   N     N_2   0.322338 0.852183 0.902078 -0.114022
N47   N     N_2   0.200433 0.382260 0.772919 -0.110055
N48   N     N_2   0.682315 0.148685 0.905245 -0.116960
N49   N     N_2   0.845114 0.314519 0.089477 -0.103058
N50   N     N_2   0.375450 0.197191 0.224450 -0.108200
N51   N     N_2   0.147981 0.677538 0.098561 -0.114029
N52   N     N_2   0.619350 0.800111 0.226430 -0.110105
N53   N     N_2   0.354309 0.174997 0.399003 -0.117686
N54   N     N_2   0.895765 0.294113 0.257694 -0.111081
N55   N     N_2   0.647121 0.821963 0.400006 -0.117648
N56   N     N_R   0.630430 0.425920 0.923280 -0.076942
N57   N     N_2   0.112557 0.701981 0.269172 -0.109934
N58   N     N_2   0.297696 0.888166 0.731618 -0.109877
N59   N     N_2   0.825535 0.645546 0.601826 -0.117840
N60   N     N_2   0.701654 0.115701 0.732003 -0.109909
N61   N     N_2   0.177779 0.352678 0.599766 -0.117099
N62   N     N_R   0.425920 0.369570 0.923280 -0.078991
N63   N     N_R   0.369570 0.574080 0.923280 -0.074773
N64   N     N_R   0.074080 0.869570 0.576720 -0.079312
Ni1   Ni    Ni4+2 0.500000 0.370760 0.000000 0.187701
Ni2   Ni    Ni4+2 0.629240 0.500000 0.000000 0.188131
Ni3   Ni    Ni4+2 0.500000 0.629240 0.000000 0.186248
Ni4   Ni    Ni4+2 0.370760 0.500000 0.000000 0.186284
Ni5   Ni    Ni4+2 0.000000 0.870760 0.500000 0.186413
Ni6   Ni    Ni4+2 0.129240 0.000000 0.500000 0.186446
Ni7   Ni    Ni4+2 0.000000 0.129240 0.500000 0.185980
Ni8   Ni    Ni4+2 0.870760 0.000000 0.500000 0.186210

loop_
_geom_bond_atom_site_label_1
_geom_bond_atom_site_label_2
_ccdc_geom_bond_type
C61   N48   S    
N5    Ni7   S    
C69   N32   S    
N1    N13   A    
C36   C42   A    
C20   N7    A    
C14   H58   S    
C80   N33   S    
C70   N57   S    
H101  N30   S    
C31   N18   A    
N34   Ni4   S    
C101  N36   S    
N9    N12   A    
N2    Ni6   S    
C107  H146  S    
C95   H100  S    
C6    N51   S    
C86   H81   S    
N10   N23   A    
C20   N42   S    
C96   H102  S    
C74   C92   D    
C109  H157  S    
C13   C51   A    
C100  H122  S    
C28   N15   A    
C5    N50   S    
C48   C91   A    
C80   N62   A    
C45   C78   S    
C97   N31   S    
C92   H87   S    
C98   N32   S    
N17   Ni2   S    
C99   H116  S    
C16   H67   S    
C52   C89   S    
C68   N55   S    
C17   C52   A    
C39   H68   S    
C67   C85   D    
N22   Ni5   S    
C45   C69   A    
H12   N48   S    
C94   H96   S    
N45   Ni3   S    
C25   C41   A    
C49   C102  A    
C4    H18   S    
C11   H50   S    
C112  N47   S    
C8    H38   S    
C12   N58   S    
C2    N2    A    
C34   H24   S    
C65   C68   S    
C33   H13   S    
C6    H29   S    
N8    Ni8   S    
C60   N47   S    
H149  N42   S    
C29   N16   A    
C111  H6    S    
C31   C50   A    
H127  N37   S    
C38   H57   S    
C23   N10   A    
C95   H98   S    
H132  N38   S    
C46   C77   S    
C5    H25   S    
N20   Ni5   S    
C17   N39   S    
C96   H104  S    
C18   N40   S    
C55   C86   S    
H154  N43   S    
C63   N50   S    
C27   N14   A    
C110  H160  S    
N62   Ni1   S    
C25   N28   S    
C108  H152  S    
C39   N26   A    
N1    Ni1   S    
C93   H91   S    
C13   N3    A    
C71   C88   D    
C19   N6    A    
C27   H106  S    
N7    Ni5   S    
C24   C43   A    
C93   N27   S    
C57   N44   S    
C94   N28   S    
C43   C47   A    
N56   Ni2   S    
H21   N50   S    
C91   N35   S    
C48   C76   S    
C83   H78   S    
C94   H94   S    
C7    H31   S    
C36   N29   S    
C4    H20   S    
C54   C87   S    
C33   C52   A    
C28   C46   A    
C53   C84   S    
C73   C90   D    
C51   C90   S    
C73   N60   S    
N6    N22   A    
C30   H139  S    
C111  H7    S    
C6    H27   S    
C59   N46   S    
C2    C50   A    
C98   H112  S    
C71   N58   S    
C104  N38   S    
C99   N33   S    
C18   C53   A    
C14   N59   S    
C9    H41   S    
C96   N30   S    
C101  H124  S    
H61   N60   S    
C70   C87   D    
C16   H66   S    
H119  N35   S    
C22   H1    S    
N25   Ni7   S    
C97   H108  S    
C101  H125  S    
C106  H144  S    
N11   Ni1   S    
C26   N13   A    
C12   H53   S    
H4    N46   S    
C3    H16   S    
C103  N37   S    
H110  N32   S    
H97   N29   S    
H17   N49   S    
C18   N5    A    
N19   Ni8   S    
C107  N41   S    
C24   N11   A    
H34   N53   S    
C11   H51   S    
C95   N29   S    
C40   C79   S    
N2    N18   A    
H39   N54   S    
C8    N53   S    
C78   H74   S    
C19   C54   A    
C104  H134  S    
C82   H77   S    
C4    N49   S    
C43   C81   S    
C66   N53   S    
C33   N20   A    
C93   H89   S    
C5    H23   S    
N16   Ni3   S    
C34   C49   A    
C29   H128  S    
C102  N64   A    
C58   N31   S    
C105  H140  S    
C14   H59   S    
C30   N17   A    
C89   H85   S    
C111  H5    S    
C95   H99   S    
C10   N55   S    
C57   C75   D    
C58   N45   A    
N13   Ni2   S    
C105  N39   S    
C46   C80   A    
C106  N40   S    
H52   N58   S    
C28   H117  S    
C108  N42   S    
N5    N26   A    
C37   C55   A    
C32   N19   A    
C38   C56   A    
C9    N54   S    
C75   H70   S    
C59   C76   D    
C99   H115  S    
C7    H33   S    
C106  H142  S    
C26   H95   S    
C49   C88   S    
C109  H155  S    
C99   H118  S    
C12   H55   S    
C3    H14   S    
C15   H64   S    
N15   N62   A    
H65   N61   S    
N3    Ni7   S    
C109  H156  S    
N63   Ni4   S    
C22   C41   A    
C24   H84   S    
C11   H49   S    
C103  H130  S    
C84   H79   S    
H8    N47   S    
H92   N28   S    
C62   N49   S    
C100  N35   S    
C44   C58   A    
C2    N37   S    
N26   Ni6   S    
C76   H71   S    
C81   H76   S    
N11   N34   A    
C98   H113  S    
C27   C45   A    
C63   C66   S    
H26   N51   S    
C35   C54   A    
N8    N25   A    
C88   H83   S    
C30   C44   A    
C100  H121  S    
C8    H36   S    
N21   N64   A    
H136  N39   S    
H88   N27   S    
N21   Ni6   S    
C112  H11   S    
C23   H73   S    
C16   H69   S    
C61   C73   S    
C74   N61   S    
N15   Ni4   S    
H114  N33   S    
C32   C51   A    
H123  N36   S    
H141  N40   S    
C3    N48   S    
C93   H90   S    
C23   C42   A    
C21   N43   S    
C47   N30   S    
H105  N31   S    
C102  N36   S    
C15   H62   S    
C7    N52   S    
C1    N27   S    
C105  H138  S    
C21   C56   A    
N14   N56   A    
H158  N44   S    
C8    H37   S    
C105  H137  S    
N3    N19   A    
N24   Ni8   S    
C56   C85   S    
C39   C53   A    
N18   Ni7   S    
C57   C72   S    
C6    H28   S    
C108  H153  S    
C112  H9    S    
C35   N22   A    
N17   N45   A    
N9    Ni3   S    
C110  H3    S    
C69   N56   A    
C9    H40   S    
C68   C86   D    
C42   C82   S    
H56   N59   S    
C65   N52   S    
C85   H80   S    
C96   H103  S    
C79   H75   S    
C62   C67   S    
C63   C81   D    
C31   H150  S    
C107  H147  S    
C12   H54   S    
C110  H159  S    
C3    H15   S    
C65   C83   D    
N7    N24   A    
C41   C83   S    
C77   H72   S    
C108  H151  S    
C13   N38   S    
H30   N52   S    
C1    C40   A    
C36   N23   A    
C103  H131  S    
C97   H107  S    
C64   C70   S    
C1    N1    A    
C67   N54   S    
C104  H135  S    
C109  N43   S    
C110  N44   S    
C94   H93   S    
C20   C55   A    
C7    H32   S    
C4    H19   S    
C5    H22   S    
C60   C77   D    
C29   C48   A    
N12   Ni2   S    
C62   C79   D    
C100  H120  S    
C14   H60   S    
C21   N8    A    
C10   H44   S    
C107  H148  S    
C37   H46   S    
C44   C75   S    
C91   N63   A    
C64   N51   S    
C112  H10   S    
N64   Ni5   S    
H145  N41   S    
C34   N21   A    
C61   C78   D    
C98   H111  S    
C35   H35   S    
C19   N41   S    
C25   N12   A    
C10   H45   S    
C64   C82   D    
C50   C92   S    
C9    H42   S    
C15   N60   S    
C37   N24   A    
C10   H47   S    
C17   N4    A    
C111  N46   S    
C16   N61   S    
H48   N57   S    
N10   Ni4   S    
C101  H126  S    
C106  H143  S    
C87   H82   S    
C22   N9    A    
C90   H86   S    
C15   H63   S    
N14   Ni1   S    
N23   Ni3   S    
N16   N63   A    
C72   C89   D    
C26   C40   A    
C72   N59   S    
N4    Ni8   S    
C60   C74   S    
C103  H129  S    
C97   H109  S    
C47   N34   A    
N6    Ni6   S    
C66   C84   D    
N4    N20   A    
H43   N55   S    
C38   N25   A    
C104  H133  S    
C11   N57   S    
C32   H2    S    
C59   C71   S    
