data_mof_unit_38652.cif
_audit_creation_date              2012-10-26T20:38:19-0400
_audit_creation_method            fapswitch 2.2
_symmetry_space_group_name_H-M    P1
_symmetry_Int_Tables_number       1
_space_group_crystal_system       triclinic
_cell_length_a                    15.836302
_cell_length_b                    10.975575
_cell_length_c                    10.006058
_cell_angle_alpha                 110.757229
_cell_angle_beta                  98.240755
_cell_angle_gamma                 93.937886
_cell_volume                      1596.02788049

loop_
_atom_site_label
_atom_site_type_symbol
_atom_type_description
_atom_site_fract_x
_atom_site_fract_y
_atom_site_fract_z
_atom_type_partial_charge
C1    C     C_R   0.491512 0.254000 0.440981 0.553574
C2    C     C_3   0.030515 0.605344 0.475976 0.047701
C3    C     C_3   0.013267 0.390323 0.395754 0.047961
C4    C     C_3   0.987043 0.609379 0.605815 0.047852
C5    C     C_1   0.250654 0.499836 0.501170 -0.044077
C6    C     C_1   0.749447 0.499943 0.499153 -0.040565
C7    C     C_3   0.040617 0.504153 0.631376 -0.102822
C8    C     C_3   0.959718 0.495549 0.370184 -0.102077
C9    C     C_3   0.083253 0.500075 0.500425 0.023240
C10   C     C_3   0.917032 0.499618 0.501117 0.023154
C11   C     C_1   0.175103 0.500051 0.501318 -0.082043
C12   C     C_R   0.504610 0.745595 0.559484 0.552478
C13   C     C_1   0.825085 0.499658 0.499650 -0.079221
C14   C     C_2   0.479728 0.113213 0.409939 -0.137301
C15   C     C_2   0.505861 0.886003 0.593853 -0.132298
C16   C     C_3   0.033603 0.271751 0.273053 -0.271049
C17   C     C_3   0.952518 0.180850 0.181100 -0.445200
C18   C     C_3   0.966810 0.727969 0.728598 -0.270782
C19   C     C_3   0.047980 0.818611 0.820635 -0.445639
C20   C     C_3   0.931093 0.280604 0.561710 -0.268547
C21   C     C_3   0.998208 0.194423 0.587914 -0.447993
C22   C     C_3   0.069411 0.719075 0.440002 -0.268903
C23   C     C_2   0.485878 0.069997 0.519768 -0.170760
C24   C     C_3   0.002515 0.805674 0.414150 -0.447856
C25   C     C_3   0.407670 0.397268 0.831219 -0.210357
C26   C     C_3   0.324913 0.456727 0.865507 -0.436491
C27   C     C_3   0.576568 0.629782 0.174274 -0.211694
C28   C     C_3   0.551278 0.763222 0.177526 -0.440565
C29   C     C_2   0.474158 0.930375 0.491706 -0.172655
C30   C     C_2   0.506723 0.516134 0.080902 0.137815
C31   C     C_2   0.487853 0.492322 0.920633 0.138342
C32   C     C_R   0.340251 0.499545 0.500252 0.545447
C33   C     C_R   0.659772 0.500386 0.499776 0.547763
C34   C     C_3   0.969798 0.394355 0.525595 0.047711
Cu1   Cu    Cu3+1 0.514700 0.521810 0.644910 0.904979
Cu2   Cu    Cu3+1 0.485300 0.478190 0.355090 0.907457
H1    H     H_    0.925132 0.492019 0.263940 0.098561
H2    H     H_    0.906872 0.236073 0.137894 0.149975
H3    H     H_    0.970045 0.101710 0.088056 0.129369
H4    H     H_    0.067633 0.308067 0.202090 0.140201
H5    H     H_    0.077395 0.216265 0.319230 0.139190
H6    H     H_    0.093489 0.763211 0.863836 0.148073
H7    H     H_    0.079991 0.864881 0.755821 0.150320
H8    H     H_    0.030521 0.897828 0.913686 0.129509
H9    H     H_    0.923134 0.783641 0.682505 0.139085
H10   H     H_    0.932694 0.691670 0.799481 0.140101
H11   H     H_    0.022742 0.143422 0.486887 0.148080
H12   H     H_    0.075314 0.507670 0.737553 0.096628
H13   H     H_    0.052738 0.254374 0.674550 0.145917
H14   H     H_    0.968363 0.118820 0.622816 0.131555
H15   H     H_    0.903113 0.322121 0.661564 0.141111
H16   H     H_    0.878215 0.220123 0.472249 0.142374
H17   H     H_    0.947892 0.746015 0.327548 0.147166
H18   H     H_    0.978106 0.856720 0.515293 0.148186
H19   H     H_    0.032507 0.881243 0.379351 0.131196
H20   H     H_    0.122394 0.779275 0.529429 0.142091
H21   H     H_    0.097298 0.677524 0.340050 0.140372
H22   H     H_    0.317320 0.473337 0.978827 0.138936
H23   H     H_    0.442194 0.863152 0.385117 0.154212
H24   H     H_    0.325269 0.552306 0.850695 0.177945
H25   H     H_    0.268399 0.388828 0.791234 0.123622
H26   H     H_    0.404984 0.362258 0.714638 0.213508
H27   H     H_    0.407892 0.302950 0.848370 0.072368
H28   H     H_    0.570816 0.788081 0.087385 0.136074
H29   H     H_    0.480669 0.763255 0.168957 0.155047
H30   H     H_    0.584245 0.842267 0.280231 0.139843
H31   H     H_    0.594069 0.637715 0.285860 0.218211
H32   H     H_    0.638447 0.613428 0.135051 0.081229
H33   H     H_    0.502825 0.137752 0.632175 0.156337
H34   H     H_    0.535030 0.953664 0.702443 0.101173
H35   H     H_    0.464772 0.044830 0.297724 0.100107
H36   H     H_    0.595061 0.606244 0.920092 0.203238
H37   H     H_    0.417811 0.367986 0.073242 0.203465
H38   H     H_    0.920647 0.134491 0.245975 0.150424
N1    N     N_2   0.463210 0.445420 0.137360 -0.356904
N2    N     N_2   0.536790 0.554580 0.862640 -0.353129
O1    O     O_R   0.507840 0.332340 0.577400 -0.515194
O2    O     O_R   0.492160 0.667660 0.422600 -0.506211
O3    O     O_R   0.483020 0.295500 0.332650 -0.486967
O4    O     O_R   0.516980 0.704500 0.667350 -0.485940
O5    O     O_R   0.391490 0.518400 0.622350 -0.508711
O6    O     O_R   0.608510 0.481600 0.377650 -0.511409
O7    O     O_R   0.366660 0.481570 0.377600 -0.487945
O8    O     O_R   0.633340 0.518430 0.622400 -0.488970

loop_
_geom_bond_atom_site_label_1
_geom_bond_atom_site_label_2
_ccdc_geom_bond_type
C25   C31   S    
C1    O1    A    
C14   H35   S    
C23   H33   S    
C28   H30   S    
Cu1   Cu2   S    
H36   N2    S    
C22   H21   S    
C21   H13   S    
Cu1   O5    S    
C24   H19   S    
C32   O5    A    
C23   C29   S    
C26   H25   S    
C5    C11   T    
C20   H15   S    
C17   H3    S    
C30   C31   S    
Cu2   O7    S    
C24   H18   S    
Cu1   O4    S    
C18   C19   S    
C25   H27   S    
C32   O7    A    
C27   H32   S    
C29   H23   S    
Cu2   O6    S    
C16   C17   S    
C12   O2    A    
C2    C22   S    
C10   C13   S    
C33   O6    A    
C19   H6    S    
C17   H2    S    
C5    C32   S    
C4    C18   S    
C27   C30   S    
H37   N1    S    
C4    C7    S    
C18   H10   S    
C21   H14   S    
C19   H7    S    
C15   C29   D    
Cu1   N2    S    
C3    C8    S    
C22   H20   S    
C3    C34   S    
C25   C26   S    
Cu1   O1    S    
C14   C23   D    
C2    C4    S    
C3    C9    S    
Cu2   N1    S    
C26   H22   S    
C12   C15   S    
C10   C34   S    
C9    C11   S    
C16   H4    S    
C28   H28   S    
C17   H38   S    
C1    O3    A    
C7    C34   S    
C22   C24   S    
C8    H1    S    
C4    C10   S    
C18   H9    S    
C19   H8    S    
C7    C9    S    
C15   H34   S    
C2    C8    S    
Cu2   O3    S    
Cu1   O8    S    
C6    C33   S    
C7    H12   S    
C28   H29   S    
C24   H17   S    
C20   C34   S    
C20   H16   S    
Cu2   O2    S    
C6    C13   T    
C30   N1    D    
C31   N2    D    
C12   O4    A    
C25   H26   S    
C33   O8    A    
C27   H31   S    
C20   C21   S    
C8    C10   S    
C27   C28   S    
C1    C14   S    
C2    C9    S    
C26   H24   S    
C16   H5    S    
C3    C16   S    
C21   H11   S    
