data_mof_unit_41514.cif
_audit_creation_date              2012-12-11T18:37:21-0500
_audit_creation_method            fapswitch 2.2
_symmetry_space_group_name_H-M    P1
_symmetry_Int_Tables_number       1
_space_group_crystal_system       triclinic
_cell_length_a                    8.210597
_cell_length_b                    14.373283
_cell_length_c                    26.998721
_cell_angle_alpha                 93.551195
_cell_angle_beta                  92.582484
_cell_angle_gamma                 88.375262
_cell_volume                      3175.81445066

loop_
_atom_site_label
_atom_site_type_symbol
_atom_type_description
_atom_site_fract_x
_atom_site_fract_y
_atom_site_fract_z
_atom_type_partial_charge
Ba1   Ba    Ba6+2 0.849670 0.455410 0.524690 1.644614
Ba2   Ba    Ba6+2 0.340150 0.544510 0.475310 1.661211
C1    C     C_3   0.609058 0.125341 0.665769 -0.364295
C2    C     C_3   0.624608 0.219238 0.643664 0.342349
C3    C     C_3   0.521540 0.688880 0.623207 0.297917
C4    C     C_3   0.491458 0.725954 0.676127 -0.367878
C5    C     C_3   0.973998 0.820670 0.341043 0.268900
C6    C     C_3   0.984956 0.827080 0.285370 -0.305694
C7    C     C_3   0.520266 0.766127 0.307951 0.495974
C8    C     C_3   0.428846 0.832221 0.274025 0.251350
C9    C     C_R   0.020152 0.435571 0.181305 0.595072
C10   C     C_R   0.951740 0.598325 0.178521 0.607417
C11   C     C_2   0.781318 0.567077 0.271397 -0.089732
C12   C     C_3   0.132734 0.249076 0.665950 0.285056
C13   C     C_3   0.760412 0.597566 0.325441 -0.093106
C14   C     C_1   0.987837 0.489870 0.344778 0.053320
C15   C     C_2   0.031073 0.483601 0.297484 -0.074343
C16   C     C_2   0.920485 0.522228 0.257235 0.207853
C17   C     C_R   0.041895 0.512541 0.103311 -0.080400
C18   C     C_R   0.060838 0.432037 0.130526 -0.032601
C19   C     C_R   0.118199 0.349356 0.106190 -0.059265
C20   C     C_R   0.986638 0.596005 0.127680 -0.022850
C21   C     C_2   0.864791 0.542636 0.360878 -0.245296
C22   C     C_2   0.348953 0.477780 0.641961 -0.283237
C23   C     C_3   0.098258 0.229366 0.719038 -0.336035
C24   C     C_R   0.183739 0.425007 0.977020 0.019848
C25   C     C_R   0.080401 0.587089 0.972546 0.020636
C26   C     C_R   0.150026 0.504910 0.949280 0.050388
C27   C     C_R   0.260577 0.346709 0.952597 -0.100131
C28   C     C_R   0.299371 0.346260 0.902788 -0.060749
C29   C     C_R   0.262533 0.423494 0.874650 -0.030644
C30   C     C_R   0.186739 0.502793 0.897748 -0.077893
C31   C     C_R   0.148527 0.580240 0.869396 -0.034090
C32   C     C_R   0.185931 0.577418 0.818571 0.590525
C33   C     C_R   0.300976 0.423063 0.823950 0.578485
C34   C     C_3   0.196660 0.250164 0.404494 0.296582
C35   C     C_2   0.456891 0.480650 0.729902 -0.072648
C36   C     C_3   0.499732 0.486004 0.675993 -0.051828
C37   C     C_1   0.212703 0.518928 0.656515 0.039210
C38   C     C_2   0.173582 0.520021 0.703942 -0.104151
C39   C     C_2   0.301521 0.498391 0.743816 0.201474
C40   C     C_R   0.141004 0.426201 0.027987 0.020530
C41   C     C_R   0.078380 0.509824 0.051742 0.051246
C42   C     C_R   0.051939 0.590955 0.024510 0.020156
C43   C     C_R   0.157871 0.346424 0.056317 -0.099222
C44   C     C_R   0.968041 0.676324 0.100883 -0.050020
C45   C     C_3   0.208102 0.154463 0.376690 -0.215414
C46   C     C_R   0.040440 0.662743 0.942655 -0.100248
C47   C     C_R   0.073726 0.659236 0.892425 -0.061560
C48   C     C_R   0.999382 0.673976 0.050609 -0.100712
C49   C     C_R   0.699018 0.065574 0.476718 -0.039214
C50   C     C_R   0.512020 0.198311 0.501998 0.029353
C51   C     C_R   0.370160 0.228782 0.525143 -0.283249
C52   C     C_R   0.273393 0.166746 0.547330 0.020397
C53   C     C_R   0.321827 0.073205 0.548912 -0.153601
C54   C     C_R   0.465744 0.040543 0.526540 -0.006643
C55   C     C_R   0.561811 0.102467 0.502000 -0.027962
C56   C     C_3   0.033051 0.741624 0.575923 0.304926
C57   C     C_R   0.645763 0.909249 0.501292 -0.014679
C58   C     C_R   0.743684 0.970480 0.477147 0.012951
C59   C     C_R   0.687230 0.812993 0.499124 0.042238
C60   C     C_R   0.822090 0.779340 0.473431 -0.269048
C61   C     C_R   0.926186 0.839877 0.453147 -0.020083
C62   C     C_R   0.886365 0.935637 0.454249 -0.153168
C63   C     C_R   0.509204 0.945679 0.526449 -0.048294
C64   C     C_3   0.036864 0.846821 0.586549 -0.381311
C65   C     C_3   0.662829 0.340859 0.380691 0.288229
C66   C     C_3   0.678722 0.316743 0.325442 -0.354221
H1    H     H_    0.736618 0.216635 0.622005 0.106034
H2    H     H_    0.249597 0.163734 0.338661 0.129074
H3    H     H_    0.084797 0.123840 0.373213 0.111075
H4    H     H_    0.907757 0.721088 0.564949 0.001092
H5    H     H_    0.115146 0.722099 0.545287 0.066772
H6    H     H_    0.948449 0.868876 0.615212 0.137001
H7    H     H_    0.004689 0.883422 0.552446 0.063555
H8    H     H_    0.161224 0.867317 0.600149 0.113355
H9    H     H_    0.780379 0.366260 0.396844 0.029114
H10   H     H_    0.568315 0.396531 0.385703 0.094746
H11   H     H_    0.602238 0.069367 0.635544 0.079284
H12   H     H_    0.776309 0.262580 0.319635 0.135495
H13   H     H_    0.709900 0.379540 0.306375 0.075521
H14   H     H_    0.561492 0.290087 0.308890 0.124735
H15   H     H_    0.516167 0.231131 0.618679 -0.034719
H16   H     H_    0.496700 0.125091 0.687175 0.124318
H17   H     H_    0.403174 0.667133 0.605423 0.029582
H18   H     H_    0.607864 0.628075 0.624014 0.034220
H19   H     H_    0.412099 0.789813 0.675587 0.138370
H20   H     H_    0.429668 0.673407 0.696436 0.077564
H21   H     H_    0.609155 0.743046 0.696036 0.124705
H22   H     H_    0.716786 0.111153 0.690796 0.135421
H23   H     H_    0.152230 0.284072 0.744872 0.130375
H24   H     H_    0.893196 0.762618 0.347818 -0.024739
H25   H     H_    0.919758 0.887645 0.356038 -0.015508
H26   H     H_    0.057254 0.766686 0.269789 0.202116
H27   H     H_    0.861054 0.827513 0.267232 0.101500
H28   H     H_    0.043996 0.892754 0.277466 0.079086
H29   H     H_    0.632685 0.743806 0.288843 -0.054231
H30   H     H_    0.553320 0.804154 0.343989 -0.153970
H31   H     H_    0.508900 0.890893 0.267239 -0.033431
H32   H     H_    0.087559 0.321078 0.659698 0.079096
H33   H     H_    0.319056 0.860745 0.292408 0.056205
H34   H     H_    0.148634 0.452836 0.287936 0.126275
H35   H     H_    0.133062 0.285890 0.125765 0.119267
H36   H     H_    0.553865 0.469028 0.757689 0.103600
H37   H     H_    0.358769 0.284361 0.886271 0.121750
H38   H     H_    0.295835 0.284709 0.971244 0.069100
H39   H     H_    0.198671 0.279462 0.040765 0.068312
H40   H     H_    0.694663 0.593458 0.243772 0.120832
H41   H     H_    0.928017 0.742091 0.118750 0.121397
H42   H     H_    0.979831 0.725703 0.956682 0.069522
H43   H     H_    0.266440 0.244158 0.661311 -0.011918
H44   H     H_    0.040511 0.719477 0.871573 0.122229
H45   H     H_    0.049628 0.537158 0.714182 0.127349
H46   H     H_    0.984379 0.739577 0.033532 0.068548
H47   H     H_    0.854534 0.561085 0.400226 0.075010
H48   H     H_    0.352058 0.438434 0.606321 0.071904
H49   H     H_    0.330991 0.301182 0.524108 0.071664
H50   H     H_    0.245487 0.025827 0.566526 0.074286
H51   H     H_    0.966087 0.982402 0.437477 0.058147
H52   H     H_    0.852239 0.705458 0.472050 0.053107
H53   H     H_    0.771570 0.109353 0.455841 0.104976
H54   H     H_    0.964563 0.229806 0.723823 0.141749
H55   H     H_    0.432704 0.900653 0.545388 0.091702
H56   H     H_    0.151687 0.160305 0.728100 0.121410
H57   H     H_    0.318047 0.281753 0.406876 0.030725
H58   H     H_    0.151210 0.243405 0.442213 0.001953
N1    N     N_R   0.965201 0.518261 0.204989 -0.421806
N2    N     N_R   0.261180 0.499252 0.796144 -0.424625
O1    O     O_2   0.918080 0.549800 0.616640 -0.465025
O2    O     O_3   0.618854 0.260958 0.403359 -0.656262
O3    O     O_3   0.052093 0.183542 0.633589 -0.603429
O4    O     O_2   0.271610 0.450170 0.383330 -0.468110
O5    O     O_3   0.039630 0.450200 0.443530 -0.486266
O6    O     O_3   0.531440 0.620360 0.408460 -0.458285
O7    O     O_3   0.084722 0.302727 0.376944 -0.645108
O8    O     O_3   0.643350 0.612530 0.521650 -0.474582
O9    O     O_3   0.127390 0.668260 0.431510 -0.456546
O10   O     O_2   0.269600 0.830766 0.451142 -0.483708
O11   O     O_3   0.130975 0.805379 0.362495 -0.571691
O12   O     O_3   0.150070 0.549720 0.556460 -0.494083
O13   O     O_3   0.546340 0.387390 0.478340 -0.491561
O14   O     O_2   0.398940 0.728800 0.517420 -0.471358
O15   O     O_3   0.589382 0.759783 0.598183 -0.647255
O16   O     O_2   0.462069 0.512061 0.326529 -0.494442
O17   O     O_3   0.421913 0.690187 0.315876 -0.539518
O18   O     O_2   0.031575 0.364637 0.204053 -0.601785
O19   O     O_2   0.369524 0.354500 0.804572 -0.600241
O20   O     O_2   0.909975 0.672457 0.199307 -0.616386
O21   O     O_2   0.153989 0.645432 0.794545 -0.597773
O22   O     O_3   0.658250 0.379560 0.591530 -0.487941
O23   O     O_2   0.830513 0.425665 0.674252 -0.497941
O24   O     O_3   0.082886 0.698947 0.619306 -0.626702
O25   O     O_3   0.633061 0.289757 0.682026 -0.592168
O26   O     O_2   0.790750 0.271170 0.482550 -0.448832
O27   O     O_3   0.062300 0.331660 0.568480 -0.484412
O28   O     O_2   0.934952 0.166847 0.542554 -0.486702
P1    P     P_3+3 0.090020 0.577590 0.608380 0.994493
P2    P     P_3+3 0.614340 0.285150 0.467650 0.956063
P3    P     P_3+3 0.080750 0.211010 0.572462 0.944848
P4    P     P_3+3 0.099670 0.422330 0.391610 0.989356
P5    P     P_3+3 0.113372 0.788926 0.425667 0.977417
P6    P     P_3+3 0.656604 0.397264 0.656112 0.970123
P7    P     P_3+3 0.583554 0.729267 0.534441 0.940876
P8    P     P_3+3 0.544154 0.604525 0.343754 0.985529
C67   C     C_3   0.325566 0.087713 0.402747 -0.296894
C68   C     C_3   0.348294 0.997177 0.371551 -0.376490
H59   H     H_    0.227893 0.966868 0.361675 0.158816
H60   H     H_    0.410088 0.010557 0.337039 0.105698
H61   H     H_    0.424780 0.947207 0.392802 0.157332
H62   H     H_    0.446137 0.119748 0.408288 0.141383
H63   H     H_    0.276921 0.072393 0.438979 0.124848
O29   O     O_3   0.384214 0.784676 0.228805 -0.698816
H64   H     H_    0.321110 0.830428 0.209042 0.301558

loop_
_geom_bond_atom_site_label_1
_geom_bond_atom_site_label_2
_ccdc_geom_bond_type
C25   C46   A    
C66   H12   S    
C46   H42   S    
C53   C54   A    
C67   H63   S    
C67   C68   S    
C14   P4    S    
C7    H30   S    
C17   C18   A    
C65   H9    S    
C41   C42   A    
C1    H11   S    
O1    P1    D    
C5    C6    S    
C10   N1    Am   
C29   C30   A    
C51   C52   A    
C50   C51   A    
C65   H10   S    
O4    P4    D    
C62   H51   S    
C11   C16   D    
C1    H22   S    
C66   H13   S    
Ba1   P2    S    
O26   P2    D    
Ba1   O1    S    
C28   C29   A    
C45   C67   S    
C51   H49   S    
C3    O15   S    
C5    H24   S    
C8    O29   S    
C54   C63   A    
C64   H6    S    
C10   C20   A    
C22   C37   D    
C4    H20   S    
C54   C55   A    
C34   C45   S    
Ba1   Ba2   S    
Ba1   O27   S    
C52   P3    S    
C52   C53   A    
C25   C42   A    
C56   C64   S    
C34   H57   S    
C56   O24   S    
C14   C15   D    
C6    H28   S    
C22   C36   S    
C49   C55   A    
Ba1   O8    S    
C7    C8    S    
C60   H52   S    
C3    H17   S    
C13   C21   S    
C2    O25   S    
C57   C58   A    
O16   P8    D    
C68   H60   S    
C39   N2    S    
C33   N2    Am   
C6    H27   S    
C11   H40   S    
Ba1   O5    S    
O15   P7    S    
C2    H1    S    
C32   O21   D    
C17   C41   A    
C31   C32   A    
C19   C43   A    
C12   O3    S    
O28   P3    D    
C50   P2    S    
C12   H43   S    
C5    H25   S    
C9    C18   A    
C23   H23   S    
Ba2   O5    S    
C57   C59   A    
O27   P3    S    
C65   C66   S    
C13   P8    S    
O11   P5    S    
C17   C20   A    
C6    H26   S    
C37   C38   D    
C21   H47   S    
Ba2   O8    S    
C4    H19   S    
O22   P6    S    
C48   H46   S    
C40   C43   A    
C9    N1    Am   
C15   H34   S    
C45   H2    S    
C35   C36   S    
C16   N1    S    
Ba2   O4    S    
C38   H45   S    
C26   C30   A    
O23   P6    D    
C64   H8    S    
O9    P5    S    
C60   C61   A    
C15   C16   S    
Ba1   O22   S    
C33   O19   D    
O3    P3    S    
C45   H3    S    
Ba1   O12   S    
C68   H61   S    
C47   H44   S    
C3    H18   S    
Ba2   P4    S    
C46   C47   A    
C20   C44   A    
C22   H48   S    
C14   C21   D    
C11   C13   S    
C28   H37   S    
C68   H59   S    
C49   H53   S    
C29   C33   A    
C27   H38   S    
C65   O2    S    
C40   C41   A    
C1    C2    S    
C34   O7    S    
O14   P7    D    
O29   H64   S    
C24   C40   A    
C23   H54   S    
C42   C48   A    
C67   H62   S    
C61   P5    S    
O12   P1    S    
O24   P1    S    
C38   C39   S    
C7    H29   S    
O7    P4    S    
C59   P7    S    
Ba2   O9    S    
C8    H33   S    
C34   H58   S    
C35   H36   S    
Ba1   O26   S    
Ba2   O6    S    
C9    O18   D    
C12   H32   S    
O17   P8    S    
C4    H21   S    
C44   C48   A    
C24   C26   A    
C58   C62   A    
O25   P6    S    
O2    P2    S    
O5    P4    S    
Ba2   O12   S    
C30   C31   A    
C10   O20   D    
Ba1   P1    S    
C66   H14   S    
C57   C63   A    
C5    O11   S    
C56   H4    S    
C3    C4    S    
C2    H15   S    
Ba2   O14   S    
C64   H7    S    
C7    O17   S    
O6    P8    S    
C8    H31   S    
O10   P5    D    
C63   H55   S    
C12   C23   S    
C35   C39   D    
C59   C60   A    
C23   H56   S    
Ba1   O13   S    
C50   C55   A    
C27   C28   A    
C61   C62   A    
C19   H35   S    
O13   P2    S    
C36   P6    S    
C18   C19   A    
C24   C27   A    
C32   N2    Am   
C44   H41   S    
C1    H16   S    
Ba2   O13   S    
C49   C58   A    
C31   C47   A    
C53   H50   S    
C37   P1    S    
C43   H39   S    
C56   H5    S    
C25   C26   A    
O8    P7    S    
