data_mof_unit_64237.cif
_audit_creation_date              2012-12-10T21:03:00-0500
_audit_creation_method            fapswitch 2.2
_symmetry_space_group_name_H-M    P1
_symmetry_Int_Tables_number       1
_space_group_crystal_system       triclinic
_cell_length_a                    15.849989
_cell_length_b                    15.060247
_cell_length_c                    19.235394
_cell_angle_alpha                 90.000453
_cell_angle_beta                  89.988142
_cell_angle_gamma                 90.000194
_cell_volume                      4591.57980371

loop_
_atom_site_label
_atom_site_type_symbol
_atom_type_description
_atom_site_fract_x
_atom_site_fract_y
_atom_site_fract_z
_atom_type_partial_charge
C1    C     C_R   0.338845 0.500000 0.500029 0.915964
C2    C     C_R   0.661155 0.500000 0.499971 0.915966
C3    C     C_1   0.824377 0.500000 0.499970 -0.059674
C4    C     C_1   0.175623 0.500000 0.500029 -0.059675
C5    C     C_1   0.250456 0.500000 0.500032 -0.167835
C6    C     C_1   0.749544 0.500000 0.499967 -0.167835
C7    C     C_R   0.485525 0.953106 0.438374 -0.145265
C8    C     C_R   0.514475 0.046894 0.561626 -0.145264
C9    C     C_R   0.514475 0.953107 0.561626 -0.145088
C10   C     C_R   0.485525 0.046893 0.438374 -0.145087
C11   C     C_R   0.500000 0.905045 0.500000 0.063293
C12   C     C_R   0.500000 0.094955 0.500000 0.063293
C13   C     C_1   0.500000 0.807193 0.500000 0.066620
C14   C     C_1   0.500000 0.192807 0.500000 0.066620
C15   C     C_R   0.499981 0.500000 0.365110 0.884270
C16   C     C_R   0.500018 0.500000 0.634890 0.884270
C17   C     C_R   0.499656 0.580543 0.253296 -0.152390
C18   C     C_R   0.500320 0.419458 0.746704 -0.152390
C19   C     C_R   0.499768 0.580544 0.746705 -0.152170
C20   C     C_R   0.500225 0.419456 0.253295 -0.152168
C21   C     C_R   0.499337 0.581759 0.180847 0.004832
C22   C     C_R   0.500626 0.418242 0.819153 0.004831
C23   C     C_R   0.499465 0.581761 0.819154 0.004726
C24   C     C_R   0.500515 0.418239 0.180846 0.004724
C25   C     C_R   0.499927 0.500000 0.144770 -0.077023
C26   C     C_R   0.500039 0.500001 0.855230 -0.077025
C27   C     C_R   0.499955 0.499999 0.289430 -0.138042
C28   C     C_R   0.500036 0.500001 0.710570 -0.138043
C29   C     C_R   0.500010 0.500001 0.930351 0.203370
C30   C     C_R   0.499953 0.500001 0.069649 0.203369
C31   C     C_R   0.956260 0.580569 0.494868 -0.170902
C32   C     C_R   0.043740 0.419431 0.505131 -0.170903
C33   C     C_R   0.043746 0.580569 0.494886 -0.171259
C34   C     C_R   0.956254 0.419431 0.505113 -0.171258
C35   C     C_R   0.913153 0.500000 0.499981 0.164635
C36   C     C_R   0.086847 0.500000 0.500018 0.164635
H1    H     H_    0.499061 0.642655 0.281722 0.201600
H2    H     H_    0.500911 0.357346 0.718278 0.201601
H3    H     H_    0.499178 0.642656 0.718280 0.201657
H4    H     H_    0.500827 0.357344 0.281721 0.201658
H5    H     H_    0.077660 0.642861 0.490932 0.150026
H6    H     H_    0.922340 0.357139 0.509068 0.150026
H7    H     H_    0.922350 0.642861 0.490901 0.150173
H8    H     H_    0.077650 0.357139 0.509098 0.150173
H9    H     H_    0.474184 0.081932 0.390087 0.155133
H10   H     H_    0.525816 0.918068 0.609913 0.155133
H11   H     H_    0.525816 0.081934 0.609913 0.154982
H12   H     H_    0.474184 0.918066 0.390087 0.154983
N1    N     N_R   0.430116 0.474417 0.034471 -0.158917
N2    N     N_R   0.569847 0.525585 0.965529 -0.158907
N3    N     N_R   0.430144 0.474417 0.965515 -0.158687
N4    N     N_R   0.569819 0.525585 0.034485 -0.158674
N5    N     N_1   0.500000 0.270550 0.500000 -0.085098
N6    N     N_1   0.500000 0.729450 0.500000 -0.085098
O1    O     O_R   0.378020 0.573650 0.500020 -0.607158
O2    O     O_R   0.621980 0.426350 0.499980 -0.607157
O3    O     O_R   0.621980 0.573650 0.499980 -0.606655
O4    O     O_R   0.378020 0.426350 0.500020 -0.606655
O5    O     O_R   0.499990 0.573690 0.398140 -0.616787
O6    O     O_R   0.500010 0.426310 0.601860 -0.616787
O7    O     O_R   0.500010 0.573690 0.601860 -0.616648
O8    O     O_R   0.499990 0.426310 0.398140 -0.616648
Zn1   Zn    Zn3+2 0.500000 0.598370 0.500000 0.994599
Zn2   Zn    Zn3+2 0.500000 0.401630 0.500000 0.994599
C37   C     C_2   0.496576 0.668563 0.143750 0.428845
H13   H     H_    0.491362 0.671346 0.087591 0.084085
O9    O     O_2   0.499766 0.738610 0.175647 -0.556223
C38   C     C_2   0.503374 0.331439 0.856250 0.428840
H14   H     H_    0.508574 0.328655 0.912409 0.084088
O10   O     O_2   0.500187 0.261391 0.824351 -0.556220
C39   C     C_2   0.496727 0.668566 0.856253 0.429091
H15   H     H_    0.491511 0.671351 0.912413 0.084076
O11   O     O_2   0.499945 0.738612 0.824355 -0.556167
C40   C     C_2   0.503257 0.331436 0.143747 0.429084
H16   H     H_    0.508452 0.328651 0.087585 0.084078
O12   O     O_2   0.500069 0.261388 0.175647 -0.556165

loop_
_geom_bond_atom_site_label_1
_geom_bond_atom_site_label_2
_ccdc_geom_bond_type
C16   C28   S    
C7    C10   A    
C4    C36   S    
C34   H6    S    
C3    C6    T    
C2    O3    A    
C7    C11   A    
C31   H7    S    
C1    C5    S    
C32   C36   A    
C20   H4    S    
N5    Zn2   S    
N6    Zn1   S    
C33   C36   A    
C34   C35   A    
C16   O6    A    
C23   C26   A    
O7    Zn1   S    
C21   C25   A    
C20   C24   A    
C8    C9    A    
N1    N3    A    
O1    Zn1   S    
N2    N4    A    
O2    Zn2   S    
O8    Zn2   S    
C9    H10   S    
C2    C6    S    
C10   C12   A    
O3    Zn1   S    
C29   N2    A    
O4    Zn2   S    
C40   H16   S    
C17   C27   A    
C23   C39   S    
C18   C28   A    
C24   C25   A    
C39   O11   D    
C38   H14   S    
C37   O9    D    
C17   C21   A    
C32   C34   A    
C19   C23   A    
C15   C27   S    
C3    C35   S    
C8    C12   A    
C10   H9    S    
C31   C33   A    
C32   H8    S    
C17   H1    S    
C19   C28   A    
C9    C11   A    
C22   C38   S    
C19   H3    S    
C30   N1    A    
C12   C14   S    
C31   C35   A    
C16   O7    A    
C40   O12   D    
C13   N6    T    
C29   N3    A    
C25   C30   S    
C30   N4    A    
C21   C37   S    
C18   C22   A    
C15   O5    A    
C4    C5    T    
C20   C27   A    
O5    Zn1   S    
O6    Zn2   S    
C33   H5    S    
C7    H12   S    
C1    O1    A    
C8    H11   S    
C39   H15   S    
C2    O2    A    
C1    O4    A    
C11   C13   S    
C24   C40   S    
C15   O8    A    
C18   H2    S    
C14   N5    T    
C26   C29   S    
C38   O10   D    
C37   H13   S    
C22   C26   A    
