data_mof_unit_49639.cif
_audit_creation_date              2012-10-26T19:42:13-0400
_audit_creation_method            fapswitch 2.2
_symmetry_space_group_name_H-M    P1
_symmetry_Int_Tables_number       1
_space_group_crystal_system       triclinic
_cell_length_a                    9.59417
_cell_length_b                    10.846805
_cell_length_c                    17.310052
_cell_angle_alpha                 93.264989
_cell_angle_beta                  86.896729
_cell_angle_gamma                 90.652062
_cell_volume                      1795.76594039

loop_
_atom_site_label
_atom_site_type_symbol
_atom_type_description
_atom_site_fract_x
_atom_site_fract_y
_atom_site_fract_z
_atom_type_partial_charge
C1    C     C_R   0.500419 0.736573 0.493206 0.564145
C2    C     C_R   0.523013 0.515830 0.266651 -0.004416
C3    C     C_R   0.248413 0.874714 0.451045 -0.083257
C4    C     C_R   0.482854 0.498379 0.649808 0.566208
C5    C     C_R   0.118914 0.931357 0.462815 -0.117504
C6    C     C_R   0.109339 0.047358 0.500726 -0.113327
C7    C     C_R   0.230458 0.111235 0.520356 -0.091894
C8    C     C_R   0.364406 0.059616 0.501845 0.029536
C9    C     C_R   0.370676 0.933251 0.478437 0.029978
C10   C     C_R   0.498179 0.870077 0.484966 -0.008310
C11   C     C_R   0.621819 0.937197 0.494688 -0.149705
C12   C     C_R   0.348893 0.474556 0.775618 -0.129726
C13   C     C_R   0.619485 0.064561 0.501716 -0.158748
C14   C     C_R   0.492297 0.127548 0.505770 -0.005190
C15   C     C_R   0.864443 0.333986 0.396928 -0.113816
C16   C     C_R   0.497905 0.262405 0.503776 0.533092
C17   C     C_R   0.940410 0.251487 0.347409 -0.183502
C18   C     C_R   0.085129 0.249841 0.347164 -0.035703
C19   C     C_R   0.152314 0.334450 0.396993 -0.097014
C20   C     C_R   0.078615 0.418623 0.449208 0.119522
C21   C     C_R   0.929214 0.418426 0.449302 0.131605
C22   C     C_R   0.924481 0.578402 0.548153 0.176475
C23   C     C_R   0.401405 0.544207 0.149457 0.004404
C24   C     C_R   0.071760 0.577673 0.547765 0.011704
C25   C     C_R   0.517098 0.502861 0.350322 0.524787
C26   C     C_R   0.476914 0.490727 0.734036 0.017964
C27   C     C_R   0.601334 0.495478 0.773303 -0.114032
C28   C     C_R   0.597850 0.486736 0.852939 -0.108019
C29   C     C_R   0.469879 0.472703 0.894460 0.038402
C30   C     C_R   0.345692 0.464545 0.855561 -0.110785
C31   C     C_R   0.166426 0.157501 0.296474 0.041205
C32   C     C_R   0.116289 0.035555 0.284890 -0.083240
C33   C     C_R   0.194848 0.947699 0.239690 -0.113332
C34   C     C_R   0.398664 0.529104 0.228919 -0.146123
C35   C     C_R   0.323759 0.980449 0.205075 -0.101213
C36   C     C_R   0.374131 0.101245 0.215331 -0.111388
C37   C     C_R   0.296206 0.189316 0.260648 -0.106430
C38   C     C_R   0.267562 0.561363 0.112752 0.022936
C39   C     C_R   0.162269 0.470640 0.117633 -0.113057
C40   C     C_R   0.040215 0.481959 0.078193 -0.123504
C41   C     C_R   0.021159 0.584890 0.034933 -0.113380
C42   C     C_R   0.124010 0.676931 0.031323 -0.110545
C43   C     C_R   0.246972 0.665351 0.069989 -0.086876
C44   C     C_R   0.651560 0.521173 0.224633 -0.137916
C45   C     C_R   0.655426 0.536025 0.145401 -0.133360
C46   C     C_R   0.531647 0.543647 0.106979 0.027727
C47   C     C_2   0.463929 0.468480 0.978675 -0.124885
C48   C     C_2   0.542828 0.544143 0.022261 -0.144838
Cu1   Cu    Cu3+1 0.359340 0.500010 0.500010 0.911051
Cu2   Cu    Cu3+1 0.640660 0.499990 0.499990 0.963300
H1    H     H_    0.701805 0.505698 0.742667 0.156502
H2    H     H_    0.884888 0.189184 0.308469 0.111689
H3    H     H_    0.298723 0.529057 0.261315 0.129479
H4    H     H_    0.262412 0.329097 0.394286 0.189366
H5    H     H_    0.125532 0.641106 0.586700 0.149153
H6    H     H_    0.748966 0.513240 0.252752 0.134926
H7    H     H_    0.620587 0.604331 0.995679 0.116277
H8    H     H_    0.246310 0.453190 0.887318 0.118832
H9    H     H_    0.251708 0.469226 0.746502 0.131338
H10   H     H_    0.387801 0.407070 0.005429 0.137427
H11   H     H_    0.695211 0.489958 0.881916 0.105008
H12   H     H_    0.755126 0.537802 0.113441 0.110445
H13   H     H_    0.017835 0.007207 0.312188 0.099187
H14   H     H_    0.156056 0.853934 0.231849 0.111611
H15   H     H_    0.384590 0.912248 0.170294 0.106884
H16   H     H_    0.473791 0.126770 0.188181 0.108227
H17   H     H_    0.337158 0.282337 0.267100 0.098989
H18   H     H_    0.176550 0.389539 0.150011 0.111275
H19   H     H_    0.960955 0.410307 0.080701 0.106515
H20   H     H_    0.926785 0.593299 0.004142 0.099561
H21   H     H_    0.109032 0.756695 0.997960 0.113407
H22   H     H_    0.326764 0.736432 0.065855 0.106876
H23   H     H_    0.721072 0.891364 0.497149 0.157735
H24   H     H_    0.251382 0.786073 0.419176 0.142971
H25   H     H_    0.025684 0.884090 0.443875 0.111628
H26   H     H_    0.008151 0.089223 0.513447 0.116761
H27   H     H_    0.215662 0.198371 0.552755 0.152358
H28   H     H_    0.718140 0.113611 0.505387 0.138621
H29   H     H_    0.754990 0.326876 0.391516 0.187243
I1    I     I_    0.828063 0.709881 0.628520 -0.409079
N1    N     N_R   0.852190 0.498790 0.499250 -0.234170
N2    N     N_R   0.148060 0.498710 0.499220 -0.269506
O1    O     O_R   0.381190 0.680360 0.500010 -0.511847
O2    O     O_R   0.618760 0.680340 0.500000 -0.469362
O3    O     O_R   0.367440 0.500030 0.613600 -0.507356
O4    O     O_R   0.605010 0.500010 0.613590 -0.471980
O5    O     O_R   0.381240 0.319660 0.500000 -0.537262
O6    O     O_R   0.618810 0.319640 0.499990 -0.525197
O7    O     O_R   0.394990 0.499990 0.386410 -0.537349
O8    O     O_R   0.632560 0.499970 0.386400 -0.526188

loop_
_geom_bond_atom_site_label_1
_geom_bond_atom_site_label_2
_ccdc_geom_bond_type
C43   H22   S    
C20   N2    A    
C41   C42   A    
Cu1   O5    S    
C35   C36   A    
Cu2   O2    S    
C48   H7    S    
C45   C46   A    
C24   H5    S    
C26   C27   A    
C29   C47   S    
C28   C29   A    
C5    C6    A    
C36   H16   S    
C4    O4    A    
C35   H15   S    
C37   H17   S    
C45   H12   S    
C18   C19   A    
C39   H18   S    
C3    H24   S    
C24   N2    A    
C47   H10   S    
C12   H9    S    
Cu2   O8    S    
C15   H29   S    
C19   C20   A    
C2    C44   A    
C8    C9    A    
C16   O5    A    
C9    C10   A    
Cu2   O6    S    
C7    H27   S    
C28   H11   S    
C2    C34   A    
C23   C46   A    
C13   C14   A    
C17   H2    S    
C27   H1    S    
C46   C48   S    
C40   H19   S    
C22   N1    A    
Cu1   O3    S    
C7    C8    A    
C11   H23   S    
C39   C40   A    
C4    O3    A    
C31   C37   A    
C12   C26   A    
C1    O2    A    
Cu1   N2    S    
C5    H25   S    
C29   C30   A    
C3    C9    A    
C44   H6    S    
C47   C48   D    
C23   C34   A    
C17   C18   A    
C25   O8    A    
C19   H4    S    
C40   C41   A    
C21   N1    A    
C14   C16   S    
C42   C43   A    
C44   C45   A    
C15   C17   A    
C13   H28   S    
C36   C37   A    
C8    C14   A    
C12   C30   A    
C31   C32   A    
C1    C10   S    
C32   H13   S    
Cu1   O7    S    
C3    C5    A    
C4    C26   S    
C6    H26   S    
C6    C7    A    
C1    O1    A    
C23   C38   S    
C25   O7    A    
C32   C33   A    
Cu1   O1    S    
C22   I1    S    
C38   C43   A    
C11   C13   A    
C38   C39   A    
C33   H14   S    
C30   H8    S    
C42   H21   S    
C33   C35   A    
C2    C25   S    
C22   C24   A    
C10   C11   A    
Cu2   O4    S    
C15   C21   A    
C20   C21   A    
C34   H3    S    
Cu1   Cu2   S    
C27   C28   A    
C16   O6    A    
C18   C31   S    
Cu2   N1    S    
C41   H20   S    
