data_mof_unit_24886.cif
_audit_creation_date              2012-10-26T19:03:02-0400
_audit_creation_method            fapswitch 2.2
_symmetry_space_group_name_H-M    P1
_symmetry_Int_Tables_number       1
_space_group_crystal_system       triclinic
_cell_length_a                    14.990345
_cell_length_b                    10.929492
_cell_length_c                    9.820054
_cell_angle_alpha                 111.657755
_cell_angle_beta                  97.79459
_cell_angle_gamma                 90.516455
_cell_volume                      1478.44056697

loop_
_atom_site_label
_atom_site_type_symbol
_atom_type_description
_atom_site_fract_x
_atom_site_fract_y
_atom_site_fract_z
_atom_type_partial_charge
C1    C     C_R   0.493089 0.252670 0.439671 0.561416
C2    C     C_2   0.492346 0.489412 0.918686 -0.001025
C3    C     C_R   0.329048 0.502110 0.502444 0.579504
C4    C     C_R   0.670957 0.496834 0.497520 0.564974
C5    C     C_R   0.820487 0.605313 0.588665 -0.134721
C6    C     C_R   0.184103 0.381652 0.459225 -0.134903
C7    C     C_R   0.767731 0.492889 0.496111 -0.032210
C8    C     C_R   0.232812 0.502520 0.508783 -0.031847
C9    C     C_R   0.807611 0.377059 0.417391 0.037805
C10   C     C_R   0.190627 0.620791 0.567496 0.032328
C11   C     C_R   0.902423 0.370569 0.448368 0.004463
C12   C     C_R   0.511470 0.747137 0.560320 0.561292
C13   C     C_R   0.101291 0.616239 0.597926 0.006053
C14   C     C_R   0.955646 0.490544 0.528683 0.004780
C15   C     C_R   0.049520 0.493593 0.532221 0.004987
C16   C     C_R   0.914556 0.608194 0.602216 -0.013806
C17   C     C_R   0.091369 0.374890 0.465138 -0.013135
C18   C     C_R   0.945791 0.248971 0.408561 0.020114
C19   C     C_R   0.062687 0.728510 0.694384 0.017668
C20   C     C_2   0.751633 0.271738 0.292329 0.559917
C21   C     C_2   0.233068 0.743699 0.567507 0.555659
C22   C     C_3   0.895449 0.119465 0.390609 -0.246257
C23   C     C_R   0.040412 0.252147 0.409112 0.076828
C24   C     C_3   0.854263 0.131298 0.528971 -0.411625
C25   C     C_3   0.121994 0.842880 0.815597 -0.245166
C26   C     C_3   0.185085 0.795568 0.919487 -0.427038
C27   C     C_2   0.085376 0.126612 0.349199 0.556009
C28   C     C_2   0.924785 0.845268 0.778241 0.555548
C29   C     C_2   0.534662 0.981799 0.754924 0.569704
C30   C     C_2   0.429945 0.019567 0.270177 0.566416
C31   C     C_R   0.967953 0.725282 0.690795 0.075633
C32   C     C_2   0.489956 0.109969 0.405095 0.032837
C33   C     C_2   0.528738 0.889320 0.597126 0.026870
C34   C     C_2   0.539161 0.068218 0.502876 -0.145332
C35   C     C_2   0.539432 0.929693 0.486095 -0.137288
C36   C     C_2   0.507624 0.510651 0.081349 -0.001790
Cu1   Cu    Cu3+1 0.515770 0.521810 0.644910 1.026826
Cu2   Cu    Cu3+1 0.484230 0.478190 0.355090 1.029999
H1    H     H_    0.786160 0.692142 0.645428 0.156495
H2    H     H_    0.339311 0.875573 0.636064 0.361411
H3    H     H_    0.907306 0.165284 0.627971 0.189542
H4    H     H_    0.799993 0.201199 0.547620 0.178228
H5    H     H_    0.824537 0.033398 0.515801 0.177918
H6    H     H_    0.843818 0.083462 0.290750 0.205334
H7    H     H_    0.940498 0.037124 0.373897 0.195169
H8    H     H_    0.145633 0.739207 0.967441 0.163218
H9    H     H_    0.236345 0.732615 0.861435 0.188649
H10   H     H_    0.221099 0.882408 0.011310 0.179373
H11   H     H_    0.160464 0.900757 0.769098 0.207296
H12   H     H_    0.219544 0.293671 0.411332 0.158875
H13   H     H_    0.081917 0.916887 0.888277 0.200214
H14   H     H_    0.090848 0.956154 0.176593 0.346733
H15   H     H_    0.902544 0.036082 0.817497 0.359471
H16   H     H_    0.596658 0.142122 0.922891 0.362864
H17   H     H_    0.351106 0.850412 0.171109 0.343241
H18   H     H_    0.539000 0.857677 0.374568 0.170917
H19   H     H_    0.580881 0.139557 0.598607 0.202540
H20   H     H_    0.439928 0.416815 0.845648 0.155085
H21   H     H_    0.559991 0.583323 0.154423 0.146369
H22   H     H_    0.588740 0.623014 0.934558 0.220145
H23   H     H_    0.411344 0.376859 0.065401 0.225230
H24   H     H_    0.642896 0.142467 0.221588 0.350354
N1    N     N_2   0.460520 0.445420 0.137370 -0.341043
N2    N     N_2   0.539480 0.554580 0.862630 -0.339201
O1    O     O_R   0.508410 0.332340 0.577400 -0.514558
O2    O     O_R   0.674869 0.213330 0.315652 -0.712636
O3    O     O_2   0.191321 0.805344 0.500789 -0.467267
O4    O     O_R   0.319669 0.789630 0.643601 -0.663063
O5    O     O_2   0.145065 0.097997 0.428205 -0.481551
O6    O     O_R   0.057054 0.039711 0.203527 -0.680384
O7    O     O_2   0.882682 0.843312 0.875823 -0.489847
O8    O     O_R   0.934209 0.960843 0.750362 -0.702004
O9    O     O_2   0.485439 0.961025 0.834726 -0.450269
O10   O     O_R   0.599164 0.088244 0.814571 -0.698784
O11   O     O_2   0.414403 0.048369 0.160571 -0.464335
O12   O     O_R   0.491590 0.667660 0.422600 -0.501693
O13   O     O_R   0.388819 0.903952 0.269680 -0.684323
O14   O     O_R   0.481780 0.295500 0.332650 -0.439311
O15   O     O_R   0.518220 0.704500 0.667350 -0.439307
O16   O     O_R   0.383570 0.518390 0.622380 -0.479097
O17   O     O_R   0.616430 0.481610 0.377620 -0.484809
O18   O     O_R   0.356940 0.481550 0.377630 -0.480909
O19   O     O_R   0.643060 0.518450 0.622370 -0.491468
O20   O     O_2   0.773345 0.235774 0.168493 -0.490307

loop_
_geom_bond_atom_site_label_1
_geom_bond_atom_site_label_2
_ccdc_geom_bond_type
C11   C18   A    
C1    O14   A    
C24   H4    S    
C36   H21   S    
C19   C31   A    
Cu2   O12   S    
C16   C31   A    
Cu1   O15   S    
C17   C23   A    
C20   O2    S    
H17   O13   S    
C11   C14   A    
C29   O9    D    
C12   O15   A    
C29   C33   S    
C7    C9    A    
C34   C35   S    
H23   N1    S    
C5    C16   A    
H16   O10   S    
C30   O13   S    
C22   H6    S    
C4    O17   A    
Cu1   O1    S    
C34   H19   S    
C1    O1    A    
C23   C27   S    
C36   N1    D    
C27   O5    D    
C26   H10   S    
Cu2   O18   S    
C24   H3    S    
C28   O8    S    
C4    C7    S    
C3    O16   A    
C2    N2    D    
C10   C21   S    
Cu1   O16   S    
H24   O2    S    
C18   C23   A    
C3    C8    S    
C5    C7    A    
C13   C19   A    
C6    C8    A    
C29   O10   S    
Cu2   O14   S    
C25   C26   S    
C1    C32   S    
C32   C34   D    
C25   H13   S    
Cu1   Cu2   S    
C9    C20   S    
C3    O18   A    
C6    H12   S    
C9    C11   A    
C27   O6    S    
C26   H9    S    
C13   C15   A    
Cu2   O17   S    
C22   C24   S    
C28   O7    D    
C6    C17   A    
C12   O12   A    
Cu1   N2    S    
Cu2   N1    S    
C2    C36   S    
C15   C17   A    
C5    H1    S    
C35   H18   S    
C18   C22   S    
C28   C31   S    
C10   C13   A    
C2    H20   S    
H22   N2    S    
C20   O20   D    
C21   O4    S    
C30   C32   S    
C30   O11   D    
C4    O19   A    
C33   C35   D    
C14   C16   A    
C19   C25   S    
C25   H11   S    
H14   O6    S    
C26   H8    S    
C22   H7    S    
C8    C10   A    
H2    O4    S    
C24   H5    S    
C14   C15   A    
Cu1   O19   S    
C12   C33   S    
H15   O8    S    
C21   O3    D    
