data_mof_unit_34825.cif
_audit_creation_date              2012-12-10T18:13:48-0500
_audit_creation_method            fapswitch 2.2
_symmetry_space_group_name_H-M    P1
_symmetry_Int_Tables_number       1
_space_group_crystal_system       triclinic
_cell_length_a                    10.728047
_cell_length_b                    9.409282
_cell_length_c                    23.504704
_cell_angle_alpha                 90.24346
_cell_angle_beta                  89.97974
_cell_angle_gamma                 89.998485
_cell_volume                      2372.61892706

loop_
_atom_site_label
_atom_site_type_symbol
_atom_type_description
_atom_site_fract_x
_atom_site_fract_y
_atom_site_fract_z
_atom_type_partial_charge
C1    C     C_R   0.259640 0.499789 0.499923 0.761199
C2    C     C_R   0.299003 0.375326 0.970918 -0.156255
C3    C     C_R   0.299021 0.375975 0.030288 -0.152881
C4    C     C_R   0.395346 0.443439 0.060553 -0.017771
C5    C     C_R   0.491955 0.511517 0.030554 -0.014011
C6    C     C_R   0.588747 0.580036 0.060458 -0.014705
C7    C     C_R   0.684612 0.647607 0.030141 -0.147668
C8    C     C_R   0.684941 0.646229 0.970792 -0.157502
C9    C     C_R   0.398551 0.443414 0.120230 0.592398
C10   C     C_R   0.587556 0.577971 0.120109 0.555801
C11   C     C_R   0.583112 0.411010 0.237443 -0.005250
C12   C     C_R   0.503293 0.499640 0.391113 0.849215
C13   C     C_R   0.587257 0.409687 0.297547 0.061634
C14   C     C_R   0.505871 0.499263 0.328738 -0.092192
C15   C     C_R   0.424534 0.590728 0.300104 -0.249717
C16   C     C_R   0.420432 0.591618 0.241076 -0.090097
C17   C     C_R   0.498413 0.502243 0.209560 0.249976
C18   C     C_R   0.483121 0.631838 0.760948 -0.100151
C19   C     C_R   0.485168 0.630451 0.701668 -0.226941
C20   C     C_R   0.498031 0.501517 0.671802 -0.043426
C21   C     C_R   0.508904 0.374067 0.702384 -0.229611
C22   C     C_R   0.507317 0.375791 0.761726 -0.099351
C23   C     C_R   0.740128 0.499785 0.499885 0.780966
C24   C     C_R   0.494403 0.504657 0.791251 0.353505
C25   C     C_3   0.071750 0.576077 0.553670 -0.374239
C26   C     C_3   0.071246 0.344171 0.499601 -0.371473
C27   C     C_3   0.927872 0.575977 0.553677 -0.379771
C28   C     C_3   0.928564 0.344180 0.499538 -0.372844
C29   C     C_3   0.071907 0.575957 0.446261 -0.377804
C30   C     C_3   0.121703 0.499032 0.499860 0.153363
C31   C     C_3   0.878068 0.499035 0.499835 0.146107
C32   C     C_3   0.928010 0.576159 0.446295 -0.360516
C33   C     C_3   0.628302 0.083693 0.505320 -0.188107
C34   C     C_3   0.628302 0.916349 0.505421 -0.186860
C35   C     C_3   0.428117 0.084317 0.549857 -0.185976
C36   C     C_3   0.427882 0.916643 0.549774 -0.186705
C37   C     C_3   0.443339 0.083135 0.448705 -0.177751
C38   C     C_3   0.443820 0.915802 0.448589 -0.185798
C39   C     C_R   0.499549 0.500329 0.609148 0.801423
C40   C     C_R   0.588248 0.573732 0.880865 0.534785
C41   C     C_R   0.397856 0.441774 0.880880 0.534312
C42   C     C_R   0.395435 0.441898 0.940576 -0.013816
C43   C     C_R   0.492091 0.510529 0.970504 -0.015465
C44   C     C_R   0.589190 0.577648 0.940531 -0.014322
Cu1   Cu    Cu3+1 0.499860 0.642410 0.500030 0.899980
Cu2   Cu    Cu3+1 0.499860 0.357590 0.500030 0.910072
H1    H     H_    0.223499 0.322028 0.948921 0.190661
H2    H     H_    0.476140 0.730273 0.679330 0.143217
H3    H     H_    0.519251 0.273201 0.680552 0.144042
H4    H     H_    0.516681 0.277052 0.784835 0.144597
H5    H     H_    0.106018 0.687716 0.554955 0.162367
H6    H     H_    0.105508 0.286024 0.461299 0.171532
H7    H     H_    0.106606 0.522218 0.592624 0.157934
H8    H     H_    0.105249 0.286131 0.537765 0.161124
H9    H     H_    0.893032 0.521940 0.592604 0.158900
H10   H     H_    0.894341 0.285974 0.537629 0.158518
H11   H     H_    0.893483 0.687570 0.555021 0.162648
H12   H     H_    0.894595 0.286177 0.461182 0.189027
H13   H     H_    0.106356 0.687518 0.445260 0.164202
H14   H     H_    0.106697 0.521847 0.407154 0.166621
H15   H     H_    0.893795 0.687819 0.445439 0.165096
H16   H     H_    0.893135 0.522491 0.407141 0.190114
H17   H     H_    0.674383 0.123427 0.544694 0.135470
H18   H     H_    0.674132 0.877702 0.544902 0.138115
H19   H     H_    0.223621 0.323042 0.052346 0.191626
H20   H     H_    0.685549 0.121310 0.468921 0.165994
H21   H     H_    0.685790 0.877660 0.469118 0.150251
H22   H     H_    0.468405 0.121804 0.590773 0.141375
H23   H     H_    0.467773 0.879527 0.590686 0.139783
H24   H     H_    0.346153 0.122629 0.444022 0.139276
H25   H     H_    0.346959 0.875490 0.443510 0.137647
H26   H     H_    0.495237 0.120071 0.410665 0.179551
H27   H     H_    0.496722 0.878876 0.410650 0.163343
H28   H     H_    0.330537 0.124086 0.548611 0.137649
H29   H     H_    0.330205 0.877199 0.548310 0.137590
H30   H     H_    0.760038 0.701044 0.052143 0.193841
H31   H     H_    0.760553 0.698804 0.948749 0.190904
H32   H     H_    0.362424 0.660281 0.323636 0.152103
H33   H     H_    0.356654 0.662572 0.219556 0.158908
H34   H     H_    0.472594 0.731824 0.783426 0.144016
N1    N     N_R   0.493502 0.506622 0.852333 -0.468891
N2    N     N_R   0.494326 0.508752 0.148582 -0.461986
N3    N     N_3   0.500250 0.143650 0.501250 -0.118117
N4    N     N_3   0.500250 0.856350 0.501250 -0.117358
O1    O     O_R   0.317570 0.620260 0.500030 -0.596793
O2    O     O_R   0.317570 0.379740 0.500030 -0.596171
O3    O     O_R   0.499840 0.620290 0.417900 -0.591373
O4    O     O_R   0.499840 0.379710 0.417900 -0.567151
O5    O     O_R   0.682190 0.620260 0.500010 -0.598182
O6    O     O_R   0.682190 0.379740 0.500010 -0.588993
O7    O     O_R   0.499920 0.620230 0.582140 -0.590208
O8    O     O_R   0.499920 0.379770 0.582140 -0.591543
O9    O     O_2   0.681856 0.635281 0.851558 -0.539019
O10   O     O_2   0.304955 0.378367 0.851564 -0.539486
O11   O     O_2   0.307727 0.377281 0.149736 -0.518475
O12   O     O_2   0.678982 0.643857 0.149523 -0.513369
C45   C     C_2   0.666389 0.318396 0.203259 0.905601
O13   O     O_2   0.622592 0.241738 0.166184 -0.580216
O14   O     O_R   0.795159 0.321877 0.212178 -0.703532
H35   H     H_    0.841933 0.255018 0.185819 0.348598
I1    I     I_    0.717458 0.274906 0.340726 -0.397135

loop_
_geom_bond_atom_site_label_1
_geom_bond_atom_site_label_2
_ccdc_geom_bond_type
C35   H28   S    
C41   C42   A    
C19   C20   A    
C40   O9    S    
C24   N1    S    
C21   H3    S    
C45   O13   D    
C28   H10   S    
C7    C8    A    
C31   C32   S    
Cu1   Cu2   S    
C29   C30   S    
C18   C24   A    
Cu1   O3    S    
C25   H7    S    
C32   H15   S    
C18   C19   A    
C29   C32   S    
C5    C6    A    
C27   H9    S    
C15   H32   S    
Cu2   O8    S    
C15   C16   A    
C25   C30   S    
C17   N2    S    
O14   H35   S    
C16   C17   A    
C23   O5    A    
C13   C14   A    
Cu1   O5    S    
C9    O11   S    
C9    N2    A    
C22   H4    S    
C5    C43   A    
C21   C22   A    
C3    H19   S    
C34   N4    S    
C26   H8    S    
C39   O7    A    
C45   O14   S    
C33   H20   S    
Cu2   O4    S    
C1    O1    A    
C12   O4    A    
C27   C31   S    
C29   H13   S    
C27   H11   S    
C20   C39   S    
C35   N3    S    
C19   H2    S    
C10   N2    A    
C35   C36   S    
C23   C31   S    
Cu1   O1    S    
C43   C44   A    
C25   H5    S    
C37   C38   S    
C36   H29   S    
C26   H6    S    
C2    C42   A    
C41   O10   S    
C29   H14   S    
C10   O12   S    
C33   H17   S    
C41   N1    A    
C34   H18   S    
C33   C34   S    
C23   O6    A    
C33   N3    S    
C7    H30   S    
C12   C14   S    
C26   C30   S    
C8    H31   S    
C22   C24   A    
Cu1   N4    S    
C42   C43   A    
C13   I1    S    
C3    C4    A    
C39   O8    A    
C36   H23   S    
C1    O2    A    
C38   H25   S    
C11   C17   A    
C12   O3    A    
C38   N4    S    
C40   N1    A    
C28   C31   S    
C8    C44   A    
C4    C5    A    
C34   H21   S    
C6    C10   A    
C6    C7    A    
Cu2   O6    S    
C28   H12   S    
C2    H1    S    
C25   C27   S    
C26   C28   S    
C11   C45   S    
C16   H33   S    
C2    C3    A    
C32   H16   S    
C11   C13   A    
C35   H22   S    
C36   N4    S    
C1    C30   S    
Cu1   O7    S    
Cu2   N3    S    
C40   C44   A    
C20   C21   A    
C18   H34   S    
C37   H26   S    
C14   C15   A    
C37   N3    S    
C4    C9    A    
C37   H24   S    
Cu2   O2    S    
C38   H27   S    
