data_mof_unit_44966.cif
_audit_creation_date              2012-12-10T20:49:27-0500
_audit_creation_method            fapswitch 2.2
_symmetry_space_group_name_H-M    P1
_symmetry_Int_Tables_number       1
_space_group_crystal_system       triclinic
_cell_length_a                    15.785114
_cell_length_b                    8.930499
_cell_length_c                    8.115638
_cell_angle_alpha                 90.098472
_cell_angle_beta                  91.254589
_cell_angle_gamma                 90.268
_cell_volume                      1143.76425923

loop_
_atom_site_label
_atom_site_type_symbol
_atom_type_description
_atom_site_fract_x
_atom_site_fract_y
_atom_site_fract_z
_atom_type_partial_charge
C1    C     C_1   0.500014 0.065201 0.499872 -0.188015
C2    C     C_3   0.976863 0.612833 0.587411 0.161207
C3    C     C_1   0.249061 0.495266 0.493038 -0.170929
C4    C     C_1   0.750951 0.501806 0.506592 -0.168426
C5    C     C_3   0.032943 0.483909 0.651081 -0.089164
C6    C     C_3   0.966737 0.507192 0.342839 -0.057638
C7    C     C_3   0.083570 0.492465 0.490663 -0.039716
C8    C     C_3   0.916386 0.498209 0.504812 -0.022374
C9    C     C_1   0.174109 0.492600 0.489459 -0.007826
C10   C     C_1   0.825910 0.501343 0.508732 -0.001893
C11   C     C_3   0.998810 0.188779 0.188533 -0.741056
C12   C     C_1   0.500031 0.934800 0.500129 -0.188370
C13   C     C_3   0.010069 0.835727 0.756475 -0.798332
C14   C     C_3   0.888542 0.135530 0.561886 -0.772417
C15   C     C_3   0.096103 0.749125 0.198598 -0.763234
C16   C     C_1   0.925661 0.522545 0.179499 0.199843
C17   C     C_1   0.072858 0.468076 0.815213 0.180569
C18   C     C_R   0.499987 0.218020 0.499910 0.932450
C19   C     C_R   0.500037 0.781980 0.500091 0.930933
C20   C     C_R   0.337572 0.499031 0.498090 0.895859
C21   C     C_R   0.662428 0.500908 0.501886 0.895986
C22   C     C_3   0.972952 0.369102 0.567017 0.148019
C23   C     C_3   0.027074 0.621782 0.427641 0.158359
C24   C     C_3   0.023350 0.377288 0.407244 0.164202
H1    H     H_    0.081337 0.169001 0.392346 0.223595
H2    H     H_    0.852825 0.066188 0.650205 0.245130
H3    H     H_    0.926597 0.059665 0.484752 0.240517
H4    H     H_    0.842124 0.197102 0.483321 0.249214
H5    H     H_    0.098558 0.816872 0.441765 0.229237
H6    H     H_    0.122625 0.859478 0.162962 0.228096
H7    H     H_    0.046986 0.717801 0.105295 0.264739
H8    H     H_    0.148054 0.665738 0.199394 0.261082
H9    H     H_    0.021454 0.076725 0.150434 0.233008
H10   H     H_    0.999475 0.262333 0.078975 0.261452
H11   H     H_    0.932797 0.178222 0.231006 0.237943
H12   H     H_    0.896310 0.792438 0.630381 0.231397
H13   H     H_    0.981933 0.900064 0.858672 0.248262
H14   H     H_    0.032233 0.916330 0.662980 0.224644
H15   H     H_    0.065006 0.772266 0.806648 0.251174
H16   H     H_    0.990797 0.183484 0.719594 0.220995
N1    N     N_1   0.500010 0.500000 0.073640 -0.027823
N2    N     N_1   0.499990 0.500000 0.926360 -0.027722
N3    N     N_2   0.054233 0.249119 0.316871 -0.285101
N4    N     N_2   0.946468 0.736637 0.685131 -0.275353
N5    N     N_2   0.943676 0.237033 0.652853 -0.287102
N6    N     N_2   0.059343 0.760349 0.359609 -0.306479
N7    N     N_1   0.893176 0.534692 0.051032 -0.179324
N8    N     N_1   0.105248 0.455520 0.943623 -0.208489
O1    O     O_R   0.500000 0.285340 0.636850 -0.615028
O2    O     O_R   0.500000 0.714660 0.363150 -0.615632
O3    O     O_R   0.500000 0.285340 0.363150 -0.615259
O4    O     O_R   0.500000 0.714660 0.636850 -0.615875
O5    O     O_R   0.376770 0.500000 0.636850 -0.613403
O6    O     O_R   0.623230 0.500000 0.363150 -0.613930
O7    O     O_R   0.376780 0.500000 0.363100 -0.614212
O8    O     O_R   0.623220 0.500000 0.636900 -0.609910
Zn1   Zn    Zn3+2 0.499990 0.500000 0.682780 1.001918
Zn2   Zn    Zn3+2 0.500010 0.500000 0.317220 1.000204

loop_
_geom_bond_atom_site_label_1
_geom_bond_atom_site_label_2
_ccdc_geom_bond_type
N1    Zn2   S    
C21   O8    A    
C8    C22   S    
C15   H7    S    
C3    C9    T    
C14   H3    S    
N1    N2    T    
C13   H13   S    
C17   N8    T    
H5    N6    S    
C6    C24   S    
H1    N3    S    
C11   H11   S    
C13   H14   S    
O1    Zn1   S    
C3    C20   S    
C23   N6    S    
C14   H2    S    
C11   N3    S    
C4    C21   S    
C19   O2    A    
C1    C18   S    
H16   N5    S    
C1    C12   T    
C20   O7    A    
C7    C23   S    
C6    C23   S    
N2    Zn1   S    
C12   C19   S    
C18   O3    A    
C14   N5    S    
C5    C7    S    
C11   H10   S    
C21   O6    A    
C22   C24   S    
C13   H15   S    
C2    C5    S    
H12   N4    S    
O4    Zn1   S    
C6    C16   S    
C7    C24   S    
O2    Zn2   S    
C11   H9    S    
C22   N5    S    
C5    C17   S    
O8    Zn1   S    
C16   N7    T    
C15   H6    S    
C8    C10   S    
O6    Zn2   S    
O7    Zn2   S    
O3    Zn2   S    
C2    C23   S    
C7    C9    S    
C24   N3    S    
O5    Zn1   S    
C6    C8    S    
C15   N6    S    
C14   H4    S    
C4    C10   T    
C19   O4    A    
C13   N4    S    
C2    C8    S    
C5    C22   S    
C18   O1    A    
C2    N4    S    
C20   O5    A    
C15   H8    S    
