data_mof_unit_47539.cif
_audit_creation_date              2013-03-05T15:50:55-0500
_audit_creation_method            fapswitch 2.2
_symmetry_space_group_name_H-M    P1
_symmetry_Int_Tables_number       1
_space_group_crystal_system       triclinic
_cell_length_a                    12.076993
_cell_length_b                    13.000304
_cell_length_c                    15.796194
_cell_angle_alpha                 92.594237
_cell_angle_beta                  85.702552
_cell_angle_gamma                 93.354887
_cell_volume                      2466.78131049

loop_
_atom_site_label
_atom_site_type_symbol
_atom_site_description
_atom_site_fract_x
_atom_site_fract_y
_atom_site_fract_z
_atom_type_partial_charge
O1    O     O_R   0.421690 0.658830 0.504140 -0.562379
O2    O     O_R   0.609320 0.646410 0.494190 -0.601456
C1    C     C_R   0.521418 0.700568 0.496357 0.967060
O3    O     O_R   0.406150 0.506210 0.627840 -0.580217
O4    O     O_R   0.593770 0.493790 0.617880 -0.636337
C2    C     C_R   0.498367 0.497859 0.661672 0.905897
Zn1   Zn    Zn3+2 0.374720 0.508290 0.506640 1.090937
Zn2   Zn    Zn3+2 0.625280 0.491710 0.493360 0.998700
O5    O     O_R   0.390680 0.353590 0.505810 -0.591549
O6    O     O_R   0.578310 0.341170 0.495860 -0.650544
O7    O     O_R   0.406230 0.506210 0.382120 -0.579124
O8    O     O_R   0.593850 0.493790 0.372160 -0.588200
C3    C     C_R   0.477760 0.300225 0.502121 0.886320
C4    C     C_R   0.500436 0.498456 0.338577 0.928728
C5    C     C_3   0.362981 0.506714 0.966761 0.242736
C6    C     C_3   0.568237 0.580410 0.948851 0.061274
C7    C     C_3   0.562200 0.587666 0.048197 0.042043
H1    H     H_    0.336182 0.548713 0.105654 0.253031
H2    H     H_    0.651992 0.559043 0.925436 0.148606
H3    H     H_    0.508276 0.651106 0.071406 0.203714
C8    C     C_1   0.501867 0.493290 0.250001 0.012084
C9    C     C_3   0.483959 0.489960 0.918201 -0.062366
C10   C     C_3   0.377176 0.489452 0.063477 -0.530235
C11   C     C_3   0.502028 0.486570 0.083301 -0.139960
C12   C     C_3   0.556851 0.387159 0.039966 0.481294
C13   C     C_3   0.530493 0.384453 0.943005 -0.379905
C14   C     C_1   0.503595 0.489089 0.174829 0.169094
C15   C     C_1   0.482626 0.489341 0.826206 0.077036
C16   C     C_1   0.491075 0.492035 0.750678 -0.085219
H4    H     H_    0.456642 0.333774 0.939517 0.140916
H5    H     H_    0.331298 0.418588 0.085389 0.241273
C17   C     C_R   0.461826 0.189647 0.503485 -0.111292
C18   C     C_R   0.531022 0.812131 0.485560 -0.318933
C19   C     C_R   0.627985 0.966781 0.430514 -0.093297
C20   C     C_R   0.620134 0.858740 0.435105 0.214061
C21   C     C_R   0.443650 0.871380 0.521496 0.228032
C22   C     C_R   0.443084 0.976126 0.506741 -0.061056
C23   C     C_R   0.539818 0.025034 0.467142 0.003997
C24   C     C_R   0.546409 0.131904 0.464950 -0.216785
C25   C     C_R   0.362779 0.141698 0.538973 -0.138157
C26   C     C_R   0.350605 0.034718 0.535498 0.314615
H6    H     H_    0.618750 0.171810 0.434396 0.172755
N1    N     N_R   0.207800 0.519340 0.515510 -0.206859
N2    N     N_R   0.792190 0.480660 0.484490 -0.121839
C27   C     C_R   0.955934 0.417566 0.407458 -0.218957
C28   C     C_R   0.839695 0.420588 0.420426 0.018938
C29   C     C_R   0.857693 0.537914 0.538582 0.123384
C30   C     C_R   0.974918 0.530953 0.531177 -0.055168
C31   C     C_R   0.025429 0.473815 0.462974 -0.020781
C32   C     C_R   0.143915 0.473326 0.453736 0.344491
C33   C     C_R   0.155935 0.563940 0.587252 0.432473
C34   C     C_R   0.042131 0.576954 0.592195 -0.321004
H7    H     H_    0.990330 0.369914 0.355166 0.192325
H8    H     H_    0.006862 0.617249 0.648224 0.205121
H9    H     H_    0.787258 0.376603 0.377684 0.156190
C35   C     C_R   0.260861 0.434411 0.939126 0.024433
C36   C     C_R   0.248288 0.327322 0.956039 -0.211797
C37   C     C_R   0.153647 0.266647 0.935934 -0.082339
C38   C     C_R   0.065203 0.310725 0.902642 -0.110525
C39   C     C_R   0.070465 0.416065 0.890679 -0.112999
C40   C     C_R   0.165667 0.476966 0.909105 0.025357
H10   H     H_    0.305412 0.288810 0.991046 0.175676
H11   H     H_    0.147443 0.185428 0.949115 0.173664
H12   H     H_    0.991470 0.263788 0.888142 0.167792
H13   H     H_    0.000119 0.451148 0.867348 0.169817
H14   H     H_    0.160108 0.558337 0.901663 0.225410
N3    N     N_R   0.677141 0.394378 0.053580 0.235428
O9    O     O_R   0.753083 0.419212 0.994283 -0.389326
O10   O     O_R   0.708904 0.378792 0.128706 -0.332218
C41   C     C_R   0.273662 0.201450 0.584175 0.185985
C42   C     C_R   0.170265 0.207315 0.549849 0.007677
C43   C     C_R   0.087560 0.264590 0.592905 -0.206564
C44   C     C_R   0.108083 0.316959 0.669805 -0.105357
C45   C     C_R   0.211263 0.312026 0.703686 -0.063076
C46   C     C_R   0.293422 0.253832 0.661617 -0.140072
H15   H     H_    0.154248 0.168067 0.489746 0.163539
H16   H     H_    0.007997 0.269115 0.566358 0.131043
H17   H     H_    0.044475 0.362144 0.702635 0.144234
H18   H     H_    0.228589 0.353796 0.762173 0.172516
H19   H     H_    0.372943 0.250663 0.688658 0.108639
C47   C     C_R   0.725845 0.018634 0.384657 0.144694
C48   C     C_R   0.813994 0.061944 0.430094 -0.118213
C49   C     C_R   0.903289 0.116270 0.387736 -0.115275
C50   C     C_R   0.905123 0.127419 0.300003 -0.097872
C51   C     C_R   0.817680 0.084162 0.254453 -0.073431
C52   C     C_R   0.728039 0.029977 0.296600 -0.055639
H20   H     H_    0.812658 0.054658 0.498232 0.130783
H21   H     H_    0.970652 0.150317 0.422948 0.141498
H22   H     H_    0.974119 0.169840 0.267381 0.168658
H23   H     H_    0.819020 0.093212 0.186581 0.179295
H24   H     H_    0.659983 0.997851 0.261026 0.173718
N4    N     N_R   0.242070 0.987341 0.555625 0.228043
O11   O     O_R   0.196832 0.993702 0.632989 -0.328702
O12   O     O_R   0.181007 0.955559 0.494137 -0.345452
N5    N     N_R   0.696554 0.796552 0.383781 0.217030
O13   O     O_R   0.658183 0.721870 0.334725 -0.328998
O14   O     O_R   0.802654 0.821638 0.377298 -0.363025
N6    N     N_R   0.361378 0.827523 0.581086 0.247363
O15   O     O_R   0.269144 0.785891 0.553957 -0.288430
O16   O     O_R   0.367099 0.851751 0.661568 -0.290311
N7    N     N_R   0.196450 0.422682 0.380555 0.214851
O17   O     O_R   0.188318 0.458181 0.305704 -0.367795
O18   O     O_R   0.235858 0.332636 0.386640 -0.398455
N8    N     N_R   0.335961 0.615354 0.955032 0.212281
O19   O     O_R   0.333761 0.648725 0.878627 -0.274895
O20   O     O_R   0.303996 0.676671 0.018523 -0.344473
N9    N     N_R   0.210919 0.583609 0.663999 0.231593
O21   O     O_R   0.288850 0.655829 0.669225 -0.232913
O22   O     O_R   0.163699 0.548585 0.734304 -0.468611
C53   C     C_R   0.808797 0.613836 0.600742 0.141576
C54   C     C_R   0.803194 0.716106 0.577443 -0.080020
C55   C     C_R   0.777801 0.793753 0.638678 -0.167654
C56   C     C_R   0.764129 0.770633 0.724421 0.000597
C57   C     C_R   0.774283 0.669657 0.748539 -0.056605
C58   C     C_R   0.794428 0.591294 0.686904 -0.205601
H25   H     H_    0.821894 0.735798 0.512177 0.201824
H26   H     H_    0.772460 0.872279 0.619918 0.145141
H27   H     H_    0.747628 0.831158 0.772247 0.167896
H28   H     H_    0.768246 0.652348 0.815088 0.166803
H29   H     H_    0.806224 0.514526 0.706170 0.121357
N10   N     N_R   0.553927 0.682454 0.914000 0.252092
O23   O     O_R   0.555657 0.692845 0.832465 -0.364133
O24   O     O_R   0.557555 0.766265 0.962343 -0.307450
N11   N     N_R   0.671960 0.614150 0.081722 0.259654
O25   O     O_R   0.677309 0.640148 0.161832 -0.291992
O26   O     O_R   0.760048 0.633707 0.031066 -0.310763
C59   C     C_R   0.609249 0.324159 0.879101 0.176681
C60   C     C_R   0.587254 0.216719 0.865346 -0.092804
C61   C     C_R   0.654574 0.158687 0.807951 -0.112509
C62   C     C_R   0.745167 0.206251 0.762513 -0.125222
C63   C     C_R   0.767546 0.312107 0.773560 -0.165561
C64   C     C_R   0.699442 0.371015 0.830039 -0.049335
H30   H     H_    0.516764 0.177167 0.898623 0.175239
H31   H     H_    0.636282 0.076604 0.798713 0.164174
H32   H     H_    0.797710 0.161211 0.718366 0.140771
H33   H     H_    0.838065 0.348386 0.738018 0.115841
H34   H     H_    0.719179 0.452492 0.835005 0.123283
N12   N     N_R   0.510339 0.289566 0.077161 0.184624
O27   O     O_R   0.557661 0.204085 0.055024 -0.356153
O28   O     O_R   0.431747 0.287084 0.138191 -0.391509

loop_
_geom_bond_atom_site_label_1
_geom_bond_atom_site_label_2
_geom_bond_distance
_ccdc_geom_bond_type
N7    O17   1.301042 A    
C44   C45   1.398475 A    
C3    C17   1.440085 S    
N5    O13   1.300348 A    
C12   N3    1.481392 S    
C11   C14   1.446195 S    
C60   C61   1.396973 A    
C18   C21   1.412353 A    
N8    O20   1.302264 A    
C57   C58   1.395936 A    
C36   H10   1.074732 S    
C51   C52   1.398795 A    
Zn1   O7    1.974492 S    
C38   H12   1.082610 S    
C43   H16   1.082506 S    
C25   C41   1.484601 S    
C4    C8    1.396600 S    
C15   C16   1.191691 T    
C61   C62   1.392064 A    
C52   H24   1.083310 S    
O4    C2    1.301233 A    
O7    C4    1.291327 A    
C1    C18   1.464851 S    
C48   H20   1.083578 S    
C7    H3    1.112848 S    
C35   C36   1.426694 A    
C19   C20   1.407010 A    
C17   C24   1.390217 A    
O5    C3    1.289672 A    
C53   C54   1.402239 A    
C55   C56   1.396269 A    
O1    Zn1   2.006777 S    
C59   C64   1.413061 A    
C40   H14   1.076159 S    
C5    C9    1.620076 S    
C49   C50   1.398312 A    
C34   H8    1.080186 S    
C6    C7    1.564323 S    
C28   H9    1.081944 S    
C21   C22   1.392382 A    
C10   C11   1.565718 S    
C41   C42   1.405525 A    
C19   C47   1.482753 S    
Zn1   N1    2.023321 S    
C5    N8    1.490717 S    
C46   H19   1.083598 S    
C58   H29   1.076831 S    
C47   C52   1.403507 A    
N2    C29   1.372844 A    
C56   H27   1.082379 S    
C5    C10   1.577516 S    
C49   H21   1.081911 S    
C8    C14   1.184888 T    
C27   H7    1.082130 S    
C38   C39   1.388012 A    
N7    O18   1.299373 A    
C9    C15   1.454119 S    
N9    O22   1.298575 A    
O3    Zn1   1.981140 S    
N8    O19   1.303504 A    
N2    C28   1.362726 A    
C47   C48   1.404725 A    
C24   H6    1.082484 S    
C7    C11   1.567389 S    
C45   C46   1.393549 A    
C33   C34   1.390564 A    
C29   C30   1.419629 A    
C11   C12   1.590386 S    
O3    C2    1.283101 A    
C63   H33   1.080854 S    
C12   C13   1.585977 S    
C27   C28   1.405999 A    
C44   H17   1.081509 S    
C48   C49   1.398198 A    
N3    O9    1.298742 A    
C39   C40   1.398654 A    
O1    C1    1.291323 A    
C10   H5    1.102667 S    
C6    N10   1.483249 S    
C22   C23   1.414176 A    
C7    N11   1.480347 S    
C62   C63   1.392523 A    
H1    C10   1.109625 S    
C27   C31   1.410172 A    
Zn2   O8    1.981142 S    
C2    C16   1.407294 S    
N4    O12   1.301252 A    
C50   C51   1.398902 A    
N10   O23   1.299561 A    
C54   H25   1.077794 S    
N12   O28   1.301306 A    
Zn2   O6    2.006777 S    
C25   C26   1.388963 A    
C62   H32   1.082599 S    
O8    C4    1.287809 A    
C39   H13   1.083099 S    
C31   C32   1.427822 A    
N6    O16   1.301763 A    
C45   H18   1.078175 S    
C50   H22   1.082398 S    
N9    O21   1.294342 A    
C63   C64   1.400291 A    
C42   H15   1.082231 S    
N11   O26   1.302253 A    
C56   C57   1.398045 A    
C37   H11   1.082655 S    
Zn1   O5    2.030921 S    
C30   C31   1.402376 A    
C6    C9    1.592271 S    
C54   C55   1.397146 A    
C19   C23   1.415779 A    
O2    Zn2   2.030921 S    
Zn2   N2    2.023200 S    
C43   C44   1.396788 A    
O6    C3    1.295706 A    
O4    Zn2   1.974492 S    
C51   H23   1.082657 S    
N5    O14   1.301229 A    
N1    C32   1.382479 A    
C13   H4    1.080688 S    
C20   N5    1.441718 S    
C29   C53   1.476698 S    
C55   H26   1.082640 S    
C5    C35   1.582086 S    
C12   N12   1.484939 S    
C37   C38   1.388864 A    
C42   C43   1.397875 A    
C60   H30   1.082405 S    
N1    C33   1.374559 A    
C36   C37   1.398448 A    
C23   C24   1.388814 A    
C57   H28   1.081208 S    
C6    H2    1.097561 S    
N4    O11   1.301851 A    
C18   C20   1.414010 A    
O2    C1    1.305264 A    
C13   C59   1.552336 S    
C17   C25   1.406261 A    
C22   C26   1.423435 A    
N10   O24   1.302425 A    
N12   O27   1.301169 A    
C61   H31   1.082575 S    
C30   C34   1.397785 A    
C26   N4    1.435050 S    
C32   N7    1.429123 S    
C33   N9    1.431354 S    
N6    O15   1.302826 A    
C9    C13   1.588264 S    
C41   C46   1.402298 A    
C35   C40   1.425676 A    
C21   N6    1.428445 S    
C64   H34   1.072690 S    
N3    O10   1.302140 A    
C53   C58   1.401127 A    
C59   C60   1.416486 A    
N11   O25   1.300258 A    
