data_mof_unit_41134.cif
_audit_creation_date              2012-12-11T15:55:41-0500
_audit_creation_method            fapswitch 2.2
_symmetry_space_group_name_H-M    P1
_symmetry_Int_Tables_number       1
_space_group_crystal_system       triclinic
_cell_length_a                    6.929497
_cell_length_b                    14.545586
_cell_length_c                    16.094468
_cell_angle_alpha                 89.991778
_cell_angle_beta                  89.889596
_cell_angle_gamma                 89.948411
_cell_volume                      1622.21559657

loop_
_atom_site_label
_atom_site_type_symbol
_atom_type_description
_atom_site_fract_x
_atom_site_fract_y
_atom_site_fract_z
_atom_type_partial_charge
O1    O     O_R   0.505680 0.583900 0.413320 -0.541734
O2    O     O_R   0.176010 0.594950 0.586080 -0.514190
O3    O     O_R   0.005680 0.416100 0.586680 -0.538333
C1    C     C_R   0.344500 0.618732 0.613911 0.739637
O4    O     O_R   0.175960 0.594930 0.413930 -0.539358
O5    O     O_R   0.005640 0.416080 0.413300 -0.545979
C2    C     C_R   0.345085 0.617233 0.385025 0.693734
O6    O     O_R   0.505720 0.583920 0.586700 -0.534555
O7    O     O_3   0.339190 0.441320 0.500000 -0.380085
V1    V     V_3+5 0.064350 0.510890 0.500000 1.473667
O8    O     O_R   0.675920 0.405050 0.413920 -0.547594
C3    C     C_R   0.845097 0.382790 0.384968 0.672021
O9    O     O_R   0.675960 0.405070 0.586070 -0.547947
C4    C     C_R   0.844969 0.382492 0.614559 0.694207
V2    V     V_3+5 0.564340 0.489110 0.500000 1.430481
O10   O     O_3   0.839370 0.558680 0.500000 -0.344765
C5    C     C_R   0.031234 0.292168 0.720699 0.124945
C6    C     C_R   0.856988 0.310455 0.679701 -0.115056
C7    C     C_R   0.696942 0.255125 0.700721 -0.184692
H1    H     H_    0.561489 0.262899 0.668060 0.136371
C8    C     C_R   0.708265 0.190921 0.766298 -0.173693
H2    H     H_    0.581026 0.151274 0.781798 0.135253
C9    C     C_R   0.879785 0.180396 0.812774 -0.113503
C10   C     C_R   0.042470 0.228861 0.785340 0.116179
C11   C     C_3   0.179024 0.287787 0.833249 -0.420489
C12   C     C_3   0.166864 0.356907 0.762580 -0.422268
H3    H     H_    0.323834 0.255709 0.839256 0.176744
H4    H     H_    0.115611 0.313409 0.892413 0.168418
H5    H     H_    0.304563 0.364619 0.727809 0.171535
H6    H     H_    0.096439 0.422665 0.780726 0.167043
C13   C     C_R   0.046920 0.224629 0.217355 -0.154572
H7    H     H_    0.187728 0.206095 0.193335 0.116537
C14   C     C_R   0.035932 0.288177 0.282577 -0.150152
H8    H     H_    0.168772 0.316789 0.306613 0.116673
C15   C     C_R   0.856308 0.314467 0.316126 -0.042721
C16   C     C_R   0.687979 0.275443 0.282534 -0.153404
H9    H     H_    0.547170 0.293984 0.306548 0.116158
C17   C     C_R   0.698968 0.211893 0.217314 -0.149201
H10   H     H_    0.566127 0.183284 0.193275 0.118957
C18   C     C_R   0.878594 0.185587 0.183779 -0.046712
C19   C     C_R   0.201059 0.751240 0.698194 0.260752
C20   C     C_R   0.214361 0.812823 0.764870 -0.170537
H11   H     H_    0.096217 0.860128 0.775945 0.152021
C21   C     C_R   0.379132 0.815916 0.815431 -0.102599
C22   C     C_R   0.532260 0.755669 0.798045 -0.131188
H12   H     H_    0.661594 0.756458 0.835719 0.132457
C23   C     C_R   0.518859 0.692373 0.732726 -0.146172
H13   H     H_    0.638319 0.645644 0.722456 0.153031
C24   C     C_R   0.353567 0.688479 0.681921 -0.108339
C25   C     C_R   0.188042 0.724782 0.282658 -0.143741
H14   H     H_    0.047213 0.706373 0.306666 0.121347
C26   C     C_R   0.199140 0.788311 0.217432 -0.149578
H15   H     H_    0.066315 0.817041 0.193375 0.119671
C27   C     C_R   0.378827 0.814432 0.183906 -0.047756
C28   C     C_R   0.547114 0.775287 0.217528 -0.154108
H16   H     H_    0.687942 0.793711 0.193530 0.116720
C29   C     C_R   0.536017 0.711753 0.282754 -0.141603
H17   H     H_    0.668836 0.683029 0.306823 0.120779
C30   C     C_R   0.356319 0.685598 0.316246 -0.044335
O11   O     O_R   0.229200 0.915950 0.913350 -0.540766
O12   O     O_R   0.559090 0.905000 0.086080 -0.544423
O13   O     O_R   0.729280 0.083880 0.086680 -0.540955
C31   C     C_R   0.390003 0.882721 0.115055 0.686376
O14   O     O_R   0.558920 0.904980 0.913920 -0.540867
O15   O     O_R   0.729110 0.083860 0.913300 -0.539949
C32   C     C_R   0.390159 0.882982 0.884931 0.706202
O16   O     O_R   0.229360 0.915970 0.086730 -0.540980
O17   O     O_3   0.395680 0.058580 0.000030 -0.370766
V3    V     V_3+5 0.670570 0.989070 0.999990 1.408068
O18   O     O_R   0.058820 0.094950 0.913870 -0.539926
C33   C     C_R   0.889901 0.116536 0.884636 0.702632
O19   O     O_R   0.058990 0.094970 0.086020 -0.544284
C34   C     C_R   0.889812 0.117227 0.114969 0.684985
V4    V     V_3+5 0.170560 0.010930 0.999930 1.405560
O20   O     O_3   0.895590 0.941310 0.999960 -0.369710
Br1   Br    Br    0.974944 0.762484 0.629811 -0.565575

loop_
_geom_bond_atom_site_label_1
_geom_bond_atom_site_label_2
_ccdc_geom_bond_type
C28   H16   S    
C19   C20   A    
C4    C6    S    
C21   C32   S    
C15   C16   A    
C1    O6    A    
C23   C24   A    
C22   H12   S    
C18   C34   S    
C11   H4    S    
C25   C30   A    
C16   H9    S    
C7    C8    A    
O5    C3    A    
C17   H10   S    
C29   C30   A    
C27   C31   S    
O17   V4    S    
V2    O10   S    
C13   C18   A    
C6    C7    A    
C19   C24   A    
O12   C31   A    
O8    V2    S    
C13   H7    S    
O17   V3    S    
O18   V4    S    
C25   C26   A    
C9    C10   A    
C13   C14   A    
O13   C34   A    
O18   C33   A    
O1    V2    S    
O7    V1    S    
O11   C32   A    
C8    H2    S    
C20   C21   A    
C2    C30   S    
C26   C27   A    
C14   H8    S    
C22   C23   A    
C8    C9    A    
C31   O16   A    
C5    C10   A    
V4    O20   S    
C9    C33   S    
C10   C11   S    
O19   V4    S    
O4    C2    A    
C25   H14   S    
C11   C12   S    
O15   C33   A    
O13   V3    S    
O14   C32   A    
O2    C1    A    
C23   H13   S    
C5    C6    A    
O16   V4    S    
O14   V3    S    
C3    C15   S    
O3    C4    A    
C12   H6    S    
O6    V2    S    
C28   C29   A    
C20   H11   S    
C5    C12   S    
C16   C17   A    
O2    V1    S    
C21   C22   A    
O12   V3    S    
C27   C28   A    
O1    C2    A    
O19   C34   A    
O5    V1    S    
O8    C3    A    
C11   H3    S    
C1    C24   S    
C7    H1    S    
O9    V2    S    
O7    V2    S    
O4    V1    S    
O3    V1    S    
V1    O10   S    
C19   Br1   S    
C17   C18   A    
C29   H17   S    
O15   V3    S    
O11   V4    S    
C14   C15   A    
V3    O20   S    
C12   H5    S    
O9    C4    A    
C26   H15   S    
