data_mof_unit_51291.cif
_audit_creation_date              2012-12-10T19:28:37-0500
_audit_creation_method            fapswitch 2.2
_symmetry_space_group_name_H-M    P1
_symmetry_Int_Tables_number       1
_space_group_crystal_system       triclinic
_cell_length_a                    27.475856
_cell_length_b                    10.583867
_cell_length_c                    9.798762
_cell_angle_alpha                 89.480761
_cell_angle_beta                  90.022618
_cell_angle_gamma                 89.275664
_cell_volume                      2849.14281178

loop_
_atom_site_label
_atom_site_type_symbol
_atom_type_description
_atom_site_fract_x
_atom_site_fract_y
_atom_site_fract_z
_atom_type_partial_charge
C1    C     C_R   0.500766 0.258076 0.500809 1.011274
C2    C     C_R   0.870667 0.434227 0.340833 -0.047717
C3    C     C_R   0.352691 0.511139 0.495497 -0.193302
C4    C     C_R   0.646846 0.511018 0.497140 -0.198693
C5    C     C_R   0.973009 0.434288 0.316526 0.114348
C6    C     C_R   0.025552 0.648705 0.383588 0.134456
C7    C     C_R   0.975381 0.644927 0.416026 -0.031625
C8    C     C_R   0.024029 0.423027 0.338586 0.010945
C9    C     C_R   0.948575 0.538800 0.374537 -0.032424
C10   C     C_R   0.050438 0.533302 0.365774 -0.029098
C11   C     C_R   0.945716 0.345144 0.242181 -0.023151
C12   C     C_R   0.499634 0.741966 0.499328 1.005571
C13   C     C_R   0.051931 0.761907 0.369687 -0.050666
C14   C     C_R   0.894588 0.341840 0.258558 -0.110642
C15   C     C_R   0.102663 0.758663 0.393270 -0.134620
C16   C     C_R   0.406009 0.500641 0.499687 0.973651
C17   C     C_R   0.593823 0.501181 0.499865 0.978333
C18   C     C_R   0.048301 0.305038 0.348538 0.334216
C19   C     C_R   0.952624 0.739163 0.496069 0.462640
C20   C     C_3   0.503787 0.037908 0.630858 -0.172818
C21   C     C_3   0.496991 0.962286 0.369843 -0.175244
C22   C     C_3   0.540819 0.953590 0.555716 0.407726
C23   C     C_R   0.101258 0.527990 0.382393 -0.152868
C24   C     C_3   0.459919 0.046475 0.445089 0.423125
C25   C     C_3   0.499057 0.876342 0.497798 -0.147557
C26   C     C_3   0.501676 0.123751 0.502901 -0.154164
C27   C     C_3   0.461579 0.960572 0.572332 -0.202401
C28   C     C_3   0.539190 0.039606 0.428559 -0.209001
C29   C     C_3   0.486496 0.392386 0.048243 -0.130825
C30   C     C_3   0.513538 0.607582 0.951746 -0.127115
C31   C     C_3   0.529043 0.416002 0.953289 0.461859
C32   C     C_3   0.470998 0.584016 0.046655 0.468499
C33   C     C_3   0.456581 0.477249 0.950894 -0.204189
C34   C     C_R   0.897952 0.535152 0.394949 -0.090627
C35   C     C_3   0.543436 0.522756 0.049137 -0.187596
C36   C     C_R   0.176890 0.408725 0.395030 0.674387
C37   C     C_R   0.825660 0.617071 0.505748 0.655559
C38   C     C_R   0.175820 0.627880 0.450020 0.652653
C39   C     C_R   0.819951 0.434465 0.365715 0.620055
C40   C     C_R   0.281089 0.585073 0.370228 0.347969
C41   C     C_R   0.727575 0.426817 0.552755 0.371972
C42   C     C_R   0.330943 0.595712 0.398873 -0.175400
C43   C     C_R   0.676487 0.421614 0.568427 -0.172969
C44   C     C_R   0.323333 0.428040 0.573715 -0.194827
C45   C     C_R   0.126157 0.410776 0.375424 -0.134275
C46   C     C_R   0.667885 0.608225 0.416788 -0.167412
C47   C     C_R   0.272119 0.437797 0.561023 0.468345
C48   C     C_R   0.718896 0.614125 0.406488 0.430802
C49   C     C_R   0.251798 0.511902 0.455755 0.174142
C50   C     C_R   0.747835 0.521536 0.470619 0.209765
C51   C     C_2   0.345602 0.324579 0.658287 0.430631
C52   C     C_2   0.636355 0.702220 0.343240 0.435795
C53   C     C_2   0.507006 0.079646 0.776379 0.546662
C54   C     C_2   0.493886 0.920553 0.224316 0.542996
C55   C     C_2   0.417582 0.922783 0.652773 0.469206
C56   C     C_R   0.874889 0.631549 0.471648 -0.195831
C57   C     C_2   0.583392 0.078538 0.349767 0.444762
C58   C     C_2   0.471966 0.266501 0.103725 0.548746
C59   C     C_2   0.528146 0.733424 0.896311 0.558034
C60   C     C_2   0.654951 0.322919 0.658358 0.512640
C61   C     C_2   0.358559 0.700863 0.333541 0.593382
C62   C     C_2   0.867054 0.240864 0.189802 0.490390
C63   C     C_2   0.129674 0.878988 0.391770 0.523632
C64   C     C_2   0.969619 0.263391 0.137709 0.579976
C65   C     C_2   0.028574 0.876338 0.305790 0.525664
C66   C     C_R   0.099737 0.299485 0.352808 0.401919
C67   C     C_R   0.902038 0.736204 0.517172 0.372786
C68   C     C_R   0.126835 0.639915 0.409737 -0.012186
H1    H     H_    0.420282 0.459637 0.905641 0.165649
H2    H     H_    0.423291 0.715856 0.022967 0.333374
H3    H     H_    0.499001 0.204916 0.151173 0.091520
H4    H     H_    0.501150 0.795178 0.848959 0.087342
H5    H     H_    0.257182 0.361806 0.736958 0.370131
H6    H     H_    0.722923 0.787412 0.341301 0.373000
H7    H     H_    0.103977 0.129863 0.282053 0.336801
H8    H     H_    0.852231 0.864876 0.520036 0.376470
H9    H     H_    0.672363 0.298103 0.754510 0.093020
H10   H     H_    0.346879 0.743371 0.237931 0.085383
H11   H     H_    0.741930 0.262271 0.637183 0.342808
H12   H     H_    0.579692 0.540659 0.094600 0.203759
H13   H     H_    0.281216 0.647664 0.184392 0.329557
H14   H     H_    0.847947 0.170781 0.250144 0.124074
H15   H     H_    0.116473 0.957691 0.452055 0.078178
H16   H     H_    0.955607 0.170439 0.115588 0.106468
H17   H     H_    0.048307 0.963307 0.295783 0.029240
H18   H     H_    0.040522 0.138575 0.428418 0.341801
H19   H     H_    0.961129 0.883117 0.618866 0.397799
H20   H     H_    0.604362 0.971953 0.633409 0.385753
H21   H     H_    0.396445 0.028262 0.366897 0.389721
H22   H     H_    0.380633 0.335107 0.706790 0.074503
H23   H     H_    0.602686 0.735346 0.389155 0.055420
H24   H     H_    0.478095 0.137603 0.819225 0.057387
H25   H     H_    0.522878 0.862783 0.181587 0.071932
H26   H     H_    0.393496 0.995376 0.692909 0.114720
H27   H     H_    0.606806 0.006665 0.305341 0.097742
H28   H     H_    0.576836 0.284275 0.976639 0.340104
N1    N     N_R   0.200098 0.515406 0.435406 -0.340527
N2    N     N_R   0.799354 0.522967 0.448885 -0.305627
N3    N     N_3   0.499960 0.500030 0.863290 -0.128151
N4    N     N_3   0.500040 0.499970 0.136710 -0.130740
O1    O     O_R   0.500000 0.313960 0.616610 -0.620430
O2    O     O_2   0.803966 0.694295 0.596859 -0.490420
O3    O     O_2   0.790912 0.348299 0.307774 -0.536999
O4    O     O_2   0.199105 0.726214 0.506016 -0.475996
O5    O     O_2   0.325339 0.223141 0.671313 -0.502093
O6    O     O_2   0.646725 0.739760 0.228815 -0.518944
O7    O     O_2   0.541738 0.048555 0.847174 -0.507036
O8    O     O_2   0.459146 0.951365 0.153423 -0.516621
O9    O     O_2   0.408755 0.811757 0.674435 -0.535797
O10   O     O_2   0.593270 0.189838 0.334898 -0.530234
O11   O     O_3   0.560402 0.325328 0.897522 -0.696241
O12   O     O_R   0.500000 0.686040 0.383390 -0.618585
O13   O     O_3   0.439771 0.675052 0.102156 -0.724537
O14   O     O_2   0.429998 0.231590 0.093305 -0.505526
O15   O     O_2   0.570144 0.768117 0.906682 -0.478048
O16   O     O_3   0.240731 0.375593 0.648031 -0.685415
O17   O     O_3   0.742131 0.708050 0.333609 -0.704360
O18   O     O_3   0.124236 0.185870 0.338487 -0.684167
O19   O     O_3   0.880044 0.838631 0.578747 -0.699873
O20   O     O_2   0.618638 0.265771 0.624481 -0.519396
O21   O     O_2   0.393736 0.746544 0.389590 -0.543933
O22   O     O_3   0.759315 0.340593 0.613303 -0.713377
O23   O     O_R   0.500020 0.313950 0.383350 -0.610519
O24   O     O_3   0.259002 0.650170 0.263837 -0.703565
O25   O     O_2   0.865158 0.236648 0.065437 -0.512728
O26   O     O_2   0.165480 0.892253 0.319489 -0.432323
O27   O     O_2   0.004700 0.300707 0.073082 -0.547886
O28   O     O_2   0.987962 0.872598 0.255389 -0.541768
O29   O     O_3   0.021192 0.197811 0.370504 -0.787896
O30   O     O_3   0.981064 0.829611 0.557660 -0.757580
O31   O     O_3   0.582997 0.899829 0.612802 -0.730373
O32   O     O_3   0.417710 0.100375 0.388316 -0.700310
O33   O     O_R   0.499980 0.686050 0.616650 -0.610192
O34   O     O_R   0.428750 0.500030 0.616610 -0.644097
O35   O     O_R   0.571250 0.499970 0.383390 -0.630035
O36   O     O_R   0.428770 0.500020 0.383360 -0.564318
O37   O     O_R   0.571230 0.499980 0.616640 -0.559783
O38   O     O_2   0.203003 0.301556 0.375676 -0.404158
Zn1   Zn    Zn3+2 0.499990 0.500010 0.655740 1.041137
Zn2   Zn    Zn3+2 0.500010 0.499990 0.344260 1.045541

loop_
_geom_bond_atom_site_label_1
_geom_bond_atom_site_label_2
_ccdc_geom_bond_type
C41   O22   S    
C3    C42   A    
C34   C56   A    
C23   C45   A    
C46   C52   S    
C22   O31   S    
C1    C26   S    
O12   Zn2   S    
C24   C27   S    
O36   Zn2   S    
C16   O34   A    
O1    Zn1   S    
C47   C49   A    
C13   C65   S    
C28   C57   S    
O37   Zn1   S    
H5    O16   S    
C30   C35   S    
H19   O30   S    
C24   C26   S    
C5    C11   A    
C55   H26   S    
C51   H22   S    
C37   O2    S    
C11   C14   A    
C27   C55   S    
C58   H3    S    
C40   C49   A    
C14   C62   S    
C29   C33   S    
C35   H12   S    
C61   O21   D    
C24   O32   S    
C64   H16   S    
C54   H25   S    
C38   O4    S    
N4    Zn2   S    
C37   C56   A    
C2    C39   A    
C22   C25   S    
C17   O35   A    
C19   C67   A    
C36   N1    A    
C31   N3    S    
C32   O13   S    
C44   C47   A    
C33   H1    S    
C59   H4    S    
C2    C34   A    
C19   O30   S    
C40   C42   A    
C62   H14   S    
C52   O6    D    
C22   C28   S    
C55   O9    D    
C41   C43   A    
N3    Zn1   S    
C47   O16   S    
H7    O18   S    
C38   N1    A    
C37   N2    A    
H11   O22   S    
H2    O13   S    
O35   Zn2   S    
C40   O24   S    
H28   O11   S    
C46   C48   A    
C3    C44   A    
C50   N2    S    
H8    O19   S    
H13   O24   S    
C65   O28   D    
C11   C64   S    
O34   Zn1   S    
C39   N2    A    
C4    C46   A    
O23   Zn2   S    
C8    C18   A    
C32   N4    S    
C63   H15   S    
C33   N3    S    
C23   C68   A    
C1    O23   A    
C5    C9    A    
C5    C8    A    
C53   O7    D    
C57   O10   D    
C61   H10   S    
C51   O5    D    
C64   O27   D    
C30   C59   S    
C53   H24   S    
C36   C45   A    
C65   H17   S    
H21   O32   S    
C42   C61   S    
C48   O17   S    
C43   C60   S    
C4    C17   S    
C44   C51   S    
C8    C10   A    
C4    C43   A    
C21   C28   S    
C20   C22   S    
O33   Zn1   S    
C7    C19   A    
C12   O33   A    
C13   C15   A    
C66   O18   S    
C9    C34   A    
C31   C35   S    
C25   C27   S    
C35   N4    S    
C16   O36   A    
C1    O1    A    
C41   C50   A    
C12   O12   A    
C7    C9    A    
H6    O17   S    
C21   C25   S    
C15   C63   S    
C29   N4    S    
C38   C68   A    
C20   C53   S    
C18   O29   S    
C6    C10   A    
C62   O25   D    
H18   O29   S    
C39   O3    S    
C6    C7    A    
C20   C27   S    
C10   C23   A    
C18   C66   A    
C56   C67   A    
C26   C28   S    
C54   O8    D    
C12   C25   S    
C60   H9    S    
C67   O19   S    
C29   C31   S    
C32   C33   S    
C6    C13   A    
C30   C32   S    
C21   C54   S    
C20   C26   S    
C15   C68   A    
C30   N3    S    
C48   C50   A    
C60   O20   D    
C2    C14   A    
C63   O26   D    
C49   N1    S    
C29   C58   S    
C59   O15   D    
C57   H27   S    
C21   C24   S    
C45   C66   A    
C58   O14   D    
C31   O11   S    
C52   H23   S    
C17   O37   A    
H20   O31   S    
C36   O38   S    
C3    C16   S    
