data_mof_unit_51198.cif
_audit_creation_date              2012-12-10T19:05:44-0500
_audit_creation_method            fapswitch 2.2
_symmetry_space_group_name_H-M    P1
_symmetry_Int_Tables_number       1
_space_group_crystal_system       triclinic
_cell_length_a                    10.523544
_cell_length_b                    13.071111
_cell_length_c                    13.625134
_cell_angle_alpha                 85.494172
_cell_angle_beta                  90.591536
_cell_angle_gamma                 93.529418
_cell_volume                      1864.83267503

loop_
_atom_site_label
_atom_site_type_symbol
_atom_type_description
_atom_site_fract_x
_atom_site_fract_y
_atom_site_fract_z
_atom_type_partial_charge
C1    C     C_R   0.499456 0.481015 0.685006 0.905120
C2    C     C_3   0.043342 0.552611 0.418326 0.049637
C3    C     C_3   0.048269 0.544095 0.579680 -0.232862
C4    C     C_3   0.951739 0.455921 0.420294 -0.232805
C5    C     C_3   0.122395 0.499028 0.498832 -0.014586
C6    C     C_3   0.877611 0.500985 0.501146 -0.014578
C7    C     C_3   0.032993 0.401519 0.501707 -0.203248
C8    C     C_3   0.967013 0.598494 0.498270 -0.203314
C9    C     C_1   0.495392 0.534381 0.212190 -0.166293
C10   C     C_1   0.504478 0.465614 0.787814 -0.166269
C11   C     C_2   0.484068 0.542602 0.021009 -0.035263
C12   C     C_R   0.500515 0.518984 0.314993 0.905081
C13   C     C_2   0.515743 0.457368 0.978999 -0.035245
C14   C     C_1   0.509818 0.457320 0.875051 -0.056516
C15   C     C_1   0.489991 0.542666 0.124952 -0.056415
C16   C     C_R   0.902942 0.392316 0.674526 0.114076
C17   C     C_R   0.892445 0.284452 0.686433 -0.128777
C18   C     C_R   0.843680 0.234285 0.773721 -0.147814
C19   C     C_R   0.806120 0.291365 0.849790 -0.103376
C20   C     C_R   0.816428 0.398709 0.838374 -0.125042
C21   C     C_R   0.863206 0.449130 0.750680 -0.184260
C22   C     C_R   0.097123 0.607770 0.325488 0.113942
C23   C     C_2   0.465095 0.033174 0.472082 -0.249415
C24   C     C_R   0.108093 0.715641 0.313835 -0.128685
C25   C     C_R   0.156881 0.765884 0.226580 -0.147734
C26   C     C_R   0.194049 0.708904 0.150332 -0.103375
C27   C     C_R   0.183319 0.601557 0.161508 -0.125018
C28   C     C_R   0.136461 0.551052 0.249149 -0.184183
C29   C     C_R   0.563716 0.364993 0.034965 0.150063
C30   C     C_R   0.504167 0.267407 0.023644 -0.152177
C31   C     C_R   0.549722 0.180050 0.074843 -0.159242
C32   C     C_R   0.655507 0.189300 0.137096 -0.113681
C33   C     C_R   0.716509 0.285831 0.147734 -0.135950
C34   C     C_2   0.534902 0.966826 0.527918 -0.249423
C35   C     C_R   0.671492 0.373315 0.096493 -0.165628
C36   C     C_R   0.436142 0.634976 0.965013 0.150167
C37   C     C_R   0.495984 0.732523 0.976031 -0.152169
C38   C     C_R   0.450505 0.819866 0.924740 -0.159125
C39   C     C_R   0.344504 0.810638 0.862714 -0.113599
C40   C     C_R   0.283221 0.714144 0.852381 -0.136001
C41   C     C_R   0.328175 0.626674 0.903699 -0.165786
C42   C     C_1   0.525538 0.854706 0.519833 0.128015
C43   C     C_1   0.474461 0.145294 0.480166 0.128042
C44   C     C_R   0.742964 0.500154 0.500765 0.874572
C45   C     C_R   0.257038 0.499848 0.499227 0.874611
C46   C     C_3   0.956669 0.447408 0.581651 0.049628
H1    H     H_    0.601457 0.996671 0.581637 0.160398
H2    H     H_    0.079652 0.760963 0.372063 0.116615
H3    H     H_    0.165432 0.849041 0.217932 0.124339
H4    H     H_    0.230987 0.747925 0.082648 0.146871
H5    H     H_    0.211409 0.557357 0.102356 0.138178
H6    H     H_    0.129556 0.467807 0.257052 0.126836
H7    H     H_    0.064595 0.321984 0.502455 0.145569
H8    H     H_    0.935427 0.678035 0.497505 0.145591
H9    H     H_    0.422055 0.259128 0.975684 0.129135
H10   H     H_    0.503025 0.105150 0.066200 0.127333
H11   H     H_    0.690574 0.121615 0.176711 0.125994
H12   H     H_    0.398541 0.003329 0.418362 0.160379
H13   H     H_    0.799058 0.292850 0.195351 0.124303
H14   H     H_    0.721128 0.447338 0.104229 0.125830
H15   H     H_    0.578270 0.740781 0.023805 0.129055
H16   H     H_    0.497415 0.894744 0.933131 0.127283
H17   H     H_    0.309496 0.878318 0.823038 0.125953
H18   H     H_    0.200511 0.707144 0.804939 0.124316
H19   H     H_    0.278361 0.552673 0.896192 0.125829
H20   H     H_    0.092191 0.579170 0.644531 0.135696
H21   H     H_    0.907810 0.420844 0.355447 0.135600
H22   H     H_    0.921221 0.239054 0.628361 0.116556
H23   H     H_    0.835458 0.151130 0.782540 0.124351
H24   H     H_    0.769208 0.252406 0.917502 0.146948
H25   H     H_    0.788077 0.442998 0.897391 0.138223
H26   H     H_    0.869748 0.532371 0.742579 0.126869
N1    N     N_1   0.479750 0.234530 0.484780 -0.094324
N2    N     N_1   0.520250 0.765470 0.515220 -0.094322
O1    O     O_R   0.492590 0.402510 0.634760 -0.606816
O2    O     O_R   0.507410 0.597490 0.365240 -0.606800
O3    O     O_R   0.505590 0.572960 0.644530 -0.603993
O4    O     O_R   0.494410 0.427040 0.355470 -0.603995
O5    O     O_R   0.679550 0.414790 0.495140 -0.613103
O6    O     O_R   0.320450 0.585210 0.504860 -0.613136
O7    O     O_R   0.692550 0.585240 0.504910 -0.626870
O8    O     O_R   0.307450 0.414760 0.495090 -0.626869
Zn1   Zn    Zn3+2 0.491320 0.386190 0.493470 0.970544
Zn2   Zn    Zn3+2 0.508680 0.613810 0.506530 0.970534

loop_
_geom_bond_atom_site_label_1
_geom_bond_atom_site_label_2
_ccdc_geom_bond_type
C43   N1    T    
C23   H12   S    
C16   C21   A    
C11   C13   D    
C45   O8    A    
C34   C42   S    
O6    Zn2   S    
O2    Zn2   S    
C26   C27   A    
C37   C38   A    
C6    C8    S    
C13   C29   S    
C11   C36   S    
C26   H4    S    
C38   C39   A    
C23   C43   S    
C18   C19   A    
C11   C15   S    
O4    Zn1   S    
C19   C20   A    
C16   C17   A    
C12   O4    A    
C2    C22   S    
C20   H25   S    
C31   H10   S    
C18   H23   S    
C33   H13   S    
C22   C28   A    
C13   C14   S    
C36   C41   A    
C32   H11   S    
C4    C7    S    
C27   H5    S    
C42   N2    T    
C21   H26   S    
C1    O1    A    
C7    C46   S    
C24   C25   A    
C4    C6    S    
C44   O7    A    
C10   C14   T    
C16   C46   S    
C39   C40   A    
C5    C7    S    
C41   H19   S    
O3    Zn2   S    
C25   C26   A    
C5    C45   S    
C35   H14   S    
C24   H2    S    
C2    C4    S    
C29   C30   A    
C31   C32   A    
C23   C34   D    
C17   C18   A    
C40   C41   A    
C3    C8    S    
C12   O2    A    
C22   C24   A    
C2    C5    S    
C7    H7    S    
C8    H8    S    
O7    Zn2   S    
C36   C37   A    
C17   H22   S    
C6    C46   S    
C44   O5    A    
C2    C8    S    
C1    C10   S    
N2    Zn2   S    
C3    C5    S    
C4    H21   S    
C37   H15   S    
C39   H17   S    
C30   H9    S    
C29   C35   A    
C3    C46   S    
C40   H18   S    
C32   C33   A    
C9    C15   T    
O5    Zn1   S    
C28   H6    S    
O1    Zn1   S    
C30   C31   A    
C33   C35   A    
C45   O6    A    
C9    C12   S    
C25   H3    S    
C3    H20   S    
C20   C21   A    
O8    Zn1   S    
C27   C28   A    
C19   H24   S    
C6    C44   S    
C34   H1    S    
C1    O3    A    
N1    Zn1   S    
C38   H16   S    
