data_mof_unit_58910.cif
_audit_creation_date              2012-12-11T16:07:33-0500
_audit_creation_method            fapswitch 2.2
_symmetry_space_group_name_H-M    P1
_symmetry_Int_Tables_number       1
_space_group_crystal_system       triclinic
_cell_length_a                    6.993049
_cell_length_b                    14.361419
_cell_length_c                    16.086847
_cell_angle_alpha                 90.440343
_cell_angle_beta                  88.799607
_cell_angle_gamma                 89.029211
_cell_volume                      1614.96511181

loop_
_atom_site_label
_atom_site_type_symbol
_atom_type_description
_atom_site_fract_x
_atom_site_fract_y
_atom_site_fract_z
_atom_type_partial_charge
O1    O     O_R   0.494320 0.415010 0.412140 -0.550955
O2    O     O_R   0.824010 0.404260 0.587250 -0.521833
O3    O     O_R   0.994320 0.584990 0.587860 -0.526315
C1    C     C_R   0.654348 0.382151 0.616066 0.745677
O4    O     O_R   0.824040 0.403870 0.412760 -0.541737
O5    O     O_R   0.994350 0.584590 0.412130 -0.550192
C2    C     C_R   0.656907 0.380793 0.384269 0.667512
O6    O     O_R   0.494300 0.415410 0.587870 -0.549452
O7    O     O_3   0.660800 0.559290 0.500000 -0.356761
V1    V     V_3+5 0.935650 0.489000 0.500000 1.491471
O8    O     O_R   0.324060 0.595740 0.412750 -0.525817
C3    C     C_R   0.155142 0.619420 0.385532 0.737743
O9    O     O_R   0.324040 0.596130 0.587240 -0.536134
C4    C     C_R   0.152211 0.618062 0.615852 0.751316
V2    V     V_3+5 0.435660 0.511000 0.500000 1.490793
O10   O     O_3   0.160640 0.440710 0.500000 -0.380466
C5    C     C_3   0.025248 0.673212 0.770623 -0.184243
C6    C     C_3   0.201492 0.708098 0.815746 0.355791
H1    H     H_    0.942407 0.611428 0.789752 0.161496
C7    C     C_3   0.129402 0.809570 0.812482 -0.088825
C8    C     C_3   0.953721 0.775724 0.765806 -0.048617
C9    C     C_3   0.059112 0.788998 0.681193 -0.159249
C10   C     C_3   0.238433 0.822566 0.728160 -0.187090
C11   C     C_3   0.310597 0.719919 0.733373 -0.044681
C12   C     C_3   0.134818 0.686999 0.686842 -0.108895
H2    H     H_    0.996591 0.821498 0.625339 0.158982
H3    H     H_    0.324942 0.883595 0.710449 0.185297
C13   C     C_3   0.263770 0.845440 0.256495 -0.237477
H4    H     H_    0.406279 0.847985 0.226582 0.126459
C14   C     C_3   0.268965 0.777475 0.333742 0.603952
H5    H     H_    0.366137 0.628789 0.230528 0.114919
C15   C     C_3   0.162228 0.710654 0.157118 -0.233899
C16   C     C_3   0.921418 0.805459 0.239846 -0.172272
C17   C     C_3   0.116489 0.812933 0.189843 -0.085781
H6    H     H_    0.884485 0.872318 0.272042 0.137604
C18   C     C_3   0.144265 0.689821 0.315060 -0.021821
C19   C     C_3   0.210229 0.643995 0.230067 -0.274721
C20   C     C_3   0.933536 0.726353 0.305431 -0.356666
H7    H     H_    0.874533 0.753173 0.365951 0.202842
H8    H     H_    0.842549 0.666571 0.288066 0.152894
H9    H     H_    0.030858 0.685400 0.127048 0.148500
C21   C     C_3   0.425495 0.292492 0.711513 -0.280822
H10   H     H_    0.352245 0.270565 0.653986 0.112085
C22   C     C_3   0.411008 0.211012 0.776384 0.602835
H11   H     H_    0.679722 0.419068 0.782686 0.168552
C23   C     C_3   0.740483 0.349142 0.765586 -0.375831
C24   C     C_3   0.734658 0.216151 0.660305 0.168656
C25   C     C_3   0.640450 0.311957 0.686904 -0.091574
H12   H     H_    0.640456 0.185693 0.612476 0.131633
C26   C     C_3   0.618265 0.187537 0.811200 -0.083306
C27   C     C_3   0.722259 0.279189 0.838963 -0.269352
C28   C     C_3   0.746763 0.148842 0.736246 -0.243774
H13   H     H_    0.896751 0.144632 0.757339 0.129606
H14   H     H_    0.893973 0.361357 0.751776 0.176752
H15   H     H_    0.869713 0.259726 0.857890 0.173050
C29   C     C_3   0.574291 0.359217 0.233582 -0.366018
H16   H     H_    0.431531 0.392045 0.246805 0.160024
H17   H     H_    0.671584 0.416733 0.216276 0.149712
C30   C     C_3   0.564003 0.288692 0.159434 0.259656
H18   H     H_    0.670924 0.310232 0.111642 0.140591
H19   H     H_    0.361522 0.260842 0.349239 0.153366
H20   H     H_    0.342341 0.155922 0.242492 0.171247
C31   C     C_3   0.506683 0.231163 0.334970 -0.314688
C32   C     C_3   0.845281 0.264459 0.292208 -0.327423
C33   C     C_3   0.647452 0.310456 0.313033 0.053871
H21   H     H_    0.900488 0.228274 0.347977 0.167991
H22   H     H_    0.950476 0.318493 0.274916 0.172792
C34   C     C_3   0.621478 0.188383 0.187029 0.008617
C35   C     C_3   0.493152 0.160160 0.261992 -0.319992
C36   C     C_3   0.830360 0.193522 0.219685 -0.375600
H23   H     H_    0.930403 0.214014 0.168550 0.157345
H24   H     H_    0.878152 0.123612 0.241166 0.181711
H25   H     H_    0.554874 0.194483 0.391709 0.149517
H26   H     H_    0.537915 0.089845 0.283621 0.158310
O11   O     O_R   0.771990 0.083520 0.910980 -0.555904
O12   O     O_R   0.442180 0.095020 0.086060 -0.530194
O13   O     O_R   0.271950 0.914280 0.086680 -0.538211
C37   C     C_R   0.609835 0.117625 0.115334 0.675413
O14   O     O_R   0.442270 0.094630 0.911580 -0.500185
O15   O     O_R   0.272040 0.913890 0.910940 -0.514082
C38   C     C_R   0.610795 0.116932 0.882588 0.732507
O16   O     O_R   0.771900 0.083910 0.086710 -0.556110
O17   O     O_3   0.605520 0.939610 0.998840 -0.351538
V3    V     V_3+5 0.330640 0.009880 0.998810 1.573012
O18   O     O_R   0.942330 0.902710 0.911540 -0.546604
C39   C     C_R   0.113915 0.879780 0.883328 0.734182
O19   O     O_R   0.942240 0.903100 0.086030 -0.538883
C40   C     C_R   0.109482 0.882495 0.116570 0.675257
V4    V     V_3+5 0.830640 0.987830 0.998780 1.501202
O20   O     O_3   0.105630 0.058150 0.998800 -0.370934
O21   O     O_3   0.277120 0.664859 0.885115 -0.624667
H27   H     H_    0.308669 0.600076 0.867370 0.315749
O22   O     O_3   0.459690 0.751614 0.351177 -0.655091
H28   H     H_    0.521997 0.726546 0.300061 0.260147
C41   C     C_1   0.303345 0.701097 0.088797 0.381467
N1    N     N_1   0.412345 0.691198 0.034317 -0.232057
C42   C     C_1   0.765116 0.787529 0.184151 0.271120
N2    N     N_1   0.648311 0.774375 0.136677 -0.343532
C43   C     C_1   0.121259 0.552574 0.216149 0.301705
N3    N     N_1   0.051967 0.481135 0.204903 -0.387009
C44   C     C_1   0.322207 0.378462 0.740098 0.321991
N4    N     N_1   0.242198 0.445647 0.762239 -0.410168
O23   O     O_3   0.347168 0.130935 0.734904 -0.647711
H29   H     H_    0.213515 0.142743 0.718197 0.296674
O24   O     O_3   0.274062 0.231167 0.840491 -0.646503
H30   H     H_    0.310758 0.286903 0.871969 0.296886
C45   C     C_1   0.635486 0.326597 0.912208 0.289588
N5    N     N_1   0.567181 0.365799 0.968732 -0.302375
O25   O     O_3   0.915296 0.225327 0.621236 -0.642502
H31   H     H_    0.001772 0.254144 0.661582 0.291505
C46   C     C_1   0.702990 0.053462 0.708807 0.382730
N6    N     N_1   0.668815 0.979506 0.685158 -0.362809
C47   C     C_1   0.763363 0.810472 0.791161 0.376855
N7    N     N_1   0.616662 0.839562 0.814568 -0.323370
O26   O     O_3   0.383467 0.291664 0.122200 -0.620015
H32   H     H_    0.283915 0.283997 0.166282 0.297610
C48   C     C_1   0.498221 0.676848 0.714829 0.348955
N8    N     N_1   0.642089 0.639856 0.698120 -0.368799
C49   C     C_1   0.220110 0.942276 0.283932 0.286459
N9    N     N_1   0.181224 0.016847 0.306805 -0.401765
O27   O     O_3   0.189609 0.821226 0.405925 -0.649301
H33   H     H_    0.287911 0.862343 0.429565 0.320416

loop_
_geom_bond_atom_site_label_1
_geom_bond_atom_site_label_2
_ccdc_geom_bond_type
O19   C40   A    
C31   C33   S    
O22   H28   S    
C41   N1    T    
O15   V3    S    
O12   V3    S    
C42   N2    T    
C24   H12   S    
C22   O24   S    
C11   C48   S    
C44   N4    T    
O16   V4    S    
C21   C22   S    
O17   V3    S    
C6    C11   S    
C6    O21   S    
C18   C19   S    
O12   C37   A    
C14   O22   S    
O5    C3    A    
O14   V3    S    
V2    O10   S    
C29   H16   S    
C6    C7    S    
H19   C31   S    
O15   C39   A    
O9    C4    A    
C5    H1    S    
O8    V2    S    
C24   C25   S    
O13   C40   A    
C29   H17   S    
C34   C35   S    
C9    C12   S    
C7    C39   S    
C26   C28   S    
C10   C11   S    
C14   O27   S    
C36   H23   S    
O1    V2    S    
C10   H3    S    
C3    C18   S    
O7    V1    S    
C16   C42   S    
C1    O6    A    
C13   C17   S    
C30   H18   S    
C8    C9    S    
V3    O20   S    
C22   O23   S    
C16   C17   S    
C34   C37   S    
O17   V4    S    
C23   C25   S    
C32   H22   S    
C31   C35   S    
C11   C12   S    
C8    C47   S    
O21   H27   S    
O4    C2    A    
O18   V4    S    
O11   C38   A    
C21   C25   S    
C31   H25   S    
C28   C46   S    
C26   C27   S    
O18   C39   A    
C23   C27   S    
C5    C8    S    
H5    C19   S    
H20   C35   S    
C32   H21   S    
O2    C1    A    
C30   C34   S    
C2    C33   S    
C29   C33   S    
C37   O16   A    
C43   N3    T    
C7    C10   S    
C15   H9    S    
C23   H14   S    
C5    C6    S    
C35   H26   S    
C17   C40   S    
C15   C19   S    
C49   N9    T    
O27   H33   S    
O3    C4    A    
C30   O26   S    
O6    V2    S    
C32   C36   S    
O19   V4    S    
C21   H10   S    
C45   N5    T    
O2    V1    S    
C21   C44   S    
C19   C43   S    
C28   H13   S    
O14   C38   A    
C47   N7    T    
C1    C25   S    
C22   C26   S    
C13   H4    S    
C46   N6    T    
O1    C2    A    
C13   C49   S    
O5    V1    S    
C36   H24   S    
O8    C3    A    
C24   C28   S    
O24   H30   S    
C16   C20   S    
O13   V3    S    
C29   C30   S    
C14   C18   S    
C5    C12   S    
C32   C33   S    
O9    V2    S    
O7    V2    S    
O4    V1    S    
O3    V1    S    
C24   O25   S    
C48   N8    T    
C20   H8    S    
C20   H7    S    
C18   C20   S    
C16   H6    S    
C13   C14   S    
C27   H15   S    
C4    C12   S    
O11   V4    S    
H11   C23   S    
C15   C41   S    
C7    C8    S    
C27   C45   S    
C9    H2    S    
O23   H29   S    
C34   C36   S    
C9    C10   S    
V1    O10   S    
V4    O20   S    
O25   H31   S    
O26   H32   S    
C26   C38   S    
C15   C17   S    
