data_mof_unit_9214.cif
_audit_creation_date              2013-03-05T16:01:30-0500
_audit_creation_method            fapswitch 2.2
_symmetry_space_group_name_H-M    P1
_symmetry_Int_Tables_number       1
_space_group_crystal_system       triclinic
_cell_length_a                    20.110512
_cell_length_b                    7.212576
_cell_length_c                    19.621278
_cell_angle_alpha                 90.001967
_cell_angle_beta                  98.980573
_cell_angle_gamma                 90.000237
_cell_volume                      2811.15016352

loop_
_atom_site_label
_atom_site_type_symbol
_atom_site_description
_atom_site_fract_x
_atom_site_fract_y
_atom_site_fract_z
_atom_type_partial_charge
O1    O     O_R   0.188410 0.619490 0.310050 -0.570977
O2    O     O_R   0.811590 0.380510 0.689950 -0.556754
O3    O     O_R   0.311590 0.119490 0.189950 -0.570817
O4    O     O_R   0.688410 0.880510 0.810050 -0.556681
O5    O     O_R   0.327280 0.288800 0.321740 -0.598090
O6    O     O_R   0.672720 0.711200 0.678260 -0.595188
O7    O     O_R   0.172720 0.788800 0.178260 -0.598031
O8    O     O_R   0.827280 0.211200 0.821740 -0.595305
C1    C     C_R   0.351625 0.458566 0.338542 0.936827
C2    C     C_R   0.648445 0.540806 0.661389 0.949014
C3    C     C_R   0.148368 0.958553 0.161464 0.936560
C4    C     C_R   0.851547 0.040815 0.838620 0.949111
O9    O     O_R   0.189900 0.289710 0.318190 -0.591571
O10   O     O_R   0.810100 0.710290 0.681810 -0.587899
O11   O     O_R   0.310100 0.789710 0.181810 -0.591505
O12   O     O_R   0.689900 0.210290 0.818190 -0.587928
O13   O     O_R   0.173230 0.120350 0.186370 -0.562348
O14   O     O_R   0.826770 0.879650 0.813630 -0.561026
O15   O     O_R   0.326770 0.620350 0.313630 -0.562127
O16   O     O_R   0.673230 0.379650 0.686370 -0.560851
C5    C     C_R   0.170209 0.459059 0.334144 0.994869
C6    C     C_R   0.828721 0.541012 0.664141 0.987698
C7    C     C_R   0.329770 0.959068 0.165836 0.994677
C8    C     C_R   0.671280 0.041018 0.835860 0.987676
O17   O     O_3   0.244690 0.453290 0.206760 -0.279257
O18   O     O_3   0.755310 0.546710 0.793240 -0.291078
O19   O     O_3   0.255310 0.953290 0.293240 -0.279205
O20   O     O_3   0.744690 0.046710 0.706760 -0.290949
V1    V     V_3+5 0.250980 0.178070 0.258020 1.199037
V2    V     V_3+5 0.749020 0.821930 0.741980 1.188829
V3    V     V_3+5 0.249020 0.678070 0.241980 1.199146
V4    V     V_3+5 0.750980 0.321930 0.758020 1.188728
C9    C     C_R   0.410426 0.089775 0.008570 0.234756
C10   C     C_R   0.562977 0.850124 0.965019 0.212068
C11   C     C_R   0.089588 0.589262 0.491474 0.235078
C12   C     C_R   0.936952 0.350101 0.534903 0.212240
C13   C     C_R   0.362620 0.074977 0.054596 0.409242
C14   C     C_R   0.615418 0.862747 0.924306 0.405709
C15   C     C_R   0.137400 0.574426 0.445464 0.409425
C16   C     C_R   0.884526 0.362756 0.575638 0.405529
C17   C     C_R   0.378137 0.972927 0.116387 -0.274260
C18   C     C_R   0.625061 0.029926 0.888723 -0.323066
C19   C     C_R   0.121816 0.472896 0.383567 -0.274358
C20   C     C_R   0.874940 0.529901 0.611276 -0.323211
C21   C     C_R   0.442070 0.895063 0.133475 -0.249637
C22   C     C_R   0.588983 0.187868 0.903297 -0.222471
C23   C     C_R   0.057818 0.395447 0.366385 -0.250220
C24   C     C_R   0.911081 0.687784 0.596765 -0.221752
H1    H     H_    0.455694 0.825578 0.182344 0.174693
H2    H     H_    0.596451 0.319482 0.879108 0.197854
H3    H     H_    0.044152 0.326302 0.317450 0.174820
H4    H     H_    0.903676 0.819354 0.621019 0.197698
C25   C     C_R   0.489974 0.913656 0.089599 -0.085100
C26   C     C_R   0.542022 0.178872 0.948580 -0.056325
C27   C     C_R   0.009924 0.413952 0.410285 -0.085133
C28   C     C_R   0.958028 0.678778 0.551467 -0.056190
H5    H     H_    0.539579 0.855584 0.105727 0.150625
H6    H     H_    0.515868 0.303412 0.958812 0.223557
H7    H     H_    0.960283 0.356124 0.394119 0.150420
H8    H     H_    0.984239 0.803275 0.541288 0.223477
C29   C     C_R   0.474627 0.004999 0.025685 0.012245
C30   C     C_R   0.526783 0.010866 0.978546 -0.050446
C31   C     C_R   0.025324 0.504921 0.474271 0.012170
C32   C     C_R   0.973185 0.510803 0.521419 -0.050702
C33   C     C_R   0.085127 0.973029 0.110908 -0.305091
C34   C     C_R   0.913917 0.021482 0.890103 -0.273004
C35   C     C_R   0.414851 0.473111 0.389117 -0.304545
C36   C     C_R   0.586070 0.521426 0.609916 -0.272976
C37   C     C_R   0.019381 0.856010 0.927689 -0.363755
C38   C     C_R   0.976482 0.124773 0.075564 -0.309682
C39   C     C_R   0.480698 0.355576 0.572256 -0.363666
C40   C     C_R   0.523429 0.625168 0.424515 -0.309641
C41   C     C_R   0.965484 0.901139 0.875641 0.598539
C42   C     C_R   0.030240 0.078162 0.127396 0.587873
C43   C     C_R   0.534597 0.400641 0.624309 0.598714
C44   C     C_R   0.469718 0.578388 0.372656 0.587830
C45   C     C_R   0.918957 0.101102 0.956205 -0.307551
C46   C     C_R   0.080399 0.895363 0.044637 -0.296224
C47   C     C_R   0.580954 0.601399 0.543868 -0.307260
C48   C     C_R   0.419592 0.395348 0.455371 -0.296431
C49   C     C_R   0.973528 0.056443 0.008216 0.136780
C50   C     C_R   0.024648 0.935079 0.993495 0.172110
C51   C     C_R   0.526399 0.556705 0.491846 0.136782
C52   C     C_R   0.475341 0.435062 0.506514 0.171873
H9    H     H_    0.121168 0.809827 0.032183 0.150137
H10   H     H_    0.878783 0.189830 0.968094 0.151222
H11   H     H_    0.378867 0.309595 0.467790 0.149981
H12   H     H_    0.621074 0.690387 0.532021 0.151255
H13   H     H_    0.056708 0.756715 0.916650 0.145364
H14   H     H_    0.936336 0.211795 0.088545 0.148926
H15   H     H_    0.443482 0.255832 0.583213 0.145004
H16   H     H_    0.563549 0.712328 0.411561 0.148949
N1    N     N_R   0.392469 0.185989 0.944169 0.226133
O21   O     O_R   0.363257 0.347260 0.942425 -0.348504
O22   O     O_R   0.399678 0.105364 0.886433 -0.426662
N2    N     N_R   0.543171 0.672283 0.988077 0.226160
O23   O     O_R   0.586146 0.568489 0.027209 -0.478424
O24   O     O_R   0.479811 0.626422 0.978609 -0.396981
N3    N     N_R   0.107622 0.684960 0.555974 0.226438
O25   O     O_R   0.136876 0.846198 0.557866 -0.349287
O26   O     O_R   0.100366 0.604004 0.613630 -0.426421
N4    N     N_R   0.956728 0.172257 0.511805 0.226307
O27   O     O_R   0.913710 0.068383 0.472759 -0.478151
O28   O     O_R   0.020083 0.126339 0.521229 -0.397349
O29   O     O_3   0.302043 0.169142 0.041266 -0.633070
C53   C     C_3   0.256384 0.067663 0.993347 0.231610
H17   H     H_    0.237861 0.944725 0.019104 0.048597
H18   H     H_    0.279855 0.018469 0.948764 0.145298
C54   C     C_3   0.196655 0.192769 0.966172 -0.211579
H19   H     H_    0.163305 0.205618 0.006082 0.185679
H20   H     H_    0.214950 0.333701 0.955503 0.237151
C55   C     C_3   0.156668 0.116101 0.899716 -1.018700
H21   H     H_    0.185828 0.132602 0.856454 0.290717
H22   H     H_    0.108338 0.192279 0.886886 0.272839
H23   H     H_    0.146173 0.966738 0.905808 0.258841
O30   O     O_3   0.654629 0.708664 0.916240 -0.640183
C56   C     C_3   0.704852 0.686506 0.975192 0.261471
H24   H     H_    0.707496 0.536504 0.988305 0.149224
H25   H     H_    0.694066 0.761367 0.022148 0.089772
C57   C     C_3   0.773768 0.747354 0.959641 -0.314465
H26   H     H_    0.785672 0.670081 0.914291 0.248803
H27   H     H_    0.772849 0.898045 0.947871 0.163802
C58   C     C_3   0.829066 0.708890 0.020661 -1.022164
H28   H     H_    0.820862 0.793193 0.065995 0.268283
H29   H     H_    0.878770 0.745291 0.006601 0.287144
H30   H     H_    0.829847 0.559507 0.034582 0.262866
O31   O     O_3   0.198137 0.667756 0.459027 -0.633411
C59   C     C_3   0.243546 0.565342 0.506878 0.231446
H31   H     H_    0.262731 0.444184 0.480662 0.049385
H32   H     H_    0.219669 0.513239 0.550794 0.143768
C60   C     C_3   0.302713 0.690797 0.535499 -0.210759
H33   H     H_    0.336495 0.706876 0.496129 0.185637
H34   H     H_    0.283833 0.830529 0.546925 0.238211
C61   C     C_3   0.342305 0.611801 0.601730 -1.018682
H35   H     H_    0.312323 0.623006 0.644557 0.291047
H36   H     H_    0.390017 0.690118 0.615988 0.272760
H37   H     H_    0.353924 0.463661 0.594481 0.258703
O32   O     O_3   0.845286 0.208722 0.583687 -0.640105
C62   C     C_3   0.795043 0.186690 0.524744 0.261605
H38   H     H_    0.792382 0.036713 0.511587 0.149293
H39   H     H_    0.805817 0.261638 0.477803 0.089623
C63   C     C_3   0.726144 0.247512 0.540345 -0.314472
H40   H     H_    0.714260 0.170163 0.585686 0.248806
H41   H     H_    0.727076 0.398185 0.552154 0.163804
C64   C     C_3   0.670819 0.209150 0.479339 -1.022168
H42   H     H_    0.679005 0.293529 0.434020 0.268288
H43   H     H_    0.621128 0.245526 0.493434 0.287130
H44   H     H_    0.670026 0.059790 0.465379 0.262858
O33   O     O_3   0.029159 0.142851 0.193677 -0.677594
C65   C     C_3   0.024014 0.992725 0.239461 0.156609
H45   H     H_    0.064187 0.009497 0.284815 0.147828
H46   H     H_    0.031319 0.852387 0.217645 0.080663
C66   C     C_3   0.955269 0.996992 0.263570 -0.321819
H47   H     H_    0.945905 0.136740 0.283856 0.211220
H48   H     H_    0.915354 0.967894 0.218947 0.195034
C67   C     C_3   0.951309 0.853242 0.319952 -0.895678
H49   H     H_    0.959042 0.711674 0.300318 0.248819
H50   H     H_    0.900929 0.859267 0.336293 0.276941
H51   H     H_    0.990152 0.881604 0.365581 0.290303
O34   O     O_3   0.959567 0.814699 0.811851 -0.654195
C68   C     C_3   0.008074 0.885473 0.773624 0.160639
H52   H     H_    0.011745 0.786268 0.731043 0.172027
H53   H     H_    0.059323 0.893139 0.804535 0.112967
C69   C     C_3   0.986741 0.075098 0.741875 -0.437000
H54   H     H_    0.935945 0.063959 0.710373 0.241240
H55   H     H_    0.984313 0.178466 0.783395 0.202255
C70   C     C_3   0.036625 0.143997 0.696504 -0.751609
H56   H     H_    0.087236 0.162167 0.727738 0.257994
H57   H     H_    0.019575 0.279717 0.673414 0.267485
H58   H     H_    0.040115 0.043242 0.654443 0.294441
O35   O     O_3   0.470843 0.642957 0.306367 -0.677538
C71   C     C_3   0.475986 0.492738 0.260617 0.156483
H59   H     H_    0.435762 0.509305 0.215297 0.147781
H60   H     H_    0.468763 0.352425 0.282490 0.080636
C72   C     C_3   0.544693 0.497092 0.236426 -0.321687
H61   H     H_    0.554025 0.636862 0.216143 0.211191
H62   H     H_    0.584650 0.468002 0.281010 0.195029
C73   C     C_3   0.548607 0.353385 0.180015 -0.895828
H63   H     H_    0.540884 0.211797 0.199634 0.248842
H64   H     H_    0.598969 0.359425 0.163633 0.276977
H65   H     H_    0.509736 0.381786 0.134414 0.290284
O36   O     O_3   0.540657 0.313618 0.687996 -0.654125
C74   C     C_3   0.492092 0.383413 0.726352 0.160936
H66   H     H_    0.488692 0.283911 0.768905 0.171922
H67   H     H_    0.440796 0.390379 0.695525 0.113069
C75   C     C_3   0.513087 0.573207 0.758160 -0.438131
H68   H     H_    0.563967 0.562759 0.789539 0.241248
H69   H     H_    0.515197 0.676882 0.716671 0.202116
C76   C     C_3   0.463189 0.640948 0.803709 -0.750494
H70   H     H_    0.412486 0.658512 0.772597 0.257970
H71   H     H_    0.480011 0.776771 0.826868 0.267401
H72   H     H_    0.459991 0.539814 0.845725 0.294555

loop_
_geom_bond_atom_site_label_1
_geom_bond_atom_site_label_2
_geom_bond_distance
_ccdc_geom_bond_type
O17   V3    1.759179 S    
C39   C43   1.406433 A    
O35   C71   1.421033 S    
O1    C5    1.323047 A    
N1    O21   1.301157 A    
C27   H7    1.082736 S    
O19   V1    1.759225 S    
O13   V1    1.976933 S    
O3    C7    1.322984 A    
C10   C30   1.415868 A    
C40   C44   1.404566 A    
C60   C61   1.524601 S    
O15   V3    1.976958 S    
C59   H31   1.113110 S    
C64   H44   1.111041 S    
C61   H37   1.107614 S    
C55   H22   1.110649 S    
C73   H63   1.110805 S    
C58   H28   1.110826 S    
C72   H62   1.111565 S    
C57   H26   1.107339 S    
C36   C43   1.414743 A    
O7    C3    1.340575 A    
C41   O34   1.386692 S    
O5    C1    1.340612 A    
C12   N4    1.437068 S    
C67   H49   1.110796 S    
C10   N2    1.436987 S    
C14   C18   1.421738 A    
C48   H11   1.083975 S    
C56   H25   1.117948 S    
O16   V4    1.976960 S    
O4    C8    1.330331 A    
C62   C63   1.529195 S    
C11   N3    1.437442 S    
C58   H29   1.109163 S    
C53   H17   1.113192 S    
C59   H32   1.115123 S    
O1    V3    1.989071 S    
C8    C18   1.499073 S    
O30   C56   1.420894 S    
O2    V4    1.989071 S    
C18   C22   1.403796 A    
O3    V1    1.989053 S    
C38   C49   1.402889 A    
O36   C74   1.415326 S    
C47   H12   1.084216 S    
C37   C50   1.400331 A    
C54   H20   1.111978 S    
C64   H43   1.109155 S    
C5    C19   1.480578 S    
C25   C29   1.407546 A    
C1    O15   1.331977 A    
C6    C20   1.499112 S    
N3    O25   1.301190 A    
C76   H72   1.110154 S    
C2    O16   1.327977 A    
C65   C66   1.529766 S    
N2    O24   1.301391 A    
C38   C42   1.404593 A    
C28   C32   1.401563 A    
C42   O33   1.385026 S    
C37   C41   1.406474 A    
O14   V2    1.976933 S    
C21   H1    1.078742 S    
C72   C73   1.527349 S    
C57   C58   1.526937 S    
C48   C52   1.412350 A    
C36   C47   1.407544 A    
O11   C7    1.336233 A    
C21   C25   1.395065 A    
O12   C8    1.338487 A    
C16   O32   1.385959 S    
C63   C64   1.526940 S    
C69   H54   1.111275 S    
C38   H14   1.083908 S    
O10   V2    2.000936 S    
C37   H13   1.083541 S    
C55   H21   1.110853 S    
C68   H53   1.112660 S    
C71   H60   1.117574 S    
C64   H42   1.110826 S    
C70   H58   1.110028 S    
O5    V1    1.989089 S    
C69   C70   1.524713 S    
C15   O31   1.383608 S    
N4    O27   1.299895 A    
O8    V4    1.989128 S    
C12   C16   1.421904 A    
O7    V3    1.989128 S    
C70   H57   1.110221 S    
C56   C57   1.529217 S    
C70   H56   1.110838 S    
C25   H5    1.082689 S    
O18   V4    1.759179 S    
C58   H30   1.111040 S    
C15   C19   1.410895 A    
C26   C30   1.401534 A    
C34   C41   1.414652 A    
C4    C34   1.489145 S    
C49   C50   1.413951 A    
C33   C42   1.417571 A    
C28   H8    1.075604 S    
C27   C31   1.407557 A    
C44   O35   1.385049 S    
C11   C15   1.421964 A    
C74   H66   1.111168 S    
C1    C35   1.489478 S    
C13   O29   1.383592 S    
C23   H3    1.078784 S    
C74   H67   1.112558 S    
C14   O30   1.385964 S    
C46   C50   1.412377 A    
C51   C52   1.413932 A    
C45   C49   1.414203 A    
O8    C4    1.344497 A    
N2    O23   1.299920 A    
C22   C26   1.395546 A    
C4    O14   1.328005 A    
C12   C32   1.415838 A    
O9    C5    1.336189 A    
C66   C67   1.527330 S    
N4    O28   1.301408 A    
C46   H9    1.084003 S    
C9    C29   1.420675 A    
N3    O26   1.301390 A    
C45   H10   1.084226 S    
C65   H46   1.117571 S    
C54   C55   1.524914 S    
C66   H48   1.111568 S    
C75   H69   1.111080 S    
O31   C59   1.411906 S    
C59   C60   1.530125 S    
C24   H4    1.082252 S    
C40   C51   1.402924 A    
C68   C69   1.536006 S    
C71   H59   1.111224 S    
C57   H27   1.110699 S    
C23   C27   1.395159 A    
C39   C52   1.400315 A    
C26   H6    1.075539 S    
O9    V1    2.000938 S    
C76   H70   1.110896 S    
C24   C28   1.395546 A    
C34   C45   1.407536 A    
C3    O13   1.332025 A    
C33   C46   1.405366 A    
O6    V2    1.989088 S    
C10   C14   1.421852 A    
C3    C33   1.489489 S    
C67   H51   1.111421 S    
C35   C48   1.405348 A    
C60   H34   1.112065 S    
C9    N1    1.437482 S    
O6    C2    1.344543 A    
C73   H64   1.110234 S    
C62   H38   1.111435 S    
C71   C72   1.529767 S    
O11   V3    2.000966 S    
C61   H35   1.111036 S    
C2    C36   1.489145 S    
O12   V4    2.000966 S    
O29   C53   1.411845 S    
C22   H2    1.082233 S    
C7    C17   1.480593 S    
C74   C75   1.536016 S    
O34   C68   1.415355 S    
O10   C6    1.338509 A    
C75   C76   1.524591 S    
C69   H55   1.110983 S    
C75   H68   1.111322 S    
O20   V2    1.759225 S    
C72   H61   1.110502 S    
C68   H52   1.111177 S    
O33   C65   1.420991 S    
C47   C51   1.414162 A    
C62   H39   1.117952 S    
C53   H18   1.114817 S    
C40   H16   1.083887 S    
C67   H50   1.110236 S    
O2    C6    1.330322 A    
C61   H36   1.110938 S    
C63   H41   1.110699 S    
C13   C17   1.411053 A    
C29   C30   1.503435 S    
C9    C13   1.422082 A    
C73   H65   1.111420 S    
O32   C62   1.420889 S    
C31   C32   1.503312 S    
C20   C24   1.403804 A    
C16   C20   1.421791 A    
C39   H15   1.083593 S    
N1    O22   1.301445 A    
C54   H19   1.111565 S    
C17   C21   1.395103 A    
C63   H40   1.107360 S    
C11   C31   1.420563 A    
C35   C44   1.417611 A    
C76   H71   1.110224 S    
C66   H47   1.110506 S    
C56   H24   1.111435 S    
C43   O36   1.386682 S    
C19   C23   1.395235 A    
C55   H23   1.107824 S    
O4    V2    1.989052 S    
C60   H33   1.111571 S    
C65   H45   1.111224 S    
C53   C54   1.530167 S    
