data_mof_unit_55854.cif
_audit_creation_date              2013-03-05T15:44:28-0500
_audit_creation_method            fapswitch 2.2
_symmetry_space_group_name_H-M    P1
_symmetry_Int_Tables_number       1
_space_group_crystal_system       triclinic
_cell_length_a                    19.945279
_cell_length_b                    7.201903
_cell_length_c                    19.798287
_cell_angle_alpha                 89.197984
_cell_angle_beta                  98.376668
_cell_angle_gamma                 90.060205
_cell_volume                      2813.28788002

loop_
_atom_site_label
_atom_site_type_symbol
_atom_site_description
_atom_site_fract_x
_atom_site_fract_y
_atom_site_fract_z
_atom_type_partial_charge
O1    O     O_R   0.673210 0.377390 0.686390 -0.555263
O2    O     O_R   0.326790 0.622610 0.313610 -0.555331
O3    O     O_R   0.826790 0.877390 0.813610 -0.567915
O4    O     O_R   0.173210 0.122610 0.186390 -0.558443
O5    O     O_R   0.810750 0.706450 0.681250 -0.578974
O6    O     O_R   0.189250 0.293550 0.318750 -0.580421
O7    O     O_R   0.689250 0.206450 0.818750 -0.563834
O8    O     O_R   0.310750 0.793550 0.181250 -0.570949
C1    C     C_R   0.832072 0.540669 0.666058 0.844974
C2    C     C_R   0.168114 0.459415 0.334162 0.841140
C3    C     C_R   0.668262 0.038367 0.833775 0.832227
C4    C     C_R   0.332950 0.961112 0.167006 0.835960
O9    O     O_R   0.672750 0.707060 0.678240 -0.517837
O10   O     O_R   0.327250 0.292940 0.321760 -0.519730
O11   O     O_R   0.827250 0.207060 0.821760 -0.524155
O12   O     O_R   0.172750 0.792940 0.178240 -0.516079
O13   O     O_R   0.687800 0.877990 0.810580 -0.539245
O14   O     O_R   0.312200 0.122010 0.189420 -0.538559
O15   O     O_R   0.812200 0.377990 0.689420 -0.539980
O16   O     O_R   0.187800 0.622010 0.310580 -0.545322
C5    C     C_R   0.648246 0.540150 0.661624 0.865772
C6    C     C_R   0.351905 0.459700 0.338063 0.865168
C7    C     C_R   0.851858 0.038222 0.838599 0.862709
C8    C     C_R   0.148442 0.961541 0.161769 0.850620
O17   O     O_3   0.755100 0.544060 0.793420 -0.286391
O18   O     O_3   0.244900 0.455940 0.206580 -0.276869
O19   O     O_3   0.744900 0.044060 0.706580 -0.281548
O20   O     O_3   0.255100 0.955940 0.293420 -0.285587
V1    V     V_3+5 0.749050 0.818670 0.741950 1.206701
V2    V     V_3+5 0.250950 0.181330 0.258050 1.211199
V3    V     V_3+5 0.750950 0.318670 0.758050 1.206738
V4    V     V_3+5 0.249050 0.681330 0.241950 1.213304
C9    C     C_R   0.087412 0.968407 0.108712 -0.189883
C10   C     C_R   0.914670 0.034312 0.890617 -0.202257
C11   C     C_R   0.412799 0.459757 0.391667 -0.186897
C12   C     C_R   0.587620 0.539420 0.607502 -0.189546
C13   C     C_R   0.023437 0.178332 0.935644 0.300830
C14   C     C_R   0.968907 0.883909 0.073125 0.304881
C15   C     C_R   0.479141 0.680799 0.559894 0.328141
C16   C     C_R   0.521481 0.318133 0.438474 0.329022
C17   C     C_R   0.966459 0.165188 0.884527 0.269560
C18   C     C_R   0.026447 0.890607 0.123618 0.278597
C19   C     C_R   0.533652 0.661613 0.613244 0.284905
C20   C     C_R   0.466996 0.339105 0.385050 0.282118
C21   C     C_R   0.920034 0.918565 0.949807 -0.005462
C22   C     C_R   0.089659 0.052118 0.043918 0.005119
C23   C     C_R   0.587727 0.440213 0.546189 -0.008037
C24   C     C_R   0.412548 0.555829 0.453467 -0.005751
C25   C     C_R   0.972312 0.952615 0.005940 -0.060395
C26   C     C_R   0.029180 0.062300 0.994977 -0.064584
C27   C     C_R   0.527766 0.437233 0.496067 -0.055225
C28   C     C_R   0.472682 0.559424 0.503115 -0.055749
C29   C     C_R   0.563615 0.158683 0.877873 0.029178
C30   C     C_R   0.439601 0.839237 0.122966 0.055994
C31   C     C_R   0.928336 0.685622 0.609357 0.052462
C32   C     C_R   0.072037 0.315002 0.391211 0.052766
C33   C     C_R   0.618483 0.031873 0.882895 -0.076587
C34   C     C_R   0.385663 0.970408 0.120229 -0.070711
C35   C     C_R   0.882389 0.537142 0.616952 -0.078238
C36   C     C_R   0.118036 0.463197 0.383554 -0.079684
C37   C     C_R   0.628199 0.903204 0.936760 -0.071368
C38   C     C_R   0.382079 0.117394 0.072764 -0.073298
C39   C     C_R   0.882895 0.382053 0.575242 -0.073984
C40   C     C_R   0.117717 0.618230 0.425388 -0.077090
C41   C     C_R   0.585558 0.899060 0.987401 -0.027049
C42   C     C_R   0.429628 0.137614 0.027188 -0.022921
C43   C     C_R   0.925207 0.374207 0.524557 -0.022949
C44   C     C_R   0.075415 0.626318 0.476142 -0.023544
C45   C     C_R   0.531260 0.026871 0.983721 -0.013496
C46   C     C_R   0.484944 0.013225 0.031803 -0.014613
C47   C     C_R   0.976958 0.508183 0.523879 -0.000116
C48   C     C_R   0.023636 0.492503 0.476843 0.002987
C49   C     C_R   0.522942 0.166787 0.931708 0.062339
C50   C     C_R   0.493538 0.873684 0.083862 0.052910
C51   C     C_R   0.982370 0.656555 0.570726 0.066919
C52   C     C_R   0.018120 0.344307 0.429942 0.068685
C53   C     C_R   0.598398 0.775080 0.043576 0.334350
C54   C     C_R   0.423992 0.284005 0.978438 0.339716
C55   C     C_R   0.915737 0.236850 0.473881 0.334792
C56   C     C_R   0.084826 0.763904 0.526776 0.333414
C57   C     C_R   0.556241 0.775277 0.094865 -0.054647
C58   C     C_R   0.473997 0.308745 0.935589 -0.022263
C59   C     C_R   0.958943 0.231225 0.423530 -0.071303
C60   C     C_R   0.041475 0.770103 0.577056 -0.052401
H1    H     H_    0.670044 0.806721 0.938842 0.127897
H2    H     H_    0.339980 0.213086 0.070303 0.132229
H3    H     H_    0.846839 0.271904 0.579885 0.125115
H4    H     H_    0.153824 0.728216 0.420705 0.124099
C61   C     C_3   0.158372 0.105285 0.025143 -0.207400
H5    H     H_    0.159627 0.090641 0.969684 0.166104
H6    H     H_    0.171828 0.248795 0.041696 0.168981
H7    H     H_    0.198721 0.010038 0.049713 0.056473
C62   C     C_3   0.874381 0.749736 0.949358 -0.200145
H8    H     H_    0.891617 0.648655 0.990801 0.151856
H9    H     H_    0.821332 0.792631 0.951779 0.137978
H10   H     H_    0.876423 0.668821 0.902502 0.150380
C63   C     C_3   0.344838 0.625912 0.469738 -0.179408
H11   H     H_    0.341651 0.612015 0.525002 0.169224
H12   H     H_    0.336013 0.771500 0.451647 0.179038
H13   H     H_    0.301936 0.540394 0.445331 0.050549
C64   C     C_3   0.655123 0.365369 0.530864 -0.177173
H14   H     H_    0.661286 0.217310 0.546652 0.181713
H15   H     H_    0.659901 0.385126 0.476144 0.167787
H16   H     H_    0.698943 0.443128 0.557623 0.049322
N1    N     N_R   0.022028 0.823662 0.191401 0.093317
O21   O     O_R   0.982982 0.907670 0.228457 -0.346883
O22   O     O_R   0.048955 0.664708 0.212151 -0.340880
N2    N     N_R   0.962063 0.284384 0.825155 0.116249
O23   O     O_R   0.963144 0.463999 0.831498 -0.326976
O24   O     O_R   0.956057 0.213405 0.764494 -0.386491
N3    N     N_R   0.464480 0.225907 0.325478 0.114172
O25   O     O_R   0.459623 0.302892 0.265129 -0.399182
O26   O     O_R   0.462364 0.045786 0.331050 -0.301988
N4    N     N_R   0.536804 0.780160 0.671338 0.114562
O27   O     O_R   0.540818 0.959256 0.663425 -0.315383
O28   O     O_R   0.540207 0.709072 0.732509 -0.395986
N5    N     N_R   0.070744 0.326402 0.930451 0.097838
O29   O     O_R   0.076803 0.458350 0.975166 -0.349834
O30   O     O_R   0.101821 0.341161 0.877204 -0.272568
N6    N     N_R   0.905075 0.830858 0.093229 0.109863
O31   O     O_R   0.853159 0.941774 0.080658 -0.289373
O32   O     O_R   0.899406 0.676520 0.126919 -0.251098
N7    N     N_R   0.433854 0.835083 0.561701 0.099650
O33   O     O_R   0.431327 0.966289 0.515548 -0.319919
O34   O     O_R   0.401044 0.855458 0.613340 -0.277242
N8    N     N_R   0.567180 0.165573 0.435424 0.097999
O35   O     O_R   0.601006 0.151742 0.384238 -0.284407
O36   O     O_R   0.568054 0.028059 0.478867 -0.318615
C65   C     C_3   0.542508 0.258136 0.810051 -0.301989
H17   H     H_    0.556034 0.175941 0.767123 0.169970
H18   H     H_    0.486706 0.273863 0.798930 0.147244
H19   H     H_    0.568254 0.394406 0.809099 0.147319
C66   C     C_3   0.435413 0.656180 0.161311 -0.267337
H20   H     H_    0.386305 0.586935 0.145224 0.182374
H21   H     H_    0.471697 0.550972 0.148756 0.125297
H22   H     H_    0.442337 0.679327 0.217231 0.140506
C67   C     C_3   0.913892 0.879682 0.632721 -0.274461
H23   H     H_    0.861221 0.920547 0.611908 0.162589
H24   H     H_    0.921878 0.886010 0.689336 0.148746
H25   H     H_    0.944687 0.988062 0.611750 0.103728
C68   C     C_3   0.086275 0.120898 0.367775 -0.278183
H26   H     H_    0.138907 0.079719 0.388591 0.161083
H27   H     H_    0.055311 0.012745 0.388633 0.105065
H28   H     H_    0.078395 0.114684 0.311179 0.148084
N9    N     N_R   0.656571 0.654982 0.051141 0.075493
O37   O     O_R   0.717333 0.724955 0.060203 -0.286285
O38   O     O_R   0.648831 0.476248 0.056524 -0.348517
N10   N     N_R   0.366980 0.408216 0.971042 0.077056
O39   O     O_R   0.359777 0.524832 0.018958 -0.402361
O40   O     O_R   0.328620 0.424949 0.912232 -0.298169
N11   N     N_R   0.858933 0.112054 0.469734 0.067845
O41   O     O_R   0.797431 0.177399 0.461812 -0.338487
O42   O     O_R   0.868214 0.933983 0.465695 -0.374375
N12   N     N_R   0.141669 0.888554 0.530887 0.068888
O43   O     O_R   0.203152 0.823061 0.538847 -0.336715
O44   O     O_R   0.132438 0.066746 0.534567 -0.374480
C69   C     C_3   0.586636 0.702675 0.164949 -0.255532
H29   H     H_    0.639633 0.752609 0.177661 0.182659
H30   H     H_    0.559756 0.755920 0.205932 0.133310
H31   H     H_    0.587305 0.548547 0.166100 0.164346
C70   C     C_3   0.480768 0.500948 0.905032 -0.292924
H32   H     H_    0.466091 0.609228 0.939552 0.141324
H33   H     H_    0.534230 0.532697 0.900040 0.111371
H34   H     H_    0.447592 0.516094 0.855202 0.175589
C71   C     C_3   0.933292 0.132710 0.357582 -0.217443
H35   H     H_    0.878613 0.163159 0.341775 0.181244
H36   H     H_    0.958750 0.183004 0.314650 0.146652
H37   H     H_    0.939734 0.980139 0.364258 0.168342
C72   C     C_3   0.066781 0.870803 0.642717 -0.252548
H38   H     H_    0.121400 0.840312 0.658950 0.181560
H39   H     H_    0.060476 0.023243 0.635282 0.158779
H40   H     H_    0.041061 0.822965 0.685813 0.128180

loop_
_geom_bond_atom_site_label_1
_geom_bond_atom_site_label_2
_geom_bond_distance
_ccdc_geom_bond_type
C34   C38   1.400542 A    
C55   C59   1.410489 A    
O1    C5    1.332801 A    
C62   H8    1.105885 S    
C23   C64   1.521340 S    
C17   N2    1.438122 S    
C31   C35   1.428119 A    
O19   V1    1.756046 S    
O13   V1    2.005526 S    
C72   H38   1.111212 S    
O3    C7    1.333848 A    
N3    O25   1.300832 A    
C56   C60   1.411611 A    
C21   C62   1.517633 S    
C70   H34   1.109042 S    
C63   H11   1.108315 S    
N7    O33   1.301108 A    
C5    C12   1.494310 S    
O7    C3    1.324472 A    
C6    C11   1.491944 S    
N1    O22   1.300598 A    
C69   H29   1.110959 S    
C32   C52   1.426263 A    
C9    C18   1.406444 A    
C40   C44   1.404890 A    
O9    V1    2.004891 S    
C62   H10   1.108145 S    
O7    V3    2.003360 S    
N10   O40   1.300877 A    
C14   C18   1.409165 A    
C68   H27   1.105869 S    
C19   N4    1.435984 S    
N9    O37   1.301063 A    
O4    C8    1.331067 A    
C51   C60   1.425467 A    
N7    O34   1.301659 A    
O1    V3    1.984817 S    
C15   N7    1.436826 S    
N2    O23   1.301259 A    
C12   C23   1.417420 A    
O2    V4    1.984820 S    
C33   C37   1.395001 A    
O3    V1    1.992574 S    
C62   H9    1.110463 S    
C70   H33   1.108430 S    
C30   C50   1.433530 A    
C1    O15   1.334520 A    
C2    O16   1.334357 A    
C46   C50   1.421801 A    
C66   H22   1.110461 S    
N11   O41   1.301494 A    
C45   C49   1.422971 A    
O14   V2    2.005526 S    
C53   C57   1.409602 A    
C61   H6    1.109464 S    
C16   C20   1.408366 A    
N12   O44   1.301210 A    
C54   N10   1.436889 S    
C65   H19   1.108356 S    
C31   C51   1.426665 A    
O11   C7    1.331471 A    
C15   C28   1.424574 A    
C67   H23   1.109582 S    
O15   V3    1.996860 S    
O12   C8    1.326608 A    
C9    C22   1.416384 A    
C72   H39   1.110470 S    
C10   C17   1.414565 A    
O10   V2    2.004889 S    
O16   V4    1.996860 S    
C11   C24   1.414652 A    
C52   C59   1.424682 A    
N9    O38   1.301028 A    
N6    O32   1.301578 A    
C70   H32   1.111126 S    
O5    V1    2.017924 S    
C42   C54   1.412744 A    
C67   H25   1.105944 S    
C39   C43   1.403832 A    
C41   C53   1.410471 A    
C38   C42   1.407202 A    
C27   C28   1.432164 A    
O8    V4    2.003359 S    
C64   H14   1.108858 S    
C57   C69   1.517054 S    
N10   O39   1.299328 A    
C60   C72   1.518257 S    
C63   H12   1.109122 S    
N4    O27   1.300921 A    
C14   C25   1.423571 A    
C29   C33   1.417529 A    
O18   V4    1.773914 S    
C15   C19   1.406577 A    
C30   C66   1.520397 S    
C32   C36   1.427503 A    
C44   C48   1.413232 A    
C1    C35   1.496016 S    
C69   H30   1.108482 S    
C2    C36   1.496668 S    
O5    C1    1.321059 A    
C24   C63   1.521563 S    
C22   C61   1.518681 S    
C67   H24   1.110505 S    
C54   C58   1.410001 A    
N4    O28   1.300843 A    
C21   C25   1.432450 A    
O8    C4    1.325749 A    
C7    C10   1.501440 S    
C16   N8    1.435839 S    
O9    C5    1.324782 A    
C48   C52   1.418155 A    
N3    O26   1.301514 A    
C10   C21   1.419817 A    
C61   H7    1.110221 S    
O11   V3    1.991974 S    
C11   C20   1.409654 A    
C59   C71   1.516726 S    
N12   O43   1.301512 A    
C37   H1    1.082362 S    
C4    C34   1.499785 S    
C32   C68   1.519050 S    
O6    V2    2.017923 S    
C71   H37   1.110238 S    
C66   H20   1.105462 S    
C72   H40   1.108491 S    
C68   H28   1.110093 S    
C29   C65   1.517312 S    
C50   C57   1.425458 A    
C44   C56   1.412304 A    
C53   N9    1.436886 S    
C49   C58   1.424892 A    
C63   H13   1.109856 S    
N6    O31   1.301272 A    
C38   H2    1.081999 S    
C55   N11   1.439096 S    
C65   H17   1.107588 S    
C30   C34   1.427025 A    
C3    O13   1.328439 A    
N8    O36   1.301044 A    
C39   H3    1.082107 S    
O17   V3    1.773914 S    
C29   C49   1.432241 A    
O6    C2    1.321553 A    
C23   C27   1.438823 A    
C56   N12   1.439078 S    
C58   C70   1.516669 S    
C69   H31   1.109985 S    
O12   V4    1.991974 S    
C16   C27   1.427277 A    
N1    O21   1.300258 A    
C22   C26   1.434214 A    
C35   C39   1.399227 A    
C8    C9    1.487848 S    
C31   C67   1.519220 S    
C64   H15   1.108480 S    
C36   C40   1.400046 A    
O2    C6    1.332864 A    
N5    O30   1.301505 A    
C14   N6    1.437945 S    
C47   C48   1.415091 A    
C3    C33   1.487837 S    
C68   H26   1.109490 S    
C47   C51   1.418471 A    
C13   C26   1.422966 A    
O10   C6    1.323531 A    
C42   C46   1.413687 A    
N8    O35   1.301625 A    
C41   C45   1.415167 A    
O20   V2    1.756044 S    
N2    O24   1.301214 A    
C43   C47   1.413566 A    
N11   O42   1.301164 A    
C13   C17   1.411382 A    
C45   C46   1.422195 A    
C18   N1    1.434357 S    
C20   N3    1.437977 S    
C37   C41   1.406051 A    
C71   H35   1.111103 S    
C24   C28   1.436156 A    
C13   N5    1.435662 S    
C71   H36   1.108247 S    
C25   C26   1.422214 A    
C4    O14   1.334120 A    
C66   H21   1.103832 S    
C12   C19   1.409408 A    
C64   H16   1.109303 S    
C61   H5    1.108414 S    
N5    O29   1.301346 A    
C40   H4    1.082072 S    
C43   C55   1.411755 A    
O4    V2    1.992574 S    
C65   H18   1.108250 S    
