data_mof_unit_21478.cif
_audit_creation_date              2012-12-10T17:03:44-0500
_audit_creation_method            fapswitch 2.2
_symmetry_space_group_name_H-M    P1
_symmetry_Int_Tables_number       1
_space_group_crystal_system       triclinic
_cell_length_a                    10.068295
_cell_length_b                    10.692832
_cell_length_c                    13.089193
_cell_angle_alpha                 89.662501
_cell_angle_beta                  69.611657
_cell_angle_gamma                 89.544869
_cell_volume                      1320.83496136

loop_
_atom_site_label
_atom_site_type_symbol
_atom_type_description
_atom_site_fract_x
_atom_site_fract_y
_atom_site_fract_z
_atom_type_partial_charge
C1    C     C_R   0.495486 0.736822 0.509184 0.916233
C2    C     C_R   0.369369 0.481679 0.822924 -0.106190
C3    C     C_2   0.553940 0.070906 0.561284 -0.292670
C4    C     C_R   0.420995 0.493137 0.704266 0.841387
C5    C     C_2   0.512997 0.130011 0.486276 0.370788
C6    C     C_2   0.575621 0.936773 0.558122 0.207390
C7    C     C_2   0.479720 0.867143 0.534709 -0.266060
C8    C     C_2   0.078619 0.399965 0.492646 -0.126770
C9    C     C_2   0.922250 0.401506 0.513131 0.018214
C10   C     C_R   0.502525 0.263015 0.496316 0.789018
C11   C     C_R   0.579112 0.499098 0.295571 0.854083
C12   C     C_R   0.432210 0.469164 0.985320 0.084414
C13   C     C_R   0.770628 0.365241 0.019632 -0.190256
C14   C     C_R   0.627010 0.479463 0.178573 -0.065224
C15   C     C_R   0.236564 0.532200 0.883797 -0.186898
C16   C     C_R   0.198363 0.545609 0.995840 -0.156545
C17   C     C_R   0.296164 0.517859 0.046240 -0.184204
C18   C     C_3   0.519978 0.139193 0.305832 -0.288830
C19   C     C_3   0.703213 0.885990 0.580626 -0.786755
C20   C     C_3   0.935575 0.612573 0.346341 -0.128463
C21   C     C_3   0.806532 0.251230 0.806603 -0.943257
C22   C     C_R   0.460102 0.435784 0.876267 0.040374
C23   C     C_R   0.541388 0.452897 0.028948 0.027942
C24   C     C_R   0.665965 0.383120 0.971628 0.146063
C25   C     C_R   0.681135 0.331936 0.869097 0.166283
C26   C     C_R   0.578342 0.358941 0.822787 -0.205758
C27   C     C_R   0.530676 0.507869 0.127565 -0.229145
C28   C     C_R   0.749617 0.410989 0.123688 -0.240894
H1    H     H_    0.825246 0.387861 0.162959 0.150137
H2    H     H_    0.095031 0.582973 0.043128 0.137332
H3    H     H_    0.590302 0.317780 0.744714 0.160157
H4    H     H_    0.579851 0.123305 0.622889 0.114728
H5    H     H_    0.625025 0.185476 0.283384 0.149254
H6    H     H_    0.434380 0.209148 0.315301 0.180684
H7    H     H_    0.523551 0.077249 0.237241 0.189748
H8    H     H_    0.757792 0.961389 0.608449 0.211016
H9    H     H_    0.670065 0.813864 0.645895 0.244345
H10   H     H_    0.781018 0.846074 0.505192 0.267750
H11   H     H_    0.843863 0.667689 0.342529 0.185703
H12   H     H_    0.381104 0.909465 0.534588 0.170946
H13   H     H_    0.943574 0.520620 0.304892 0.134284
H14   H     H_    0.032266 0.665659 0.300095 0.123774
H15   H     H_    0.799008 0.217337 0.728757 0.233892
H16   H     H_    0.905793 0.305776 0.786820 0.245776
H17   H     H_    0.811958 0.167994 0.856142 0.242434
H18   H     H_    0.133839 0.310816 0.475475 0.151568
H19   H     H_    0.090669 0.575662 0.536546 0.237091
H20   H     H_    0.866780 0.313261 0.533790 0.087130
H21   H     H_    0.866393 0.312175 0.979424 0.156433
H22   H     H_    0.444090 0.570292 0.169018 0.152690
H23   H     H_    0.164170 0.564739 0.844427 0.157001
H24   H     H_    0.261359 0.532088 0.133206 0.128455
N1    N     N_2   0.148270 0.498670 0.498870 -0.172985
N2    N     N_2   0.852610 0.498640 0.498840 0.103730
O1    O     O_R   0.386950 0.680940 0.500020 -0.614550
O2    O     O_3   0.930017 0.600637 0.454858 -0.560226
O3    O     O_R   0.613110 0.680900 0.499980 -0.589517
O4    O     O_R   0.330780 0.500000 0.653640 -0.614121
O5    O     O_R   0.556930 0.499960 0.653610 -0.603286
O6    O     O_R   0.386890 0.319100 0.500020 -0.613525
O7    O     O_R   0.613050 0.319060 0.499980 -0.651833
O8    O     O_R   0.443070 0.500040 0.346390 -0.598553
O9    O     O_R   0.669220 0.500000 0.346360 -0.636044
O10   O     O_3   0.490772 0.065388 0.400928 -0.623368
Zn1   Zn    Zn3+2 0.349000 0.500030 0.500020 0.941203
Zn2   Zn    Zn3+2 0.651000 0.499970 0.499980 0.956475

loop_
_geom_bond_atom_site_label_1
_geom_bond_atom_site_label_2
_ccdc_geom_bond_type
C8    N1    D    
C2    C22   A    
C10   O6    A    
C23   C24   A    
C13   C28   A    
C6    C7    D    
C6    C19   S    
C19   H10   S    
C23   C27   A    
C14   C27   A    
C21   H16   S    
N1    Zn1   S    
C18   H7    S    
O4    Zn1   S    
C2    C4    S    
C15   H23   S    
O8    Zn1   S    
C27   H22   S    
H19   N1    S    
O3    Zn2   S    
C7    H12   S    
C11   O8    A    
C3    C6    S    
C20   H13   S    
C1    O1    A    
O9    Zn2   S    
C20   H14   S    
C26   H3    S    
C21   H15   S    
C12   C17   A    
C2    C15   A    
C18   H6    S    
C12   C23   A    
C18   O10   S    
C5    O10   S    
C16   C17   A    
C21   H17   S    
N2    Zn2   S    
C17   H24   S    
C28   H1    S    
O1    Zn1   S    
O6    Zn1   S    
C1    O3    A    
C19   H8    S    
O5    Zn2   S    
C3    H4    S    
C18   H5    S    
C13   H21   S    
C10   O7    A    
C16   H2    S    
C15   C16   A    
C12   C22   A    
C5    C10   S    
C24   C25   A    
C4    O5    A    
C9    H20   S    
C22   C26   A    
C4    O4    A    
C11   C14   S    
C20   H11   S    
C21   C25   S    
C8    C9    S    
C20   O2    S    
C9    N2    D    
C19   H9    S    
C8    H18   S    
C14   C28   A    
C25   C26   A    
C1    C7    S    
C11   O9    A    
O7    Zn2   S    
C13   C24   A    
N2    O2    S    
C3    C5    D    
