data_mof_unit_43428.cif
_audit_creation_date              2012-12-10T19:01:21-0500
_audit_creation_method            fapswitch 2.2
_symmetry_space_group_name_H-M    P1
_symmetry_Int_Tables_number       1
_space_group_crystal_system       triclinic
_cell_length_a                    9.545274
_cell_length_b                    10.823352
_cell_length_c                    15.504244
_cell_angle_alpha                 89.667774
_cell_angle_beta                  73.952805
_cell_angle_gamma                 90.192818
_cell_volume                      1539.31170611

loop_
_atom_site_label
_atom_site_type_symbol
_atom_type_description
_atom_site_fract_x
_atom_site_fract_y
_atom_site_fract_z
_atom_type_partial_charge
C1    C     C_R   0.998613 0.262357 0.502398 0.798045
C2    C     C_R   0.678052 0.463488 0.909918 0.086822
C3    C     C_R   0.780210 0.490417 0.958461 0.095777
C4    C     C_R   0.530389 0.436739 0.957180 0.005358
C5    C     C_R   0.484515 0.450475 0.052073 -0.043551
C6    C     C_R   0.592999 0.462082 0.098763 0.434116
C7    C     C_R   0.736866 0.488592 0.051677 -0.330711
C8    C     C_R   0.427726 0.394029 0.913271 -0.193870
C9    C     C_R   0.282828 0.373315 0.960186 -0.238917
C10   C     C_R   0.233224 0.401780 0.050974 0.161267
C11   C     C_R   0.332442 0.446338 0.096665 0.097011
C12   C     C_R   0.917709 0.499300 0.672205 0.793248
C13   C     C_R   0.084905 0.387762 0.096559 -0.226371
C14   C     C_R   0.033145 0.421753 0.186416 -0.200278
C15   C     C_R   0.275052 0.490851 0.184130 -0.204975
C16   C     C_R   0.117522 0.064299 0.515869 0.120703
C17   C     C_R   0.993236 0.129325 0.512494 -0.096625
C18   C     C_R   0.862448 0.063880 0.521435 -0.220896
C19   C     C_R   0.863071 0.935051 0.520654 -0.217437
C20   C     C_R   0.994527 0.870913 0.510750 -0.100017
C21   C     C_R   0.118436 0.937059 0.514464 0.136300
C22   C     C_3   0.269611 0.933734 0.453139 -0.482879
C23   C     C_R   0.999335 0.737770 0.501528 0.802200
C24   C     C_3   0.268961 0.073702 0.455639 -0.466698
C25   C     C_R   0.590512 0.597202 0.464025 0.246983
C26   C     C_R   0.554583 0.410257 0.543375 -0.088040
C27   C     C_R   0.405749 0.410190 0.543323 -0.083536
C28   C     C_R   0.442966 0.597506 0.464251 0.247346
C29   C     C_3   0.481645 0.641299 0.369256 -0.495537
C30   C     C_3   0.640312 0.641550 0.369412 -0.476985
C31   C     C_R   0.082264 0.496221 0.327833 0.796269
C32   C     C_R   0.872219 0.495384 0.770711 -0.054305
C33   C     C_R   0.128458 0.473731 0.230655 -0.080505
C34   C     C_R   0.926211 0.516417 0.913292 -0.182936
C35   C     C_R   0.972271 0.517706 0.820007 -0.195410
C36   C     C_R   0.726426 0.469068 0.815635 -0.229244
Cu1   Cu    Cu3+1 0.140670 0.499980 0.500000 0.940691
Cu2   Cu    Cu3+1 0.859330 0.500020 0.500000 0.933518
H1    H     H_    0.815433 0.505625 0.089058 0.162413
H2    H     H_    0.009492 0.349176 0.062875 0.134258
H3    H     H_    0.761685 0.111538 0.524272 0.157097
H4    H     H_    0.762540 0.886528 0.523233 0.162502
H5    H     H_    0.348313 0.891926 0.485815 0.197134
H6    H     H_    0.272816 0.896801 0.385866 0.191503
H7    H     H_    0.346300 0.112855 0.490410 0.191848
H8    H     H_    0.272690 0.117416 0.390049 0.209223
H9    H     H_    0.594773 0.336429 0.577219 0.132811
H10   H     H_    0.334629 0.336333 0.577127 0.136288
H11   H     H_    0.456346 0.571055 0.324487 0.258413
H12   H     H_    0.341990 0.542891 0.216450 0.189180
H13   H     H_    0.439893 0.734896 0.361813 0.184204
H14   H     H_    0.706701 0.572238 0.323206 0.226152
H15   H     H_    0.688812 0.735761 0.364145 0.190224
H16   H     H_    0.919522 0.406160 0.221449 0.143985
H17   H     H_    0.208143 0.338687 0.924407 0.144516
H18   H     H_    0.004889 0.536007 0.950202 0.145443
H19   H     H_    0.085504 0.538126 0.786558 0.155216
H20   H     H_    0.651878 0.456112 0.775486 0.146693
H21   H     H_    0.457105 0.371043 0.843042 0.136453
N1    N     N_R   0.648210 0.500930 0.499430 -0.183579
N2    N     N_R   0.352300 0.500890 0.499430 -0.180118
O1    O     O_R   0.118810 0.319640 0.500000 -0.582767
O2    O     O_R   0.881230 0.319680 0.499990 -0.590982
O3    O     O_R   0.055580 0.499970 0.629840 -0.583857
O4    O     O_R   0.818000 0.500010 0.629830 -0.583762
O5    O     O_R   0.118770 0.680320 0.500010 -0.576913
O6    O     O_R   0.881190 0.680360 0.500000 -0.583485
O7    O     O_R   0.182000 0.499990 0.370170 -0.579650
O8    O     O_R   0.944420 0.500030 0.370160 -0.582785
O9    O     O_3   0.560634 0.444977 0.190668 -0.648839
C37   C     C_3   0.611674 0.328719 0.211083 0.040147
H22   H     H_    0.630821 0.335921 0.278401 0.168452
H23   H     H_    0.717943 0.301789 0.163831 0.130534
C38   C     C_3   0.496940 0.227970 0.215021 -0.336932
H24   H     H_    0.392566 0.255197 0.263510 0.228376
H25   H     H_    0.478036 0.217572 0.147876 0.217573
C39   C     C_3   0.546064 0.103960 0.243590 -0.930110
H26   H     H_    0.649118 0.074446 0.194900 0.260061
H27   H     H_    0.461113 0.032782 0.245700 0.257544
H28   H     H_    0.563339 0.110934 0.311382 0.259606

loop_
_geom_bond_atom_site_label_1
_geom_bond_atom_site_label_2
_ccdc_geom_bond_type
C27   H10   S    
C8    C9    A    
C34   H18   S    
C16   C21   A    
C19   C20   A    
C4    C8    A    
C1    O1    A    
C14   C33   A    
Cu1   O1    S    
C29   H11   S    
C39   H26   S    
C25   C28   A    
C26   C27   A    
C29   C30   S    
C38   H25   S    
C24   H7    S    
C32   C36   A    
C23   O5    A    
C28   C29   S    
C5    C11   A    
C3    C7    A    
C36   H20   S    
C8    H21   S    
C5    C6    A    
C12   O3    A    
Cu1   O7    S    
C34   C35   A    
C15   H12   S    
C23   O6    A    
C13   H2    S    
C27   N2    A    
C11   C15   A    
C22   H6    S    
C16   C17   A    
C38   C39   S    
C31   C33   S    
O9    C37   S    
C9    H17   S    
C25   N1    A    
C9    C10   A    
C19   H4    S    
C28   N2    A    
Cu2   O8    S    
C16   C24   S    
C13   C14   A    
C12   C32   S    
C1    O2    A    
C39   H27   S    
C31   O7    A    
C30   H15   S    
C38   H24   S    
C32   C35   A    
C18   H3    S    
C37   H23   S    
C18   C19   A    
C3    C34   A    
C2    C4    A    
Cu1   Cu2   S    
C22   H5    S    
C20   C23   S    
Cu1   O5    S    
C17   C18   A    
Cu2   O6    S    
C26   H9    S    
Cu2   N1    S    
C14   H16   S    
C22   C24   S    
Cu1   O3    S    
Cu2   O2    S    
C29   H13   S    
C39   H28   S    
C2    C36   A    
C25   C30   S    
C6    O9    S    
C30   H14   S    
C4    C5    A    
C10   C13   A    
C37   C38   S    
Cu1   N2    S    
C6    C7    A    
C12   O4    A    
C1    C17   S    
C35   H19   S    
C24   H8    S    
C2    C3    A    
C37   H22   S    
C10   C11   A    
C31   O8    A    
C20   C21   A    
C7    H1    S    
C21   C22   S    
Cu2   O4    S    
C26   N1    A    
C15   C33   A    
