data_mof_unit_45290.cif
_audit_creation_date              2012-10-26T19:48:09-0400
_audit_creation_method            fapswitch 2.2
_symmetry_space_group_name_H-M    P1
_symmetry_Int_Tables_number       1
_space_group_crystal_system       triclinic
_cell_length_a                    11.010019
_cell_length_b                    9.896234
_cell_length_c                    10.865369
_cell_angle_alpha                 91.029845
_cell_angle_beta                  90.500337
_cell_angle_gamma                 89.452582
_cell_volume                      1183.57723466

loop_
_atom_site_label
_atom_site_type_symbol
_atom_type_description
_atom_site_fract_x
_atom_site_fract_y
_atom_site_fract_z
_atom_type_partial_charge
C1    C     C_R   0.260857 0.500976 0.505173 0.539087
C2    C     C_3   0.933754 0.491431 0.357180 -0.259762
C3    C     C_3   0.624203 0.082124 0.535939 0.218374
C4    C     C_3   0.617160 0.918189 0.555230 0.148317
C5    C     C_3   0.418346 0.086523 0.605745 0.595458
C6    C     C_3   0.399401 0.917118 0.587990 0.611593
C7    C     C_3   0.474183 0.088143 0.376238 0.555449
C8    C     C_3   0.474646 0.919527 0.374719 0.518215
C9    C     C_R   0.488706 0.499061 0.260270 0.532526
C10   C     C_R   0.738466 0.499345 0.490115 0.534259
C11   C     C_R   0.504461 0.501455 0.738160 0.529412
C12   C     C_3   0.475739 0.497835 0.120620 0.017309
C13   C     C_3   0.399757 0.585393 0.029093 0.150339
C14   C     C_3   0.461524 0.378247 0.027584 0.184427
C15   C     C_3   0.386472 0.465333 0.938443 -0.173176
C16   C     C_3   0.503398 0.505822 0.873331 0.025166
C17   C     C_3   0.515237 0.627095 0.962581 0.252828
C18   C     C_3   0.577965 0.417239 0.960821 0.224259
C19   C     C_3   0.591607 0.538847 0.049792 0.182842
C20   C     C_3   0.783622 0.106273 0.685904 -0.023395
C21   C     C_3   0.724158 0.807076 0.719842 -0.068232
C22   C     C_3   0.477757 0.070551 0.836286 -0.021241
C23   C     C_3   0.065779 0.631989 0.570294 0.194848
C24   C     C_3   0.315748 0.808878 0.769196 0.008471
C25   C     C_3   0.296216 0.129626 0.240237 -0.048426
C26   C     C_3   0.321436 0.817993 0.237658 -0.009009
C27   C     C_3   0.592071 0.105162 0.180005 -0.039062
C28   C     C_3   0.674982 0.846451 0.289331 -0.109937
C29   C     C_3   0.241408 0.153219 0.713170 -0.068034
C30   C     C_3   0.183391 0.953499 0.508640 -0.084054
C31   C     C_3   0.034942 0.736884 0.769532 -0.155421
C32   C     C_3   0.038077 0.372694 0.802355 -0.120008
C33   C     C_3   0.070649 0.383360 0.580315 0.175662
C34   C     C_3   0.925515 0.630741 0.549989 0.079463
C35   C     C_3   0.928648 0.376579 0.560540 0.074606
C36   C     C_3   0.075136 0.492715 0.369069 -0.360195
C37   C     C_3   0.121323 0.502686 0.506417 0.039985
C38   C     C_3   0.878185 0.499073 0.487090 0.041446
Cu1   Cu    Cu3+1 0.499860 0.642410 0.500060 1.066286
Cu2   Cu    Cu3+1 0.499860 0.357590 0.500060 1.173373
H1    H     H_    0.300336 0.437389 0.891546 0.139449
H2    H     H_    0.110465 0.579697 0.317168 0.101378
H3    H     H_    0.112565 0.399274 0.324656 0.112399
H4    H     H_    0.837357 0.191103 0.719195 0.143815
H5    H     H_    0.838351 0.046741 0.618254 0.116382
H6    H     H_    0.766603 0.053174 0.772474 0.126618
H7    H     H_    0.809759 0.835579 0.676986 0.108835
H8    H     H_    0.702191 0.699781 0.706647 0.186981
H9    H     H_    0.738907 0.822070 0.820148 0.120423
H10   H     H_    0.530973 0.137272 0.897230 0.205068
H11   H     H_    0.531986 0.978989 0.843736 0.231364
H12   H     H_    0.901340 0.576733 0.300175 0.151085
H13   H     H_    0.389201 0.059570 0.880188 0.053376
H14   H     H_    0.308596 0.698255 0.757431 0.227528
H15   H     H_    0.230078 0.855448 0.742100 0.109376
H16   H     H_    0.327938 0.831228 0.868583 0.152732
H17   H     H_    0.209142 0.078833 0.257890 0.069794
H18   H     H_    0.344805 0.069428 0.171026 0.143035
H19   H     H_    0.268218 0.229598 0.205183 0.146009
H20   H     H_    0.314009 0.710220 0.259806 0.187199
H21   H     H_    0.380119 0.840584 0.158422 0.189180
H22   H     H_    0.228056 0.848136 0.209880 0.080716
H23   H     H_    0.903257 0.399629 0.305907 0.147803
H24   H     H_    0.606424 0.196152 0.126356 0.203800
H25   H     H_    0.526287 0.037023 0.134984 0.143266
H26   H     H_    0.684511 0.062385 0.173544 0.068774
H27   H     H_    0.699771 0.751563 0.332918 0.230014
H28   H     H_    0.721147 0.934967 0.329837 0.059515
H29   H     H_    0.712257 0.834364 0.195283 0.139047
H30   H     H_    0.270568 0.235680 0.776660 0.185540
H31   H     H_    0.246724 0.057887 0.759072 0.050692
H32   H     H_    0.143731 0.158433 0.693362 0.120152
H33   H     H_    0.205985 0.045213 0.460822 0.203359
H34   H     H_    0.690234 0.098831 0.461622 0.150537
H35   H     H_    0.120063 0.969500 0.585739 0.084927
H36   H     H_    0.130160 0.901465 0.435423 0.103980
H37   H     H_    0.233329 0.598912 0.078684 0.304847
H38   H     H_    0.340398 0.239497 0.008789 0.286641
H39   H     H_    0.552585 0.808183 0.012575 0.321722
H40   H     H_    0.728809 0.324439 0.994251 0.311016
H41   H     H_    0.755303 0.601192 0.036231 0.315006
H42   H     H_    0.088723 0.763576 0.852965 0.130349
H43   H     H_    0.952308 0.692006 0.808564 0.083291
H44   H     H_    0.014243 0.830835 0.718876 0.096762
H45   H     H_    0.695744 0.872429 0.510165 0.150370
H46   H     H_    0.999565 0.270414 0.797409 0.064144
H47   H     H_    0.967699 0.452992 0.811058 0.138095
H48   H     H_    0.091481 0.377469 0.889210 0.114318
H49   H     H_    0.938804 0.758852 0.413450 0.301958
H50   H     H_    0.951693 0.234415 0.431600 0.302896
H51   H     H_    0.104174 0.717378 0.523769 0.171292
H52   H     H_    0.110819 0.290541 0.538644 0.161025
H53   H     H_    0.880246 0.629164 0.638790 0.124195
H54   H     H_    0.878776 0.382153 0.647430 0.147956
N1    N     N_3   0.500250 0.143650 0.502780 -0.221353
N2    N     N_3   0.500250 0.856350 0.502780 -0.244056
O1    O     O_R   0.317570 0.620260 0.500070 -0.473891
O2    O     O_3   0.627451 0.891265 0.682862 -0.514849
O3    O     O_3   0.477435 0.132115 0.719396 -0.469027
O4    O     O_3   0.417254 0.856934 0.705234 -0.495290
O5    O     O_3   0.358788 0.151075 0.351955 -0.505706
O6    O     O_3   0.351752 0.890584 0.344519 -0.558432
O7    O     O_3   0.567240 0.146901 0.302067 -0.549396
O8    O     O_3   0.548049 0.861184 0.277665 -0.589879
O9    O     O_3   0.306517 0.157110 0.601777 -0.544350
O10   O     O_3   0.282664 0.868455 0.542795 -0.522266
O11   O     O_3   0.293176 0.660817 0.042505 -0.788229
O12   O     O_R   0.317570 0.379740 0.500070 -0.443200
O13   O     O_3   0.419658 0.250187 0.051765 -0.778670
O14   O     O_3   0.546431 0.758285 0.932945 -0.709360
O15   O     O_3   0.672667 0.331303 0.922847 -0.721226
O16   O     O_3   0.701321 0.577807 0.105055 -0.744234
O17   O     O_3   0.101148 0.641014 0.697303 -0.540725
O18   O     O_3   0.117592 0.395908 0.703754 -0.547471
O19   O     O_3   0.887784 0.747634 0.487198 -0.788376
O20   O     O_3   0.896528 0.253626 0.501491 -0.739730
O21   O     O_R   0.499850 0.620240 0.316900 -0.479037
O22   O     O_R   0.499850 0.379760 0.316900 -0.422056
O23   O     O_R   0.682190 0.620260 0.500030 -0.536323
O24   O     O_R   0.682190 0.379740 0.500030 -0.426305
O25   O     O_R   0.499910 0.620280 0.683200 -0.462935
O26   O     O_R   0.499910 0.379720 0.683200 -0.404147
O27   O     O_3   0.673916 0.157436 0.637550 -0.433569

loop_
_geom_bond_atom_site_label_1
_geom_bond_atom_site_label_2
_ccdc_geom_bond_type
C14   O13   S    
Cu2   O22   S    
H49   O19   S    
C21   O2    S    
C4    O2    S    
C9    O21   A    
C14   C18   S    
C36   H2    S    
C28   H29   S    
C8    N2    S    
C34   H53   S    
C13   O11   S    
C17   O14   S    
C21   H9    S    
C7    C8    S    
C5    O9    S    
C19   O16   S    
C24   H15   S    
C33   O18   S    
C31   H42   S    
C36   C37   S    
C28   H28   S    
C26   H21   S    
C5    C6    S    
Cu1   O1    S    
C24   O4    S    
C24   H14   S    
C15   C16   S    
C32   H48   S    
C31   H43   S    
C12   C19   S    
C18   C19   S    
C3    H34   S    
C2    C38   S    
C20   O27   S    
C10   O23   A    
C5    N1    S    
C4    N2    S    
C5    O3    S    
C16   C17   S    
H50   O20   S    
C20   H5    S    
C1    C37   S    
C22   H10   S    
C21   H8    S    
C7    O7    S    
C30   O10   S    
C9    O22   A    
C29   O9    S    
C11   O25   A    
C25   H17   S    
C20   H4    S    
C3    O27   S    
C22   H13   S    
H37   O11   S    
C28   H27   S    
C18   O15   S    
C15   H1    S    
C33   H52   S    
C1    O1    A    
Cu1   Cu2   S    
C30   H33   S    
C17   C19   S    
C4    H45   S    
C34   O19   S    
Cu1   O21   S    
C32   H47   S    
C33   C37   S    
C31   H44   S    
C6    O4    S    
C27   H25   S    
C23   O17   S    
C30   H36   S    
C11   C16   S    
C28   O8    S    
H41   O16   S    
C23   C34   S    
C32   H46   S    
C35   C38   S    
C6    O10   S    
C35   O20   S    
C8    O8    S    
C2    H12   S    
Cu2   O24   S    
C12   C14   S    
C6    N2    S    
C13   C15   S    
C23   H51   S    
C11   O26   A    
C25   H18   S    
Cu2   N1    S    
C3    C4    S    
Cu2   O26   S    
C2    H23   S    
C29   H30   S    
C35   H54   S    
C2    C36   S    
C22   O3    S    
H39   O14   S    
C34   C38   S    
C29   H31   S    
C13   C17   S    
C24   H16   S    
C7    N1    S    
Cu1   O25   S    
Cu2   O12   S    
C10   C38   S    
C29   H32   S    
C26   H22   S    
C27   H26   S    
C23   C37   S    
C26   O6    S    
C30   H35   S    
C25   O5    S    
C26   H20   S    
Cu1   O23   S    
H40   O15   S    
C27   O7    S    
C33   C35   S    
H38   O13   S    
C9    C12   S    
Cu1   N2    S    
C10   O24   A    
C27   H24   S    
C1    O12   A    
C12   C13   S    
C16   C18   S    
C7    O5    S    
C14   C15   S    
C36   H3    S    
C3    N1    S    
C25   H19   S    
C32   O18   S    
C8    O6    S    
C31   O17   S    
C20   H6    S    
C22   H11   S    
C21   H7    S    
