data_mof_unit_35428.cif
_audit_creation_date              2012-12-10T16:55:49-0500
_audit_creation_method            fapswitch 2.2
_symmetry_space_group_name_H-M    P1
_symmetry_Int_Tables_number       1
_space_group_crystal_system       triclinic
_cell_length_a                    7.765008
_cell_length_b                    8.607572
_cell_length_c                    10.493662
_cell_angle_alpha                 91.09742
_cell_angle_beta                  85.531059
_cell_angle_gamma                 93.920381
_cell_volume                      697.537990805

loop_
_atom_site_label
_atom_site_type_symbol
_atom_type_description
_atom_site_fract_x
_atom_site_fract_y
_atom_site_fract_z
_atom_type_partial_charge
C1    C     C_R   0.546019 0.794491 0.507772 0.923803
C2    C     C_3   0.504634 0.503500 0.877009 -0.145636
C3    C     C_3   0.338331 0.462407 0.046036 0.513301
C4    C     C_3   0.661716 0.537685 0.953800 0.509927
C5    C     C_2   0.572433 0.957176 0.534701 -0.271615
C6    C     C_2   0.433309 0.046374 0.550725 -0.310882
C7    C     C_2   0.755257 0.018642 0.547060 0.500135
C8    C     C_2   0.253468 0.988170 0.592189 0.506610
C9    C     C_R   0.455464 0.207249 0.518911 0.908434
C10   C     C_R   0.502341 0.503530 0.742393 0.903002
C11   C     C_R   0.497684 0.496582 0.257588 0.938818
C12   C     C_3   0.394117 0.607355 0.965670 -0.214488
C13   C     C_3   0.605946 0.392733 0.034168 -0.223993
C14   C     C_3   0.553212 0.641794 0.044515 -0.284003
C15   C     C_3   0.446841 0.358288 0.955319 -0.281093
C16   C     C_3   0.495410 0.496588 0.122877 -0.155286
Cl1   Cl    Cl    0.122994 0.409437 0.109077 -0.551439
Cl2   Cl    Cl    0.876940 0.590795 0.890521 -0.553917
H1    H     H_    0.597044 0.756555 0.085053 0.191370
H2    H     H_    0.403058 0.243586 0.914611 0.203656
H3    H     H_    0.307791 0.694203 0.933781 0.221083
H4    H     H_    0.692355 0.305898 0.065940 0.215043
H5    H     H_    0.013482 0.380910 0.405558 0.235826
H6    H     H_    0.986522 0.619095 0.594451 0.231362
H7    H     H_    0.784788 0.102972 0.621900 0.101893
H8    H     H_    0.173239 0.925889 0.525533 0.140768
N1    N     N_2   0.950320 0.457950 0.465730 -0.149145
N2    N     N_2   0.049680 0.542050 0.534270 -0.151361
O1    O     O_R   0.389250 0.738570 0.508410 -0.655861
O2    O     O_2   0.193616 0.014229 0.700890 -0.553457
O3    O     O_R   0.610750 0.261430 0.491590 -0.635464
O4    O     O_R   0.678390 0.711620 0.486450 -0.578483
O5    O     O_R   0.321610 0.288380 0.513550 -0.607096
O6    O     O_R   0.355460 0.513510 0.697030 -0.591443
O7    O     O_R   0.644540 0.486490 0.302970 -0.587095
O8    O     O_R   0.644600 0.486560 0.675070 -0.616844
O9    O     O_R   0.355400 0.513440 0.324930 -0.596354
O10   O     O_2   0.872225 0.978877 0.471595 -0.573986
Zn1   Zn    Zn3+2 0.306940 0.517990 0.514670 1.019650
Zn2   Zn    Zn3+2 0.693060 0.482010 0.485330 1.024257

loop_
_geom_bond_atom_site_label_1
_geom_bond_atom_site_label_2
_ccdc_geom_bond_type
C2    C4    S    
H5    N1    S    
C8    H8    S    
C11   C16   S    
C7    H7    S    
N1    Zn2   S    
C2    C12   S    
C8    O2    D    
O1    Zn1   S    
C6    C9    S    
C11   O7    A    
O7    Zn2   S    
C4    Cl2   S    
C10   O6    A    
C9    O5    A    
C2    C15   S    
O5    Zn1   S    
C1    C5    S    
C5    C6    D    
C12   H3    S    
C1    O1    A    
C7    O10   D    
C12   C14   S    
C13   H4    S    
C3    Cl1   S    
C5    C7    S    
C13   C15   S    
C4    C14   S    
C15   H2    S    
C14   C16   S    
C9    O3    A    
O6    Zn1   S    
C2    C10   S    
H6    N2    S    
O8    Zn2   S    
O4    Zn2   S    
C3    C15   S    
O3    Zn2   S    
O9    Zn1   S    
C13   C16   S    
N1    N2    D    
C11   O9    A    
C6    C8    S    
C3    C12   S    
N2    Zn1   S    
C14   H1    S    
C1    O4    A    
C3    C16   S    
C4    C13   S    
C10   O8    A    
