data_mof_unit_33048.cif
_audit_creation_date              2012-10-26T18:27:09-0400
_audit_creation_method            fapswitch 2.2
_symmetry_space_group_name_H-M    P1
_symmetry_Int_Tables_number       1
_space_group_crystal_system       triclinic
_cell_length_a                    15.005697
_cell_length_b                    11.142871
_cell_length_c                    9.828186
_cell_angle_alpha                 89.58402
_cell_angle_beta                  89.302989
_cell_angle_gamma                 91.034716
_cell_volume                      1642.9015065

loop_
_atom_site_label
_atom_site_type_symbol
_atom_type_description
_atom_site_fract_x
_atom_site_fract_y
_atom_site_fract_z
_atom_type_partial_charge
C1    C     C_R   0.496563 0.266303 0.500552 0.537610
C2    C     C_R   0.185799 0.406544 0.466376 -0.125574
C3    C     C_R   0.233090 0.508487 0.503354 -0.014303
C4    C     C_R   0.329519 0.502657 0.500903 0.559222
C5    C     C_R   0.188656 0.610356 0.549953 0.049157
C6    C     C_2   0.478828 0.935024 0.397840 0.215571
C7    C     C_2   0.513538 0.866186 0.498791 0.081718
C8    C     C_2   0.495104 0.067792 0.393782 -0.147875
C9    C     C_2   0.483550 0.136099 0.504128 -0.116243
C10   C     C_2   0.446908 0.433395 0.925402 0.046770
C11   C     C_2   0.434317 0.453763 0.079681 0.481775
C12   C     C_R   0.906138 0.612350 0.527925 0.004355
C13   C     C_R   0.501624 0.734334 0.499538 0.594046
C14   C     C_R   0.670662 0.500442 0.499454 0.512236
C15   C     C_R   0.812734 0.607959 0.532382 -0.127229
C16   C     C_R   0.767047 0.502614 0.499142 -0.031656
C17   C     C_R   0.813013 0.398342 0.470843 -0.128078
C18   C     C_R   0.905909 0.396619 0.483148 0.002096
C19   C     C_R   0.953019 0.505347 0.507116 -0.033138
C20   C     C_2   0.570810 0.917489 0.607036 0.512123
C21   C     C_2   0.514731 0.619941 0.882503 0.758198
C22   C     C_3   0.304080 0.333898 0.094416 -0.023617
C23   C     C_R   0.952420 0.288083 0.474374 0.251410
C24   C     C_3   0.232040 0.371201 0.993849 -0.265721
C25   C     C_3   0.183049 0.262211 0.935830 -0.457474
C26   C     C_3   0.645169 0.572601 0.113116 0.085639
C27   C     C_3   0.614620 0.703510 0.137674 -0.238752
C28   C     C_3   0.671723 0.768453 0.242121 -0.454591
C29   C     C_3   0.867625 0.149999 0.597444 -0.022676
C30   C     C_3   0.935563 0.100112 0.696459 -0.234764
C31   C     C_3   0.890631 0.047977 0.824264 -0.462724
C32   C     C_2   0.096906 0.179916 0.461538 0.567325
C33   C     C_2   0.240315 0.704927 0.622031 0.604817
C34   C     C_R   0.046073 0.291330 0.467630 0.085601
C35   C     C_2   0.095340 0.838424 0.529900 0.608269
C36   C     C_3   0.873275 0.853764 0.405593 -0.029614
C37   C     C_3   0.940366 0.923665 0.316551 -0.226990
C38   C     C_3   0.895983 0.985032 0.196563 -0.452402
C39   C     C_3   0.367335 0.951860 0.234755 0.010712
C40   C     C_3   0.300790 0.873627 0.157093 -0.233744
C41   C     C_3   0.230945 0.949337 0.086786 -0.473838
C42   C     C_R   0.092930 0.401000 0.480640 -0.041996
C43   C     C_R   0.046702 0.507088 0.508771 -0.033488
C44   C     C_R   0.094367 0.614780 0.536847 -0.046990
C45   C     C_R   0.046887 0.723385 0.543661 0.086328
C46   C     C_R   0.953256 0.722516 0.536804 0.248614
Cu1   Cu    Cu3+1 0.500020 0.500020 0.638630 1.054418
Cu2   Cu    Cu3+1 0.499980 0.499980 0.361370 1.060900
H1    H     H_    0.774993 0.687423 0.555848 0.154567
H2    H     H_    0.348001 0.263136 0.052611 0.085966
H3    H     H_    0.183194 0.428810 0.047123 0.189024
H4    H     H_    0.262056 0.424524 0.908548 0.185696
H5    H     H_    0.230265 0.205223 0.878554 0.170362
H6    H     H_    0.130708 0.292463 0.865055 0.175192
H7    H     H_    0.150831 0.208431 0.019025 0.163917
H8    H     H_    0.685269 0.575967 0.017457 0.141423
H9    H     H_    0.697400 0.544303 0.184065 0.156573
H10   H     H_    0.624722 0.758000 0.044130 0.171466
H11   H     H_    0.543254 0.710205 0.162124 0.238465
H12   H     H_    0.512457 0.109338 0.296497 0.143035
H13   H     H_    0.671347 0.720589 0.341120 0.163735
H14   H     H_    0.646622 0.860476 0.258037 0.166564
H15   H     H_    0.740916 0.775946 0.202069 0.115326
H16   H     H_    0.816239 0.079664 0.579169 0.187554
H17   H     H_    0.832753 0.226222 0.645725 0.127785
H18   H     H_    0.971953 0.028447 0.644671 0.273419
H19   H     H_    0.983721 0.171944 0.725983 0.171430
H20   H     H_    0.855219 0.119226 0.880610 0.143702
H21   H     H_    0.942117 0.009460 0.890977 0.166749
H22   H     H_    0.842452 0.975318 0.797377 0.181866
H23   H     H_    0.461926 0.095708 0.600116 0.127266
H24   H     H_    0.197366 0.089966 0.549558 0.340282
H25   H     H_    0.256219 0.800349 0.793854 0.348897
H26   H     H_    0.185839 0.933016 0.417080 0.348129
H27   H     H_    0.812442 0.907692 0.420443 0.186523
H28   H     H_    0.852668 0.771657 0.349954 0.111388
H29   H     H_    0.973270 0.992083 0.379710 0.279012
H30   H     H_    0.991748 0.861867 0.277253 0.183054
H31   H     H_    0.865975 0.917041 0.128025 0.134729
H32   H     H_    0.946833 0.038618 0.138531 0.171748
H33   H     H_    0.843449 0.046532 0.232792 0.185481
H34   H     H_    0.411944 0.359302 0.877793 0.078517
H35   H     H_    0.400498 0.015656 0.161822 0.126712
H36   H     H_    0.329757 0.002634 0.313502 0.136700
H37   H     H_    0.336543 0.821181 0.079036 0.205474
H38   H     H_    0.267292 0.809040 0.228442 0.232650
H39   H     H_    0.194067 0.003607 0.162280 0.198548
H40   H     H_    0.182655 0.889699 0.033971 0.187701
H41   H     H_    0.263425 0.010175 0.010354 0.140587
H42   H     H_    0.775587 0.317757 0.444817 0.151392
H43   H     H_    0.223147 0.329390 0.433533 0.131889
H44   H     H_    0.675351 0.023135 0.655541 0.330281
H45   H     H_    0.465478 0.774914 0.952702 0.331099
H46   H     H_    0.270079 0.291195 0.183898 0.162323
N1    N     N_2   0.499020 0.498660 0.846910 -0.234431
N2    N     N_2   0.499000 0.498630 0.153040 -0.030091
O1    O     O_R   0.500020 0.321960 0.617040 -0.518040
O2    O     O_R   0.643961 0.991186 0.572207 -0.741702
O3    O     O_2   0.583517 0.669212 0.842039 -0.491906
O4    O     O_R   0.448030 0.686926 0.945177 -0.723710
O5    O     O_3   0.351071 0.436418 0.141469 -0.550438
O6    O     O_3   0.580158 0.478228 0.094911 -0.527833
O7    O     O_3   0.907410 0.178632 0.469196 -0.592877
O8    O     O_2   0.100959 0.123614 0.355689 -0.570362
O9    O     O_R   0.150290 0.150624 0.572191 -0.708545
O10   O     O_2   0.303428 0.755976 0.565378 -0.507739
O11   O     O_R   0.216124 0.735204 0.755054 -0.676976
O12   O     O_R   0.499980 0.321920 0.382900 -0.496839
O13   O     O_2   0.098885 0.907240 0.625681 -0.493061
O14   O     O_R   0.144338 0.861133 0.410501 -0.723799
O15   O     O_3   0.908735 0.830567 0.536325 -0.586172
O16   O     O_3   0.431713 0.877429 0.294382 -0.549014
O17   O     O_R   0.370270 0.499990 0.617090 -0.516622
O18   O     O_R   0.370240 0.499950 0.382940 -0.442677
O19   O     O_R   0.500020 0.678080 0.617100 -0.442806
O20   O     O_R   0.499980 0.678040 0.382960 -0.491539
O21   O     O_R   0.629760 0.500050 0.617060 -0.476182
O22   O     O_R   0.629730 0.500010 0.382910 -0.516774
O23   O     O_2   0.553406 0.896015 0.726631 -0.489496

loop_
_geom_bond_atom_site_label_1
_geom_bond_atom_site_label_2
_ccdc_geom_bond_type
C11   N2    D    
C24   H4    S    
C41   H41   S    
N2    O6    S    
C34   C42   A    
H44   O2    S    
C45   C46   A    
Cu1   O19   S    
C26   C27   S    
C29   C30   S    
C22   O5    S    
C4    O18   A    
C36   C37   S    
C25   H5    S    
C39   H36   S    
C30   C31   S    
C21   O3    D    
H25   O11   S    
C38   H31   S    
C15   C16   A    
C29   O7    S    
C18   C19   A    
C40   H38   S    
C36   H28   S    
C31   H22   S    
C23   O7    S    
C8    C9    D    
C14   O22   A    
C33   O11   S    
C32   O8    D    
C30   H19   S    
C35   O13   D    
Cu2   O20   S    
C28   H13   S    
C14   O21   A    
C24   H3    S    
C29   H16   S    
C46   O15   S    
C22   H46   S    
C19   C43   A    
C31   H20   S    
C41   H39   S    
C33   O10   D    
C18   C23   A    
C25   H7    S    
C4    O17   A    
C1    C9    S    
C24   C25   S    
C12   C46   A    
C1    O1    A    
C39   C40   S    
C21   O4    S    
C16   C17   A    
C6    C8    S    
C21   N1    S    
C37   H29   S    
C10   H34   S    
C5    C33   S    
C32   C34   S    
C40   H37   S    
C43   C44   A    
C37   C38   S    
C36   H27   S    
C31   H21   S    
Cu1   Cu2   S    
C12   C15   A    
C7    C13   S    
C23   C34   A    
C36   O15   S    
C17   C18   A    
C11   O5    S    
C30   H18   S    
C25   H6    S    
H45   O4    S    
C13   O19   A    
C35   O14   S    
C29   H17   S    
C40   C41   S    
C5    C44   A    
C32   O9    S    
C38   H33   S    
C14   C16   S    
C42   C43   A    
C3    C4    S    
C35   C45   S    
C44   C45   A    
Cu2   O18   S    
Cu1   O17   S    
C41   H40   S    
C39   O16   S    
Cu2   N2    S    
C6    O16   S    
C17   H42   S    
C9    H23   S    
C3    C5    A    
C27   H10   S    
C26   H8    S    
H26   O14   S    
Cu2   O22   S    
C6    C7    D    
C37   H30   S    
Cu1   O1    S    
C22   H2    S    
C2    C3    A    
C39   H35   S    
C27   H11   S    
C8    H12   S    
Cu2   O12   S    
C38   H32   S    
C10   N1    D    
C2    C42   A    
C12   C19   A    
C22   C24   S    
C15   H1    S    
C2    H43   S    
C26   H9    S    
C13   O20   A    
C10   C11   S    
C1    O12   A    
C28   H15   S    
Cu1   O21   S    
C20   O2    S    
H24   O9    S    
C7    C20   S    
C27   C28   S    
Cu1   N1    S    
C20   O23   D    
C26   O6    S    
C28   H14   S    
