data_mof_unit_14885.cif
_audit_creation_date              2012-12-10T20:38:17-0500
_audit_creation_method            fapswitch 2.2
_symmetry_space_group_name_H-M    P1
_symmetry_Int_Tables_number       1
_space_group_crystal_system       triclinic
_cell_length_a                    9.87339
_cell_length_b                    10.67644
_cell_length_c                    16.620414
_cell_angle_alpha                 90.428829
_cell_angle_beta                  85.865451
_cell_angle_gamma                 90.409792
_cell_volume                      1747.35502956

loop_
_atom_site_label
_atom_site_type_symbol
_atom_type_description
_atom_site_fract_x
_atom_site_fract_y
_atom_site_fract_z
_atom_type_partial_charge
C1    C     C_R   0.499972 0.739994 0.503287 0.875038
C2    C     C_R   0.357431 0.508143 0.788212 -0.208502
C3    C     C_R   0.445301 0.672471 0.159078 -0.158973
C4    C     C_R   0.432169 0.626370 0.236881 -0.218846
C5    C     C_R   0.641860 0.510476 0.211798 -0.204427
C6    C     C_R   0.654200 0.555535 0.133287 -0.169067
C7    C     C_R   0.553931 0.633763 0.106023 0.204277
C8    C     C_2   0.441325 0.659687 0.981829 -0.238721
C9    C     C_2   0.556646 0.660784 0.019899 -0.238668
C10   C     C_R   0.528617 0.543031 0.262973 -0.025264
C11   C     C_R   0.375535 0.934867 0.521312 0.136552
C12   C     C_R   0.481761 0.504835 0.653316 0.847298
C13   C     C_R   0.498347 0.871203 0.517949 -0.102433
C14   C     C_R   0.618850 0.936220 0.530797 -0.231347
C15   C     C_R   0.618477 0.065823 0.530363 -0.227327
C16   C     C_R   0.497615 0.128552 0.517065 -0.110630
C17   C     C_R   0.375169 0.062729 0.520710 0.138871
C18   C     C_3   0.261018 0.066718 0.466511 -0.498563
C19   C     C_3   0.260813 0.924936 0.467652 -0.480585
C20   C     C_R   0.924237 0.584999 0.545724 0.208897
C21   C     C_R   0.932861 0.425896 0.448352 -0.200414
C22   C     C_R   0.077244 0.427377 0.446881 0.238109
C23   C     C_R   0.499425 0.259848 0.502820 0.883522
C24   C     C_R   0.066485 0.584392 0.546048 0.159872
C25   C     C_3   0.062074 0.598580 0.635332 -0.487848
C26   C     C_3   0.908324 0.600104 0.635168 -0.521023
C27   C     C_R   0.518173 0.505068 0.346768 0.860908
C28   C     C_R   0.471058 0.542024 0.737615 -0.022955
C29   C     C_R   0.567165 0.626428 0.764805 -0.213264
C30   C     C_R   0.553297 0.672738 0.842927 -0.158292
C31   C     C_R   0.444384 0.632733 0.895401 0.202908
C32   C     C_R   0.344432 0.553143 0.867147 -0.167889
H1    H     H_    0.651138 0.659223 0.725008 0.146656
H2    H     H_    0.739040 0.525488 0.092932 0.123885
H3    H     H_    0.714332 0.888105 0.534894 0.168604
H4    H     H_    0.713838 0.115534 0.534297 0.171494
H5    H     H_    0.167773 0.107842 0.497230 0.199144
H6    H     H_    0.292875 0.105640 0.406157 0.206461
H7    H     H_    0.167894 0.884177 0.499339 0.202434
H8    H     H_    0.291264 0.881991 0.407937 0.201900
H9    H     H_    0.881887 0.364425 0.408001 0.153718
H10   H     H_    0.100999 0.514874 0.665417 0.213221
H11   H     H_    0.348217 0.658274 0.277238 0.142906
H12   H     H_    0.106076 0.689526 0.653906 0.202968
H13   H     H_    0.858475 0.517933 0.665845 0.221441
H14   H     H_    0.864444 0.692548 0.653168 0.188744
H15   H     H_    0.719254 0.449264 0.232210 0.140593
H16   H     H_    0.654356 0.654574 0.985676 0.147700
H17   H     H_    0.259352 0.522039 0.907013 0.124442
H18   H     H_    0.369509 0.736616 0.140165 0.128155
H19   H     H_    0.280280 0.445919 0.767035 0.138597
H20   H     H_    0.343687 0.651707 0.016017 0.147377
H21   H     H_    0.628823 0.738033 0.862517 0.129055
N1    N     N_R   0.857140 0.500860 0.500530 -0.113742
N2    N     N_R   0.142780 0.500820 0.500530 -0.122097
O1    O     O_R   0.385310 0.683210 0.499990 -0.618537
O2    O     O_R   0.614650 0.683240 0.500000 -0.619308
O3    O     O_R   0.371780 0.500000 0.615800 -0.618343
O4    O     O_R   0.601120 0.500040 0.615800 -0.617943
O5    O     O_R   0.385350 0.316760 0.500000 -0.598024
O6    O     O_R   0.614690 0.316790 0.500010 -0.623153
O7    O     O_R   0.398880 0.499960 0.384200 -0.590148
O8    O     O_R   0.628220 0.500000 0.384200 -0.613700
Zn1   Zn    Zn3+2 0.346870 0.499980 0.499990 0.955274
Zn2   Zn    Zn3+2 0.653130 0.500020 0.500010 0.940153
N3    N     N_2   0.153246 0.350983 0.390347 -0.256368
H22   H     H_    0.123089 0.258612 0.394415 0.197721
C33   C     C_3   0.152534 0.393598 0.307909 -0.768784
H23   H     H_    0.050940 0.377923 0.284673 0.208444
H24   H     H_    0.229051 0.340516 0.269396 0.236973
H25   H     H_    0.178180 0.494845 0.303808 0.250870

loop_
_geom_bond_atom_site_label_1
_geom_bond_atom_site_label_2
_ccdc_geom_bond_type
C10   C27   S    
C25   H10   S    
N3    C33   S    
O1    Zn1   S    
C22   N2    A    
C4    H11   S    
O6    Zn2   S    
C11   C13   A    
C8    H20   S    
O7    Zn1   S    
C31   C32   A    
C21   N1    A    
O5    Zn1   S    
C12   O3    A    
N2    Zn1   S    
O8    Zn2   S    
C17   C18   S    
C18   H6    S    
C5    C10   A    
N1    Zn2   S    
C21   C22   A    
O4    Zn2   S    
C24   N2    A    
C2    C32   A    
C5    H15   S    
C30   C31   A    
C11   C19   S    
C29   C30   A    
C6    H2    S    
C27   O8    A    
C12   C28   S    
C33   H25   S    
C21   H9    S    
C5    C6    A    
C19   H7    S    
C25   H12   S    
C33   H24   S    
C28   C29   A    
C27   O7    A    
C18   H5    S    
N3    H22   S    
C16   C23   S    
C3    C7    A    
C12   O4    A    
O3    Zn1   S    
C23   O5    A    
C30   H21   S    
C1    O1    A    
C32   H17   S    
C1    C13   S    
C19   H8    S    
C26   H14   S    
C4    C10   A    
C15   C16   A    
C29   H1    S    
C15   H4    S    
C23   O6    A    
C24   C25   S    
C9    H16   S    
C20   N1    A    
C18   C19   S    
C2    H19   S    
C14   H3    S    
C7    C9    S    
C20   C24   A    
C14   C15   A    
C11   C17   A    
C2    C28   A    
C26   H13   S    
C25   C26   S    
C33   H23   S    
C8    C31   S    
C3    H18   S    
C22   N3    S    
C6    C7    A    
C3    C4    A    
C16   C17   A    
O2    Zn2   S    
C8    C9    D    
C20   C26   S    
C13   C14   A    
C1    O2    A    
