data_mof_unit_68158.cif
_audit_creation_date              2013-03-05T16:01:51-0500
_audit_creation_method            fapswitch 2.2
_symmetry_space_group_name_H-M    P1
_symmetry_Int_Tables_number       1
_space_group_crystal_system       triclinic
_cell_length_a                    21.003
_cell_length_b                    7.376836
_cell_length_c                    13.460521
_cell_angle_alpha                 89.393058
_cell_angle_beta                  103.052137
_cell_angle_gamma                 90.66454
_cell_volume                      2031.43099526

loop_
_atom_site_label
_atom_site_type_symbol
_atom_site_description
_atom_site_fract_x
_atom_site_fract_y
_atom_site_fract_z
_atom_type_partial_charge
O1    O     O_R   0.449520 0.506760 0.599710 -0.626186
O2    O     O_R   0.550480 0.006760 0.400290 -0.604783
O3    O     O_R   0.587930 0.180200 0.595790 -0.565412
O4    O     O_R   0.412070 0.680200 0.404210 -0.597090
C1    C     C_R   0.614137 0.344863 0.620279 0.902449
C2    C     C_R   0.386273 0.843713 0.378888 0.841806
O5    O     O_R   0.452350 0.177380 0.611700 -0.497824
O6    O     O_R   0.547650 0.677380 0.388300 -0.506151
O7    O     O_R   0.413930 0.001760 0.416320 -0.573093
O8    O     O_R   0.586070 0.501760 0.583680 -0.583201
C3    C     C_R   0.435469 0.343994 0.639383 0.917413
C4    C     C_R   0.564583 0.846353 0.362225 0.893666
O9    O     O_3   0.487550 0.337460 0.435880 -0.268282
O10   O     O_3   0.512450 0.837460 0.564120 -0.284295
V1    V     V_3+5 0.502310 0.064670 0.511900 1.254932
V2    V     V_3+5 0.497690 0.564670 0.488100 1.241108
C5    C     C_R   0.608578 0.894438 0.101086 0.125546
C6    C     C_R   0.390402 0.277113 0.903440 0.205327
H1    H     H_    0.523537 0.944794 0.158757 0.135880
H2    H     H_    0.469591 0.203570 0.838401 0.171279
H3    H     H_    0.693015 0.968722 0.985059 0.183367
H4    H     H_    0.302151 0.239263 0.021199 0.187092
C7    C     C_R   0.602969 0.856963 0.279878 -0.051209
C8    C     C_R   0.398063 0.345418 0.725712 -0.091882
C9    C     C_R   0.913546 0.955066 0.295417 -0.290093
C10   C     C_R   0.084423 0.339702 0.700397 -0.296532
C11   C     C_R   0.881751 0.976553 0.373366 0.086757
C12   C     C_R   0.116908 0.351642 0.622435 0.084734
C13   C     C_R   0.815684 0.922771 0.360990 0.176955
C14   C     C_R   0.186359 0.362344 0.642991 0.211701
C15   C     C_R   0.780537 0.867397 0.259558 0.030217
C16   C     C_R   0.221866 0.379111 0.748385 0.001681
C17   C     C_R   0.816335 0.856366 0.178165 -0.018164
C18   C     C_R   0.184996 0.376825 0.828343 -0.016836
C19   C     C_R   0.709821 0.848930 0.231567 0.034070
C20   C     C_R   0.292918 0.377869 0.778464 0.046790
C21   C     C_R   0.677683 0.882152 0.128887 0.098206
C22   C     C_R   0.322771 0.320563 0.878803 0.046643
C23   C     C_R   0.714779 0.907414 0.056528 -0.222861
C24   C     C_R   0.284418 0.305733 0.950747 -0.201556
C25   C     C_R   0.780208 0.861343 0.074308 0.118311
C26   C     C_R   0.219753 0.361043 0.932222 0.112433
C27   C     C_R   0.668772 0.806771 0.300307 -0.251461
C28   C     C_R   0.336115 0.424247 0.712968 -0.259734
C29   C     C_R   0.574213 0.908333 0.179386 -0.195676
C30   C     C_R   0.422606 0.264055 0.821868 -0.129356
C31   C     C_R   0.886224 0.872590 0.203590 -0.101918
C32   C     C_R   0.114946 0.367254 0.800574 -0.117562
H5    H     H_    0.685362 0.731247 0.368980 0.138756
H6    H     H_    0.322081 0.515813 0.650216 0.092616
H7    H     H_    0.958378 0.027746 0.302162 0.153386
H8    H     H_    0.033104 0.305951 0.682224 0.104775
H9    H     H_    0.112132 0.796288 0.482505 0.206792
H10   H     H_    0.871751 0.587943 0.517067 0.200410
C33   C     C_R   0.228700 0.841398 0.026087 0.148276
C34   C     C_R   0.771095 0.342048 0.974568 0.172515
C35   C     C_R   0.279220 0.781071 0.984551 -0.160289
C36   C     C_R   0.715905 0.345759 0.015594 -0.216692
C37   C     C_R   0.341212 0.763776 0.041433 -0.045962
C38   C     C_R   0.654123 0.338728 0.956666 -0.081210
C39   C     C_R   0.355292 0.788499 0.147638 -0.167982
C40   C     C_R   0.643862 0.325944 0.850691 -0.079558
C41   C     C_R   0.304201 0.829289 0.199426 0.006369
C42   C     C_R   0.696661 0.338703 0.799949 0.017230
C43   C     C_R   0.238123 0.847530 0.136387 0.034381
C44   C     C_R   0.762940 0.345013 0.863412 0.024127
C45   C     C_R   0.316710 0.845714 0.310160 -0.234432
C46   C     C_R   0.684183 0.350272 0.689303 -0.257674
C47   C     C_R   0.261445 0.846821 0.356875 0.049099
C48   C     C_R   0.738749 0.380154 0.643381 0.040094
C49   C     C_R   0.195406 0.854757 0.293559 0.069711
C50   C     C_R   0.804369 0.406305 0.706451 0.056303
C51   C     C_R   0.183626 0.861641 0.183786 -0.251852
C52   C     C_R   0.817448 0.365405 0.815024 -0.234593
C53   C     C_R   0.269097 0.837787 0.466875 -0.193287
C54   C     C_R   0.729404 0.388335 0.533605 -0.173739
C55   C     C_R   0.214573 0.810753 0.509035 -0.049272
C56   C     C_R   0.778815 0.459607 0.489843 -0.067022
C57   C     C_R   0.153274 0.807110 0.446759 -0.100283
C58   C     C_R   0.835790 0.522163 0.552281 -0.106304
C59   C     C_R   0.142401 0.851878 0.344536 0.130567
C60   C     C_R   0.853102 0.478899 0.655470 0.099625
H11   H     H_    0.272667 0.758693 0.903673 0.136423
H12   H     H_    0.719241 0.352871 0.096579 0.143229
O11   O     O_R   0.913760 0.203480 0.916370 -0.598943
O12   O     O_R   0.086240 0.703480 0.083630 -0.600388
O13   O     O_R   0.047590 0.535230 0.888250 -0.607024
O14   O     O_R   0.952410 0.035230 0.111750 -0.616478
C61   C     C_R   0.069594 0.370711 0.870921 0.884825
C62   C     C_R   0.930707 0.869796 0.130392 0.873560
O15   O     O_R   0.912020 0.532880 0.904260 -0.590592
O16   O     O_R   0.087980 0.032880 0.095740 -0.597050
O17   O     O_R   0.949590 0.708460 0.099750 -0.588316
O18   O     O_R   0.050410 0.208460 0.900250 -0.598047
C63   C     C_R   0.886699 0.365456 0.880165 0.886490
C64   C     C_R   0.114088 0.865443 0.117909 0.912921
O19   O     O_3   0.012370 0.375360 0.064120 -0.303496
O20   O     O_3   0.987630 0.875360 0.935880 -0.307182
V3    V     V_3+5 0.997700 0.648160 0.988110 1.112269
V4    V     V_3+5 0.002300 0.148160 0.011890 1.100338
C65   C     C_3   0.166826 0.902205 0.949320 -0.445318
C66   C     C_3   0.168945 0.914137 0.838058 -0.813306
H13   H     H_    0.210909 0.997238 0.825701 0.259564
H14   H     H_    0.171970 0.772428 0.814623 0.297117
H15   H     H_    0.122798 0.972197 0.792631 0.272642
H16   H     H_    0.126381 0.806015 0.947503 0.235896
H17   H     H_    0.154265 0.037064 0.970051 0.230144
C67   C     C_3   0.836346 0.331533 0.053774 -0.450468
C68   C     C_3   0.836440 0.350226 0.165841 -0.757213
H18   H     H_    0.814657 0.483075 0.174645 0.282165
H19   H     H_    0.809169 0.237794 0.193248 0.242452
H20   H     H_    0.887483 0.348971 0.212158 0.289379
H21   H     H_    0.857365 0.199881 0.047070 0.239416
H22   H     H_    0.869617 0.441151 0.043593 0.230069
C69   C     C_2   0.391031 0.758379 0.980644 0.522798
H23   H     H_    0.392967 0.646170 0.930652 0.019706
O21   O     O_2   0.422963 0.893981 0.973499 -0.644541
C70   C     C_2   0.600784 0.354276 0.010949 0.424526
H24   H     H_    0.605969 0.299360 0.087500 0.056255
O22   O     O_2   0.552427 0.440809 0.973112 -0.659404
C71   C     C_2   0.424279 0.772978 0.199801 0.581780
H25   H     H_    0.447948 0.885916 0.243997 -0.069225
O23   O     O_2   0.455281 0.637388 0.191187 -0.592438
C72   C     C_2   0.576901 0.289949 0.796808 0.485028
H26   H     H_    0.543222 0.401640 0.778651 0.001414
O24   O     O_2   0.559566 0.135306 0.772588 -0.596706
C73   C     C_2   0.331750 0.852595 0.542770 0.459983
H27   H     H_    0.365817 0.742246 0.554540 0.066522
O25   O     O_2   0.343435 0.984675 0.597638 -0.591002
C74   C     C_2   0.672584 0.303133 0.463124 0.438513
H28   H     H_    0.659454 0.164331 0.476397 0.052279
O26   O     O_2   0.639101 0.388226 0.392408 -0.570549
C75   C     C_2   0.218673 0.790531 0.619966 0.445291
H29   H     H_    0.263945 0.806583 0.676736 0.060272
O27   O     O_2   0.169551 0.750651 0.649074 -0.623602
C76   C     C_2   0.776505 0.454897 0.378927 0.520688
H30   H     H_    0.735603 0.398190 0.323957 0.048905
O28   O     O_2   0.822909 0.512669 0.347578 -0.598255
C77   C     C_3   0.074523 0.921966 0.302493 -0.383483
C78   C     C_3   0.075345 0.127979 0.283881 -0.789466
H31   H     H_    0.066787 0.198892 0.350228 0.230770
H32   H     H_    0.121673 0.176474 0.265730 0.263407
H33   H     H_    0.035270 0.173772 0.222497 0.301939
H34   H     H_    0.048014 0.842323 0.237909 0.196886
H35   H     H_    0.044020 0.895805 0.358160 0.169270
C79   C     C_3   0.925708 0.510596 0.697010 -0.349671
C80   C     C_3   0.942457 0.710993 0.717536 -0.703779
H36   H     H_    0.942031 0.781095 0.644559 0.184838
H37   H     H_    0.907820 0.775807 0.757269 0.256652
H38   H     H_    0.992991 0.729885 0.761689 0.275641
H39   H     H_    0.948873 0.418451 0.758005 0.172840
H40   H     H_    0.951188 0.472246 0.636788 0.194826
C81   C     C_3   0.566862 0.878685 0.992428 -0.296439
C82   C     C_3   0.594204 0.788188 0.908965 -0.759521
H41   H     H_    0.616523 0.886712 0.864523 0.263077
H42   H     H_    0.630708 0.685589 0.941896 0.259761
H43   H     H_    0.553929 0.721922 0.852837 0.269705
H44   H     H_    0.526739 0.785764 0.000051 0.273519
H45   H     H_    0.546474 0.011696 0.964473 0.196447
C83   C     C_3   0.435915 0.288422 0.010791 -0.257427
C84   C     C_3   0.414710 0.238308 0.108691 -0.867750
H46   H     H_    0.384493 0.346363 0.130784 0.267168
H47   H     H_    0.389299 0.106878 0.101551 0.259773
H48   H     H_    0.458645 0.226586 0.172252 0.268163
H49   H     H_    0.478904 0.203171 0.012137 0.218709
H50   H     H_    0.453322 0.429899 0.021907 0.239943
C85   C     C_3   0.780286 0.942487 0.448515 -0.428327
C86   C     C_3   0.813505 0.010907 0.554153 -0.947894
H51   H     H_    0.853392 0.921096 0.589884 0.256464
H52   H     H_    0.831471 0.150524 0.552437 0.295788
H53   H     H_    0.777674 0.008506 0.603593 0.258378
H54   H     H_    0.737804 0.029472 0.420523 0.187984
H55   H     H_    0.765806 0.806739 0.468108 0.216541
C87   C     C_3   0.223548 0.337081 0.557842 -0.416704
C88   C     C_3   0.189347 0.261512 0.456425 -0.927934
H56   H     H_    0.158071 0.147986 0.469964 0.268814
H57   H     H_    0.161889 0.369883 0.407795 0.292134
H58   H     H_    0.225868 0.211087 0.415380 0.272024
H59   H     H_    0.242608 0.468167 0.537566 0.202132
H60   H     H_    0.262972 0.238524 0.585510 0.258261
C89   C     C_2   0.919605 0.077323 0.461020 0.475196
H61   H     H_    0.950665 0.005948 0.524146 -0.012507
O29   O     O_2   0.918431 0.242634 0.460513 -0.581507
C90   C     C_2   0.072745 0.351839 0.521319 0.545353
H62   H     H_    0.041771 0.234503 0.498916 0.007714
O30   O     O_2   0.066801 0.485889 0.466472 -0.591140
C91   C     C_3   0.809879 0.834630 0.981246 -0.333865
C92   C     C_3   0.762602 0.817308 0.876729 -0.893920
H63   H     H_    0.725077 0.711698 0.878793 0.265481
H64   H     H_    0.739097 0.948829 0.851182 0.258062
H65   H     H_    0.790211 0.776992 0.819280 0.261974
H66   H     H_    0.843977 0.944899 0.973204 0.199138
H67   H     H_    0.836925 0.707429 0.992739 0.212568
C93   C     C_3   0.189342 0.393650 0.024333 -0.337977
C94   C     C_3   0.235104 0.387167 0.130678 -0.899462
H68   H     H_    0.249737 0.245542 0.152549 0.254547
H69   H     H_    0.279216 0.471736 0.133463 0.271358
H70   H     H_    0.209220 0.439184 0.187822 0.263091
H71   H     H_    0.167148 0.528602 0.014483 0.209779
H72   H     H_    0.150243 0.296663 0.028815 0.207262

loop_
_geom_bond_atom_site_label_1
_geom_bond_atom_site_label_2
_geom_bond_distance
_ccdc_geom_bond_type
C65   H17   1.087372 S    
C22   C24   1.395253 A    
C41   C43   1.460906 A    
O4    V2    2.081633 S    
C65   C66   1.509939 S    
C7    C29   1.401267 A    
C87   H60   1.105372 S    
C11   C13   1.412396 A    
C80   H36   1.103546 S    
O1    C3    1.365040 A    
C78   H33   1.091707 S    
C5    C81   1.530611 S    
O19   V4    1.815933 S    
C2    O7    1.347268 A    
C73   O25   1.217725 D    
C84   H46   1.108415 S    
C7    C27   1.400311 A    
C23   C25   1.386280 A    
C89   H61   1.083013 S    
C67   C68   1.515775 S    
O5    C3    1.361868 A    
C4    C7    1.511642 S    
C62   O17   1.356139 A    
C92   H65   1.110908 S    
C16   C20   1.455453 A    
C39   C71   1.465655 S    
C19   C21   1.414653 A    
C78   H32   1.109921 S    
C72   O24   1.218540 D    
C10   H8    1.076823 S    
C68   H19   1.109058 S    
C56   C58   1.375657 A    
C35   C37   1.359893 A    
C77   H35   1.104553 S    
C36   C38   1.360183 A    
C69   H23   1.079153 S    
C44   C52   1.445071 A    
C3    C8    1.542870 S    
O16   C64   1.359898 A    
C43   C51   1.435954 A    
C90   H62   1.080383 S    
C25   C91   1.535263 S    
C66   H15   1.110463 S    
C38   C40   1.397750 A    
C67   H22   1.090307 S    
C81   H44   1.102129 S    
C26   C93   1.539688 S    
C37   C69   1.467767 S    
C70   H24   1.085921 S    
C34   C67   1.536777 S    
C40   C42   1.429484 A    
C33   C43   1.453985 A    
C87   C88   1.501417 S    
C54   C74   1.484289 S    
C86   H53   1.111391 S    
C93   H72   1.094406 S    
C88   H56   1.097333 S    
C92   H64   1.109338 S    
C90   O30   1.218300 D    
C91   H66   1.098137 S    
C69   O21   1.212929 D    
C18   C26   1.427971 A    
C35   H11   1.080273 S    
C38   C70   1.475319 S    
C83   H50   1.102267 S    
C19   C27   1.429750 A    
C9    C31   1.383730 A    
H10   C58   1.085781 S    
C10   C32   1.372181 A    
C85   H55   1.090137 S    
C94   H70   1.111032 S    
C46   C48   1.433646 A    
C86   H52   1.094577 S    
C93   C94   1.534063 S    
O2    C4    1.356460 A    
O6    V2    2.046888 S    
C91   H67   1.093930 S    
C55   C75   1.482165 S    
C1    C46   1.552810 S    
C6    C30   1.418294 A    
C40   C72   1.452287 S    
C84   H47   1.095854 S    
C88   H58   1.111009 S    
O13   V3    2.068549 S    
C89   O29   1.219924 D    
C41   C45   1.460016 A    
C37   C39   1.406316 A    
C47   C49   1.456181 A    
C15   C17   1.465480 A    
C80   H38   1.101160 S    
C78   H31   1.090003 S    
C82   H43   1.111245 S    
C50   C52   1.453810 A    
C68   H20   1.111888 S    
C85   C86   1.523931 S    
C57   C59   1.380116 A    
C27   H5    1.065074 S    
C94   H68   1.110264 S    
O5    V1    2.068223 S    
C6    C22   1.423356 A    
C5    C29   1.410635 A    
C92   H63   1.106383 S    
C45   C47   1.439701 A    
C16   C18   1.460841 A    
C67   H21   1.084437 S    
C81   H45   1.103112 S    
C74   O26   1.220602 D    
C9    H7    1.064442 S    
O2    V1    2.042837 S    
C36   H12   1.078244 S    
C77   H34   1.093402 S    
C93   H71   1.098173 S    
H3    C23   1.065785 S    
O18   V4    2.034291 S    
O6    C4    1.356554 A    
H4    C24   1.055141 S    
C39   C41   1.441428 A    
C82   H41   1.102438 S    
C55   C57   1.368643 A    
O1    V2    2.031239 S    
C5    C21   1.418388 A    
C83   H49   1.102981 S    
C66   H14   1.101769 S    
O12   V3    2.047287 S    
C53   C55   1.399661 A    
C71   H25   1.078168 S    
O14   V4    2.047181 S    
O12   C64   1.362368 A    
C11   C89   1.468998 S    
C79   H40   1.108069 S    
C58   C60   1.388714 A    
C86   H51   1.093707 S    
O14   C62   1.338786 A    
C50   C60   1.449843 A    
C88   H57   1.108723 S    
C32   C61   1.487641 S    
C33   C35   1.385867 A    
C48   C54   1.446713 A    
C75   H29   1.083133 S    
C8    C28   1.405382 A    
C31   C62   1.503559 S    
C15   C19   1.452605 A    
C20   C28   1.437036 A    
O4    C2    1.337051 A    
C18   C32   1.434942 A    
C60   C79   1.517292 S    
C73   H27   1.076687 S    
C42   C46   1.454522 A    
C84   H48   1.111155 S    
O3    V1    2.074337 S    
O16   V4    2.081627 S    
C76   O28   1.217345 D    
C49   C51   1.442460 A    
C79   C80   1.529100 S    
C28   H6    1.066154 S    
C65   H16   1.096665 S    
C59   C77   1.505501 S    
O17   V3    2.046345 S    
C2    C45   1.542851 S    
C80   H37   1.110435 S    
C82   H42   1.099990 S    
C52   C63   1.519304 S    
C54   C56   1.399038 A    
C76   H30   1.082402 S    
O3    C1    1.340940 A    
C61   O18   1.342168 A    
C77   C78   1.538150 S    
H1    C29   1.074179 S    
C12   C14   1.423384 A    
C85   H54   1.098245 S    
C49   C59   1.433467 A    
C9    C11   1.376374 A    
C33   C65   1.534590 S    
C10   C12   1.376438 A    
C8    C30   1.410872 A    
C83   C84   1.523976 S    
C13   C85   1.537404 S    
C20   C22   1.416877 A    
C74   H28   1.080833 S    
O7    V1    2.056755 S    
C17   C25   1.432436 A    
C1    O8    1.342522 A    
C21   C23   1.387797 A    
O11   V4    2.050455 S    
O8    V2    2.060316 S    
C68   H18   1.105032 S    
C14   C16   1.451813 A    
O11   C63   1.366219 A    
H9    C57   1.081638 S    
C34   C44   1.467018 A    
C24   C26   1.389592 A    
C17   C31   1.433892 A    
C34   C36   1.392656 A    
C47   C53   1.453725 A    
C53   C73   1.476141 S    
C12   C90   1.463777 S    
C66   H13   1.109864 S    
C70   O22   1.213630 D    
C71   O23   1.220472 D    
C6    C83   1.544524 S    
O15   C63   1.352307 A    
C79   H39   1.090069 S    
C91   C92   1.533431 S    
C13   C15   1.457904 A    
O20   V3    1.806691 S    
O9    V2    1.815980 S    
C75   O27   1.215555 D    
O13   C61   1.344839 A    
O10   V1    1.806772 S    
C48   C50   1.458172 A    
C51   C64   1.528298 S    
O15   V3    2.074333 S    
C81   C82   1.534210 S    
C56   C76   1.483543 S    
C87   H59   1.097553 S    
C14   C87   1.539711 S    
H2    C30   1.063651 S    
C42   C44   1.460132 A    
C72   H26   1.081716 S    
C94   H69   1.104705 S    
