data_mof_unit_25646.cif
_audit_creation_date              2012-12-11T17:43:13-0500
_audit_creation_method            fapswitch 2.2
_symmetry_space_group_name_H-M    P1
_symmetry_Int_Tables_number       1
_space_group_crystal_system       triclinic
_cell_length_a                    15.165726
_cell_length_b                    15.232055
_cell_length_c                    16.975085
_cell_angle_alpha                 108.676028
_cell_angle_beta                  105.450918
_cell_angle_gamma                 109.809445
_cell_volume                      3170.7440163

loop_
_atom_site_label
_atom_site_type_symbol
_atom_type_description
_atom_site_fract_x
_atom_site_fract_y
_atom_site_fract_z
_atom_type_partial_charge
C1    C     C_R   0.090765 0.277903 0.033292 -0.185377
C2    C     C_R   0.097626 0.075736 0.962576 -0.229269
C3    C     C_R   0.013005 0.895449 0.934740 0.090149
C4    C     C_R   0.003488 0.077732 0.941548 0.087174
C5    C     C_R   0.105011 0.992027 0.974120 0.074180
C6    C     C_R   0.911493 0.983502 0.907963 0.024931
C7    C     C_R   0.717591 0.912929 0.824165 0.492451
C8    C     C_R   0.218890 0.059690 0.140949 0.509949
C9    C     C_R   0.620318 0.958120 0.909591 0.355369
C10   C     C_R   0.405486 0.132892 0.191022 0.331561
C11   C     C_R   0.501011 0.693677 0.344757 -0.322329
C12   C     C_R   0.917795 0.713446 0.923848 -0.235864
C13   C     C_R   0.565328 0.447338 0.730579 -0.339442
C14   C     C_R   0.511851 0.678627 0.262913 -0.147121
C15   C     C_R   0.553149 0.446921 0.809389 -0.148241
C16   C     C_R   0.938003 0.452253 0.735592 -0.114694
C17   C     C_R   0.061403 0.477339 0.251299 -0.149447
C18   C     C_R   0.510212 0.585681 0.209941 0.152238
C19   C     C_R   0.560970 0.536605 0.875159 0.255073
C20   C     C_R   0.497314 0.507805 0.239448 -0.293080
C21   C     C_R   0.577258 0.624747 0.859473 -0.239137
C22   C     C_R   0.484670 0.522175 0.320445 -0.136705
C23   C     C_R   0.030616 0.467483 0.726458 0.089141
C24   C     C_R   0.588493 0.624409 0.780411 -0.192043
C25   C     C_R   0.486372 0.614889 0.373735 0.610590
C26   C     C_R   0.583298 0.536335 0.715694 0.620154
C27   C     C_R   0.616734 0.571912 0.121274 0.487174
C28   C     C_R   0.456452 0.529413 0.961191 0.470471
C29   C     C_R   0.626808 0.553916 0.038746 -0.140927
C30   C     C_R   0.445780 0.549111 0.043763 -0.162166
C31   C     C_R   0.549396 0.539860 0.960156 -0.156069
C32   C     C_R   0.524819 0.570325 0.124506 -0.162644
C33   C     C_R   0.624226 0.904761 0.827621 -0.208813
C34   C     C_R   0.969711 0.416884 0.252949 0.094650
C35   C     C_R   0.319020 0.113783 0.210618 -0.244278
C36   C     C_R   0.960813 0.375612 0.320296 0.025827
C37   C     C_R   0.040378 0.423171 0.639590 0.030146
C38   C     C_R   0.140232 0.437872 0.549420 -0.359092
C39   C     C_R   0.861764 0.304434 0.396405 -0.361086
C40   C     C_R   0.717322 0.222022 0.828638 0.749648
C41   C     C_R   0.222423 0.795720 0.188691 0.529962
C42   C     C_R   0.137192 0.452185 0.634385 0.531529
C43   C     C_R   0.864202 0.316833 0.318487 0.568716
C44   C     C_R   0.949622 0.360820 0.557978 -0.301715
C45   C     C_R   0.665110 0.220266 0.748347 -0.130947
C46   C     C_R   0.052094 0.404630 0.393705 -0.301925
C47   C     C_R   0.953130 0.350048 0.474676 0.147997
C48   C     C_R   0.048844 0.394860 0.471604 0.152630
C49   C     C_R   0.579573 0.128686 0.670463 0.010033
C50   C     C_R   0.290778 0.886759 0.362853 0.030408
C51   C     C_R   0.343611 0.060112 0.477373 -0.372141
C52   C     C_R   0.510687 0.949510 0.561928 -0.375278
C53   C     C_R   0.276435 0.976433 0.389317 0.509370
C54   C     C_R   0.587600 0.035302 0.642208 0.546026
C55   C     C_R   0.365992 0.878371 0.422994 -0.314717
C56   C     C_R   0.231522 0.797887 0.273208 -0.005185
C57   C     C_R   0.496326 0.136578 0.619209 -0.305111
C58   C     C_R   0.431704 0.959314 0.507797 0.158532
C59   C     C_R   0.422727 0.052287 0.535698 0.167951
C60   C     C_R   0.712198 0.017196 0.992154 0.451943
C61   C     C_R   0.391394 0.093567 0.098233 0.419046
C62   C     C_R   0.805879 0.026410 0.988812 -0.257231
C63   C     C_R   0.291722 0.043219 0.028400 -0.169079
C64   C     C_R   0.298717 0.588298 0.998976 -0.132090
C65   C     C_R   0.738332 0.464139 0.048135 -0.081195
C66   C     C_R   0.810537 0.976706 0.905730 -0.100905
C67   C     C_R   0.350133 0.545690 0.041943 0.111938
C68   C     C_R   0.204708 0.024184 0.048029 -0.086196
C69   C     C_R   0.727022 0.309286 0.746966 -0.221593
C70   C     C_R   0.206524 0.697498 0.262150 -0.218631
C71   C     C_R   0.288364 0.487724 0.070772 -0.125025
C72   C     C_R   0.758873 0.568476 0.979510 -0.148944
C73   C     C_R   0.110414 0.538207 0.813047 -0.077696
C74   C     C_R   0.890421 0.396301 0.175147 -0.055803
C75   C     C_R   0.922367 0.197366 0.943394 0.551425
C76   C     C_R   0.088783 0.791259 0.993410 0.598835
C77   C     C_R   0.006930 0.180771 0.968751 -0.126376
C78   C     C_R   0.713363 0.538868 0.032115 0.193005
C79   C     C_R   0.007355 0.804792 0.951072 -0.034408
C80   C     C_R   0.918387 0.891882 0.892519 -0.237135
H1    H     H_    0.522829 0.739755 0.241394 0.145100
H2    H     H_    0.516271 0.877344 0.538972 0.128725
H3    H     H_    0.329924 0.645715 0.976251 0.141696
H4    H     H_    0.712440 0.422188 0.084931 0.140500
H5    H     H_    0.706074 0.337292 0.697466 0.137669
H6    H     H_    0.208611 0.671612 0.314568 0.146064
H7    H     H_    0.169389 0.295141 0.069619 0.125406
H8    H     H_    0.840794 0.686694 0.874903 0.135377
H9    H     H_    0.784821 0.883116 0.742890 0.327657
H10   H     H_    0.071769 0.005908 0.113263 0.320483
H11   H     H_    0.475931 0.694976 0.482386 0.308948
H12   H     H_    0.539537 0.377920 0.819973 0.133832
H13   H     H_    0.590139 0.471568 0.600215 0.311724
H14   H     H_    0.505180 0.766976 0.385758 0.127450
H15   H     H_    0.561089 0.378936 0.681049 0.121435
H16   H     H_    0.496305 0.435756 0.199253 0.163393
H17   H     H_    0.582122 0.694092 0.909032 0.151221
H18   H     H_    0.690704 0.621500 0.253521 0.335279
H19   H     H_    0.312041 0.445243 0.875418 0.329618
H20   H     H_    0.127027 0.443850 0.395100 0.152516
H21   H     H_    0.874751 0.329438 0.559048 0.148625
H22   H     H_    0.714592 0.233455 0.252191 0.321721
H23   H     H_    0.473940 0.461183 0.342089 0.159477
H24   H     H_    0.286870 0.510615 0.695229 0.341818
H25   H     H_    0.214019 0.466877 0.545463 0.152677
H26   H     H_    0.788138 0.265918 0.398132 0.153032
H27   H     H_    0.553784 0.858252 0.764942 0.185839
H28   H     H_    0.329921 0.143434 0.281495 0.188937
H29   H     H_    0.670919 0.963489 0.656781 0.344852
H30   H     H_    0.199493 0.048943 0.358714 0.335786
H31   H     H_    0.538871 0.016705 0.955428 0.363556
H32   H     H_    0.550761 0.230984 0.244151 0.320477
H33   H     H_    0.644625 0.027780 0.074628 0.323211
H34   H     H_    0.601347 0.692838 0.769338 0.177825
H35   H     H_    0.529937 0.110211 0.122513 0.324738
H36   H     H_    0.875732 0.071292 0.052057 0.180406
H37   H     H_    0.281807 0.018788 0.957880 0.189593
H38   H     H_    0.602207 0.115940 0.828094 0.314688
H39   H     H_    0.299202 0.943280 0.230796 0.334869
H40   H     H_    0.307222 0.450435 0.112377 0.113285
H41   H     H_    0.756975 0.626094 0.956308 0.122146
H42   H     H_    0.192281 0.570377 0.833283 0.185995
H43   H     H_    0.810056 0.340688 0.145417 0.187455
H44   H     H_    0.857550 0.091795 0.818175 0.325792
H45   H     H_    0.860335 0.403287 0.682996 0.105516
H46   H     H_    0.216744 0.787928 0.001789 0.331929
H47   H     H_    0.846714 0.821057 0.862327 0.149761
H48   H     H_    0.168198 0.146759 0.987661 0.128481
H49   H     H_    0.138746 0.496047 0.293413 0.105495
H50   H     H_    0.491410 0.208825 0.642430 0.151365
H51   H     H_    0.377011 0.809271 0.401977 0.144810
H52   H     H_    0.336059 0.131278 0.499138 0.145640
N1    N     N_R   0.055660 0.348550 0.045620 -0.068132
N2    N     N_R   0.185200 0.638170 0.176300 -0.065606
N3    N     N_R   0.201680 0.494570 0.045620 -0.042637
N4    N     N_R   0.798320 0.505430 0.954380 -0.053892
N5    N     N_R   0.068420 0.560530 0.871650 -0.070195
N6    N     N_R   0.931580 0.439470 0.128350 -0.062508
N7    N     N_R   0.948070 0.295860 0.997670 -0.080281
N8    N     N_R   0.051930 0.704140 0.002330 -0.110017
N9    N     N_R   0.944340 0.651450 0.954380 -0.060285
N10   N     N_R   0.960830 0.507850 0.823700 -0.041669
N11   N     N_R   0.039170 0.492150 0.176300 -0.040124
N12   N     N_R   0.811290 0.303410 0.871650 -0.076005
N13   N     N_R   0.188710 0.696590 0.128350 -0.095623
N14   N     N_R   0.205200 0.552990 0.997670 -0.060997
N15   N     N_R   0.794800 0.447010 0.002330 -0.072435
N16   N     N_R   0.814800 0.361830 0.823700 -0.073130
Ni1   Ni    Ni4+2 0.119340 0.493420 0.109960 0.207468
Ni2   Ni    Ni4+2 0.880660 0.506580 0.890040 0.207627
Ni3   Ni    Ni4+2 0.872590 0.372590 0.000000 0.277084
Ni4   Ni    Ni4+2 0.127410 0.627410 0.000000 0.232381
O1    O     O_3   0.714163 0.858524 0.739880 -0.750819
O2    O     O_3   0.197702 0.980271 0.329273 -0.727373
O3    O     O_3   0.526283 0.951961 0.905495 -0.728527
O4    O     O_3   0.501435 0.192628 0.264028 -0.752993
O5    O     O_3   0.713784 0.064546 0.077073 -0.723862
O6    O     O_3   0.472044 0.103429 0.072921 -0.754954
O7    O     O_3   0.676133 0.164174 0.869559 -0.743070
O8    O     O_3   0.259895 0.879601 0.171350 -0.764591
O9    O     O_3   0.838603 0.136103 0.860440 -0.722044
O10   O     O_3   0.181085 0.827914 0.986278 -0.746972
O11   O     O_3   0.138810 0.048569 0.167564 -0.723861
O12   O     O_3   0.474191 0.626277 0.453472 -0.734224
O13   O     O_3   0.595706 0.539446 0.638889 -0.720914
O14   O     O_3   0.698964 0.592028 0.196574 -0.751569
O15   O     O_3   0.375961 0.497021 0.879171 -0.723109
O16   O     O_3   0.773259 0.275338 0.242690 -0.761797
O17   O     O_3   0.227310 0.496154 0.711811 -0.753307
O18   O     O_3   0.674303 0.031874 0.690559 -0.734002

loop_
_geom_bond_atom_site_label_1
_geom_bond_atom_site_label_2
_ccdc_geom_bond_type
C1    H7    S    
C39   H26   S    
N5    N10   A    
C26   O13   S    
C24   H34   S    
C72   H41   S    
C27   C29   A    
C1    C77   A    
C14   C18   A    
C40   O7    S    
C76   O10   S    
C33   H27   S    
C76   C79   A    
N12   N16   A    
C19   C31   S    
C41   C56   A    
C43   O16   S    
C15   C19   A    
C74   N6    A    
C71   H40   S    
C13   H15   S    
C19   C21   A    
N16   Ni2   S    
C38   C42   A    
N12   Ni3   S    
N6    N11   A    
C71   N3    A    
C63   H37   S    
C11   C14   A    
C57   C59   A    
C11   C25   A    
C25   O12   S    
C49   C54   A    
C12   C79   A    
C49   C57   A    
C12   N9    A    
C60   C62   A    
N7    Ni3   S    
C37   C42   A    
C61   C63   A    
C54   O18   S    
C72   C78   A    
C35   H28   S    
C28   O15   S    
C15   H12   S    
C6    C80   A    
C29   C78   S    
H39   O8    S    
C22   C25   A    
N11   Ni1   S    
N5    Ni4   S    
C36   C46   A    
C10   C35   A    
C65   N15   A    
C16   H45   S    
N8    Ni4   S    
C67   C71   A    
C30   C67   S    
C44   C47   A    
C74   H43   S    
C20   H16   S    
H13   O13   S    
C53   O2    S    
C9    C33   A    
C7    C33   A    
H38   O7    S    
C23   C73   A    
C5    C68   S    
C1    N1    A    
C3    C80   A    
C52   C54   A    
N9    Ni2   S    
C51   C59   A    
H19   O15   S    
C76   N8    A    
C40   C45   A    
C46   C48   A    
C50   C53   A    
C62   C66   A    
H35   O6    S    
C17   H49   S    
N4    N15   A    
C64   C67   A    
C57   H50   S    
N1    Ni1   S    
C60   O5    S    
C4    C6    A    
C10   O4    S    
C12   H8    S    
C65   H4    S    
C39   C43   A    
C58   C59   A    
N3    Ni1   S    
N2    Ni1   S    
C45   C69   A    
C50   C56   S    
C22   H23   S    
C51   C53   A    
C8    C35   A    
C16   N10   A    
C64   H3    S    
C62   H36   S    
H30   O2    S    
C42   O17   S    
C41   O8    S    
C21   H17   S    
H9    O1    S    
C47   C48   A    
C7    O1    S    
C45   C49   S    
C44   H21   S    
N3    N14   A    
N8    N9    A    
C52   H2    S    
C75   C77   A    
C3    C79   S    
H18   O14   S    
C52   C58   A    
C34   C74   A    
N14   Ni4   S    
C11   H14   S    
C20   C22   A    
C8    C68   A    
C16   C23   A    
C56   C70   A    
C13   C15   A    
C13   C26   A    
C21   C24   A    
C10   C61   A    
C18   C32   S    
C17   C34   A    
C70   H6    S    
C69   H5    S    
H29   O18   S    
C39   C47   A    
H44   O9    S    
N2    N13   A    
C46   H20   S    
C63   C68   A    
H22   O16   S    
C65   C78   A    
C64   N14   A    
C27   C32   A    
C38   C48   A    
C28   C31   A    
C24   C26   A    
C3    C5    A    
C8    O11   S    
N4    Ni2   S    
C51   H52   S    
N1    N7    A    
C80   H47   S    
N6    Ni3   S    
C55   H51   S    
C50   C55   A    
C17   N11   A    
H10   O11   S    
C75   O9    S    
C9    C60   A    
N10   Ni2   S    
C38   H25   S    
C40   N12   A    
C4    C77   S    
C29   C31   A    
C23   C37   S    
C61   O6    S    
C7    C66   A    
C30   C32   A    
C73   N5    A    
C37   C44   A    
C2    C4    A    
C28   C30   A    
C34   C36   S    
C18   C20   A    
H11   O12   S    
N13   Ni4   S    
C72   N4    A    
C27   O14   S    
C2    C5    A    
C6    C66   S    
C41   N13   A    
C9    O3    S    
C73   H42   S    
H32   O4    S    
C55   C58   A    
N15   Ni3   S    
C70   N2    A    
C69   N16   A    
C36   C43   A    
C75   N7    A    
C14   H1    S    
H33   O5    S    
H46   O10   S    
H31   O3    S    
H24   O17   S    
C2    H48   S    
