data_mof_unit_63875.cif
_audit_creation_date              2012-12-10T17:40:46-0500
_audit_creation_method            fapswitch 2.2
_symmetry_space_group_name_H-M    P1
_symmetry_Int_Tables_number       1
_space_group_crystal_system       triclinic
_cell_length_a                    37.538659
_cell_length_b                    30.387366
_cell_length_c                    21.745139
_cell_angle_alpha                 89.436418
_cell_angle_beta                  53.941933
_cell_angle_gamma                 89.745034
_cell_volume                      20051.6407708

loop_
_atom_site_label
_atom_site_type_symbol
_atom_type_description
_atom_site_fract_x
_atom_site_fract_y
_atom_site_fract_z
_atom_type_partial_charge
C1    C     C_R   0.085090 0.500018 0.415048 0.768053
C2    C     C_R   0.914897 0.499957 0.584981 0.767975
C3    C     C_R   0.585089 0.000017 0.415061 0.767690
C4    C     C_R   0.414912 0.999961 0.584935 0.768186
C5    C     C_R   0.040659 0.512800 0.673697 0.084723
C6    C     C_R   0.959410 0.486673 0.326115 0.083438
C7    C     C_R   0.540382 0.014439 0.674132 0.085768
C8    C     C_R   0.459510 0.014052 0.325639 0.085026
C9    C     C_R   0.002006 0.499177 0.682976 -0.071515
C10   C     C_R   0.997876 0.500774 0.317094 -0.072803
C11   C     C_R   0.502308 0.999269 0.682765 -0.072883
C12   C     C_R   0.498104 0.000401 0.316855 -0.071419
C13   C     C_R   0.964148 0.488810 0.754586 -0.212207
C14   C     C_R   0.035624 0.511594 0.245620 -0.212863
C15   C     C_R   0.464886 0.987407 0.753947 -0.211933
C16   C     C_R   0.535950 0.990082 0.245579 -0.212258
C17   C     C_R   0.964170 0.491730 0.817993 -0.188414
C18   C     C_R   0.035674 0.508658 0.182138 -0.189094
C19   C     C_R   0.464745 0.990414 0.817511 -0.188207
C20   C     C_R   0.535929 0.992852 0.182097 -0.188242
C21   C     C_R   0.001330 0.507368 0.811776 -0.120131
C22   C     C_R   0.998725 0.492558 0.188116 -0.119839
C23   C     C_R   0.501243 0.007510 0.811969 -0.120110
C24   C     C_R   0.498749 0.008209 0.187798 -0.121264
C25   C     C_R   0.202768 0.463554 0.277011 -0.169870
C26   C     C_R   0.797164 0.462469 0.721648 -0.172757
C27   C     C_R   0.702758 0.963581 0.276855 -0.170268
C28   C     C_R   0.297173 0.963167 0.723622 -0.170043
C29   C     C_R   0.156885 0.463424 0.322700 -0.181046
C30   C     C_R   0.843057 0.462452 0.675944 -0.186861
C31   C     C_R   0.656875 0.963459 0.322555 -0.183002
C32   C     C_R   0.343062 0.963102 0.677920 -0.182983
C33   C     C_R   0.133376 0.500008 0.367702 -0.025528
C34   C     C_R   0.866586 0.499812 0.632363 -0.029781
C35   C     C_R   0.633374 0.000006 0.367687 -0.023665
C36   C     C_R   0.366630 0.999842 0.632240 -0.023889
C37   C     C_R   0.156340 0.536446 0.367356 -0.196586
C38   C     C_R   0.843603 0.536933 0.634194 -0.187316
C39   C     C_R   0.656345 0.036404 0.367441 -0.195324
C40   C     C_R   0.343729 0.036364 0.631891 -0.195023
C41   C     C_R   0.202245 0.536260 0.322570 -0.173579
C42   C     C_R   0.797703 0.536655 0.678948 -0.170455
C43   C     C_R   0.702251 0.036209 0.322643 -0.172560
C44   C     C_R   0.297826 0.036109 0.676656 -0.172894
C45   C     C_R   0.999387 0.499691 0.619237 0.788772
C46   C     C_R   0.000485 0.500291 0.380877 0.787916
C47   C     C_R   0.499643 0.999703 0.619011 0.788239
C48   C     C_R   0.500538 0.000074 0.380827 0.788036
C49   C     C_R   0.225697 0.499949 0.276714 0.102905
C50   C     C_R   0.774254 0.499542 0.723325 0.099877
C51   C     C_R   0.725695 0.999929 0.276676 0.103108
C52   C     C_R   0.274310 0.999646 0.723205 0.102837
C53   C     C_R   0.297145 0.510723 0.258225 -0.171216
C54   C     C_R   0.702885 0.511468 0.741873 -0.172619
C55   C     C_R   0.797135 0.010561 0.258266 -0.172427
C56   C     C_R   0.202904 0.010455 0.741383 -0.172490
C57   C     C_R   0.343065 0.510293 0.211969 -0.191182
C58   C     C_R   0.656963 0.511168 0.788136 -0.190960
C59   C     C_R   0.843055 0.010124 0.212021 -0.193991
C60   C     C_R   0.156982 0.010102 0.787674 -0.193965
C61   C     C_R   0.366500 0.500015 0.134502 -0.027511
C62   C     C_R   0.633481 0.499824 0.865509 -0.026789
C63   C     C_R   0.866498 0.999972 0.134504 -0.028097
C64   C     C_R   0.133507 0.999852 0.865470 -0.028129
C65   C     C_R   0.343293 0.489790 0.104216 -0.183576
C66   C     C_R   0.656625 0.488331 0.895682 -0.183932
C67   C     C_R   0.843295 0.989866 0.104163 -0.182794
C68   C     C_R   0.156679 0.989521 0.896038 -0.182855
C69   C     C_R   0.297407 0.489550 0.150745 -0.170871
C70   C     C_R   0.702515 0.487912 0.849110 -0.169874
C71   C     C_R   0.797409 0.989629 0.150680 -0.170754
C72   C     C_R   0.202568 0.989179 0.849480 -0.170432
C73   C     C_R   0.274085 0.500131 0.227926 0.103696
C74   C     C_R   0.725881 0.499638 0.772060 0.103434
C75   C     C_R   0.774081 0.000095 0.227905 0.103741
C76   C     C_R   0.225925 0.999785 0.771984 0.103721
C77   C     C_R   0.999878 0.633705 0.003863 -0.025342
C78   C     C_R   0.500044 0.133420 0.000400 0.010766
C79   C     C_R   0.039591 0.703198 0.964087 -0.172595
C80   C     C_R   0.959753 0.702822 0.046721 -0.167576
C81   C     C_R   0.536393 0.202388 0.986890 -0.168651
C82   C     C_R   0.463507 0.202666 0.015263 -0.168963
C83   C     C_R   0.499658 0.725701 0.999072 0.030626
C84   C     C_R   0.000081 0.225650 0.996642 0.029936
C85   C     C_R   0.039752 0.657317 0.964398 -0.148985
C86   C     C_R   0.959849 0.656926 0.045613 -0.187756
C87   C     C_R   0.536581 0.156522 0.985953 -0.156938
C88   C     C_R   0.463447 0.156813 0.015311 -0.153192
C89   C     C_R   0.999610 0.726119 0.005123 0.095898
C90   C     C_R   0.499925 0.225741 0.001254 0.098184
C91   C     C_R   0.000022 0.414837 0.998698 0.809406
C92   C     C_R   0.499970 0.914847 0.999950 0.802573
C93   C     C_R   0.000407 0.503612 0.880462 0.803432
C94   C     C_R   0.999605 0.496351 0.119506 0.802540
C95   C     C_R   0.500389 0.003719 0.880527 0.800941
C96   C     C_R   0.499607 0.003896 0.119358 0.800340
C97   C     C_R   0.511652 0.297128 0.042469 -0.167566
C98   C     C_R   0.488220 0.297595 0.959696 -0.168090
C99   C     C_R   0.980099 0.797752 0.071858 -0.169257
C100  C     C_R   0.018909 0.797256 0.934944 -0.164481
C101  C     C_R   0.999980 0.585185 0.001476 0.807956
C102  C     C_R   0.500023 0.085089 0.000119 0.808151
C103  C     C_R   0.499979 0.414924 0.000272 0.785989
C104  C     C_R   0.999894 0.914963 0.000408 0.783267
C105  C     C_R   0.414904 0.499975 0.085411 0.777264
C106  C     C_R   0.585090 0.499943 0.914597 0.777203
C107  C     C_R   0.914903 0.999957 0.085412 0.777916
C108  C     C_R   0.085098 0.999933 0.914586 0.778862
C109  C     C_R   0.511341 0.343017 0.042729 -0.183980
C110  C     C_R   0.488474 0.343446 0.959101 -0.182973
C111  C     C_R   0.980614 0.843650 0.070558 -0.183585
C112  C     C_R   0.018493 0.843157 0.933830 -0.185952
C113  C     C_R   0.499942 0.584955 0.999798 0.845051
C114  C     C_R   0.000054 0.084945 0.999657 0.850078
C115  C     C_R   0.039930 0.297262 0.960427 -0.168483
C116  C     C_R   0.960422 0.297223 0.030620 -0.173220
C117  C     C_R   0.539694 0.797368 0.956588 -0.169893
C118  C     C_R   0.459863 0.797334 0.041686 -0.170244
C119  C     C_R   0.499748 0.633264 0.999440 -0.092008
C120  C     C_R   0.000165 0.133238 0.998733 -0.089287
C121  C     C_R   0.039913 0.343106 0.961137 -0.192107
C122  C     C_R   0.960417 0.343064 0.030667 -0.154503
C123  C     C_R   0.539789 0.843192 0.956975 -0.187666
C124  C     C_R   0.459924 0.843154 0.041945 -0.188044
C125  C     C_R   0.000111 0.366425 0.996759 -0.020923
C126  C     C_R   0.499896 0.866482 0.999660 -0.032916
C127  C     C_R   0.499942 0.274147 0.001164 0.104061
C128  C     C_R   0.999524 0.774391 0.003999 0.097018
C129  C     C_R   0.499906 0.366542 0.000796 -0.028003
C130  C     C_R   0.999624 0.866656 0.001576 -0.024338
C131  C     C_R   0.000156 0.274042 0.995701 0.137172
C132  C     C_R   0.499738 0.774122 0.999015 0.140673
C133  C     C_R   0.472543 0.702317 0.067527 -0.240105
C134  C     C_R   0.526766 0.702827 0.930766 -0.240259
C135  C     C_R   0.970891 0.202650 0.064764 -0.236552
C136  C     C_R   0.029336 0.202445 0.929581 -0.240488
C137  C     C_R   0.471942 0.656324 0.068321 0.209455
C138  C     C_R   0.527442 0.656819 0.930338 0.208999
C139  C     C_R   0.970432 0.156622 0.066386 0.206507
C140  C     C_R   0.029879 0.156422 0.930037 0.208641
C141  C     C_R   0.080401 0.518597 0.600372 -0.163577
C142  C     C_R   0.919686 0.480491 0.399315 -0.163788
C143  C     C_R   0.579902 0.021705 0.601077 -0.163473
C144  C     C_R   0.419786 0.019874 0.398759 -0.164472
C145  C     C_R   0.117526 0.535567 0.591235 -0.160268
C146  C     C_R   0.882782 0.463121 0.408129 -0.156458
C147  C     C_R   0.616386 0.039942 0.592659 -0.161056
C148  C     C_R   0.382648 0.036569 0.407324 -0.160918
C149  C     C_R   0.114620 0.550336 0.654208 -0.178023
C150  C     C_R   0.885929 0.448316 0.344943 -0.178771
C151  C     C_R   0.612961 0.054476 0.656224 -0.174563
C152  C     C_R   0.385510 0.051077 0.343863 -0.175449
C153  C     C_R   0.075329 0.545622 0.727390 0.006359
C154  C     C_R   0.925207 0.453419 0.271854 0.005064
C155  C     C_R   0.573864 0.048350 0.729239 0.004969
C156  C     C_R   0.424792 0.046443 0.270798 0.005605
C157  C     C_R   0.039280 0.521613 0.738993 0.049747
C158  C     C_R   0.960948 0.477843 0.260659 0.049638
C159  C     C_R   0.538658 0.023163 0.739823 0.048791
C160  C     C_R   0.460876 0.022652 0.260014 0.049150
Cu1   Cu    Cu3+1 1.000000 0.544050 0.500000 0.949699
Cu2   Cu    Cu3+1 0.500000 0.044050 0.500000 0.953159
Cu3   Cu    Cu3+1 1.000000 0.455950 0.500000 0.949757
Cu4   Cu    Cu3+1 0.500000 0.955950 0.500000 0.946638
Cu5   Cu    Cu3+1 0.955950 0.499980 0.044050 0.955149
Cu6   Cu    Cu3+1 0.044050 0.499980 0.955950 0.955810
Cu7   Cu    Cu3+1 0.455950 0.999980 0.044050 0.956208
Cu8   Cu    Cu3+1 0.544050 0.999980 0.955950 0.955850
Cu9   Cu    Cu3+1 0.500000 0.500010 0.061800 0.953289
Cu10  Cu    Cu3+1 0.500000 0.500010 0.938200 0.953138
Cu11  Cu    Cu3+1 1.000000 0.000010 0.061800 0.953286
Cu12  Cu    Cu3+1 1.000000 0.000010 0.938200 0.953646
H1    H     H_    0.071124 0.640408 0.933024 0.164197
H2    H     H_    0.928590 0.639693 0.077198 0.154196
H3    H     H_    0.565112 0.139125 0.974559 0.148449
H4    H     H_    0.434949 0.139660 0.026396 0.149165
H5    H     H_    0.138814 0.564853 0.402212 0.149870
H6    H     H_    0.861102 0.565999 0.600585 0.150934
H7    H     H_    0.638823 0.064785 0.402388 0.149002
H8    H     H_    0.361309 0.064892 0.596503 0.149470
H9    H     H_    0.219488 0.564691 0.322752 0.128541
H10   H     H_    0.780450 0.565615 0.679920 0.130144
H11   H     H_    0.719500 0.064605 0.322912 0.128448
H12   H     H_    0.280632 0.064603 0.675922 0.128833
H13   H     H_    0.279591 0.518710 0.317858 0.127672
H14   H     H_    0.720494 0.520371 0.682336 0.128578
H15   H     H_    0.779576 0.018465 0.317931 0.128128
H16   H     H_    0.220490 0.018477 0.681515 0.128040
H17   H     H_    0.360185 0.518304 0.236707 0.151575
H18   H     H_    0.639873 0.520156 0.763516 0.151014
H19   H     H_    0.860171 0.018073 0.236793 0.152714
H20   H     H_    0.139891 0.018212 0.762717 0.152609
H21   H     H_    0.360561 0.481618 0.044731 0.151015
H22   H     H_    0.639292 0.479287 0.955092 0.150403
H23   H     H_    0.860567 0.981795 0.044638 0.152285
H24   H     H_    0.139378 0.981354 0.955778 0.152122
H25   H     H_    0.280069 0.481581 0.126361 0.129536
H26   H     H_    0.719827 0.478957 0.873363 0.129782
H27   H     H_    0.780076 0.981756 0.126251 0.129691
H28   H     H_    0.219884 0.981143 0.874077 0.129760
H29   H     H_    0.520411 0.360052 0.075166 0.149893
H30   H     H_    0.479402 0.360791 0.926465 0.150607
H31   H     H_    0.965678 0.861161 0.123525 0.147033
H32   H     H_    0.033501 0.860277 0.879980 0.147434
H33   H     H_    0.070627 0.720868 0.932368 0.133088
H34   H     H_    0.928623 0.720214 0.078778 0.133110
H35   H     H_    0.564928 0.219674 0.975416 0.130129
H36   H     H_    0.434943 0.220153 0.026957 0.130341
H37   H     H_    0.520515 0.279541 0.075220 0.130894
H38   H     H_    0.479394 0.280396 0.927028 0.131175
H39   H     H_    0.965084 0.780427 0.125543 0.132637
H40   H     H_    0.033908 0.779524 0.882155 0.135956
H41   H     H_    0.070913 0.279890 0.933560 0.131346
H42   H     H_    0.929444 0.279827 0.057315 0.130486
H43   H     H_    0.570856 0.780061 0.923930 0.129474
H44   H     H_    0.428640 0.780013 0.074180 0.129359
H45   H     H_    0.934517 0.478114 0.761304 0.137828
H46   H     H_    0.065111 0.522653 0.239066 0.139890
H47   H     H_    0.435709 0.975530 0.760218 0.138449
H48   H     H_    0.565525 0.979347 0.239233 0.137746
H49   H     H_    0.071031 0.360216 0.934341 0.154828
H50   H     H_    0.929296 0.360164 0.057671 0.160519
H51   H     H_    0.571103 0.860317 0.923897 0.153966
H52   H     H_    0.428667 0.860249 0.075246 0.153861
H53   H     H_    0.451584 0.719841 0.120614 0.137654
H54   H     H_    0.547724 0.720761 0.877562 0.137733
H55   H     H_    0.948260 0.220519 0.116848 0.141575
H56   H     H_    0.051981 0.220152 0.876735 0.138659
H57   H     H_    0.083090 0.509846 0.549698 0.127111
H58   H     H_    0.916830 0.489275 0.450134 0.127496
H59   H     H_    0.582944 0.013080 0.550036 0.126937
H60   H     H_    0.417092 0.011321 0.449749 0.127020
H61   H     H_    0.147796 0.539907 0.534745 0.143273
H62   H     H_    0.852508 0.458519 0.464522 0.147738
H63   H     H_    0.646500 0.045370 0.536357 0.142386
H64   H     H_    0.352382 0.040894 0.463672 0.143235
H65   H     H_    0.142372 0.567979 0.645311 0.136384
H66   H     H_    0.858384 0.430383 0.353583 0.137892
H67   H     H_    0.640107 0.072999 0.648002 0.137559
H68   H     H_    0.357717 0.068511 0.352229 0.137489
H69   H     H_    0.934854 0.481196 0.872278 0.165053
H70   H     H_    0.064863 0.519557 0.127991 0.165351
H71   H     H_    0.435860 0.978746 0.871379 0.164988
H72   H     H_    0.565221 0.982250 0.128209 0.165698
H73   H     H_    0.220403 0.435118 0.242338 0.130448
H74   H     H_    0.779502 0.433447 0.755254 0.130697
H75   H     H_    0.720388 0.935172 0.242087 0.129910
H76   H     H_    0.279478 0.934627 0.758868 0.129873
H77   H     H_    0.139820 0.434977 0.322074 0.149817
H78   H     H_    0.860106 0.433460 0.675461 0.149875
H79   H     H_    0.639803 0.935047 0.321842 0.147999
H80   H     H_    0.360090 0.934595 0.679083 0.147575
O1    O     O_R   0.064270 0.537190 0.435730 -0.588684
O2    O     O_R   0.935730 0.537190 0.564270 -0.586547
O3    O     O_R   0.564270 0.037190 0.435730 -0.587618
O4    O     O_R   0.435730 0.037190 0.564270 -0.586850
O5    O     O_R   0.435730 0.500010 0.116460 -0.580196
O6    O     O_R   0.564270 0.500010 0.883540 -0.580136
O7    O     O_R   0.935730 0.000010 0.116460 -0.582105
O8    O     O_R   0.064270 0.000010 0.883540 -0.581616
O9    O     O_R   0.435720 0.500010 0.012080 -0.594146
O10   O     O_R   0.564280 0.500010 0.987920 -0.593931
O11   O     O_R   0.935720 0.000010 0.012080 -0.592751
O12   O     O_R   0.064280 0.000010 0.987920 -0.592863
O13   O     O_R   0.500010 0.564280 0.052190 -0.562693
O14   O     O_R   0.499990 0.564280 0.947810 -0.563048
O15   O     O_R   0.000010 0.064280 0.052190 -0.564958
O16   O     O_R   0.999990 0.064280 0.947810 -0.565529
O17   O     O_R   0.064270 0.462800 0.435730 -0.586836
O18   O     O_R   0.935730 0.462800 0.564270 -0.589964
O19   O     O_R   0.564270 0.962800 0.435730 -0.588326
O20   O     O_R   0.435730 0.962800 0.564270 -0.588401
O21   O     O_R   0.000010 0.537190 0.590170 -0.578015
O22   O     O_R   0.999990 0.537190 0.409830 -0.583686
O23   O     O_R   0.500010 0.037190 0.590170 -0.578478
O24   O     O_R   0.499990 0.037190 0.409830 -0.579083
O25   O     O_R   0.000000 0.462800 0.590170 -0.583261
O26   O     O_R   1.000000 0.462800 0.409830 -0.577891
O27   O     O_R   0.500000 0.962800 0.590170 -0.583089
O28   O     O_R   0.500000 0.962800 0.409830 -0.582564
O29   O     O_R   0.962800 0.435720 0.037190 -0.575258
O30   O     O_R   0.037200 0.435720 0.962810 -0.595678
O31   O     O_R   0.462800 0.935720 0.037190 -0.588854
O32   O     O_R   0.537200 0.935720 0.962810 -0.588616
O33   O     O_R   0.962790 0.499990 0.947030 -0.591730
O34   O     O_R   0.037210 0.499990 0.052970 -0.591789
O35   O     O_R   0.462790 0.999990 0.947030 -0.592019
O36   O     O_R   0.537210 0.999990 0.052970 -0.592471
O37   O     O_R   0.037190 0.500000 0.872640 -0.580319
O38   O     O_R   0.962810 0.500000 0.127360 -0.581014
O39   O     O_R   0.537190 1.000000 0.872640 -0.579405
O40   O     O_R   0.462810 1.000000 0.127360 -0.579799
O41   O     O_R   0.962790 0.564250 0.037210 -0.594876
O42   O     O_R   0.037210 0.564250 0.962790 -0.574649
O43   O     O_R   0.462790 0.064250 0.037210 -0.580376
O44   O     O_R   0.537210 0.064250 0.962790 -0.580578
O45   O     O_R   0.500000 0.435740 0.052190 -0.589388
O46   O     O_R   0.500000 0.435740 0.947810 -0.589386
O47   O     O_R   0.000000 0.935740 0.052190 -0.588079
O48   O     O_R   1.000000 0.935740 0.947810 -0.587346
N1    N     N_2   0.442787 0.633505 0.138508 -0.412748
H81   H     H_    0.437533 0.649461 0.184862 0.248313
C161  C     C_3   0.401887 0.619921 0.151773 -0.671311
H82   H     H_    0.382624 0.649211 0.156393 0.215978
H83   H     H_    0.382030 0.600777 0.205740 0.221321
H84   H     H_    0.408330 0.598728 0.104911 0.221076
N2    N     N_2   0.556609 0.634497 0.860343 -0.413149
H85   H     H_    0.561780 0.650832 0.813886 0.248424
C162  C     C_3   0.597577 0.620906 0.847065 -0.671466
H86   H     H_    0.616768 0.650178 0.842205 0.216248
H87   H     H_    0.617457 0.602195 0.793217 0.221057
H88   H     H_    0.591241 0.599292 0.894026 0.221141
N3    N     N_2   0.939501 0.134081 0.136011 -0.415598
H89   H     H_    0.932415 0.150355 0.183435 0.249828
C163  C     C_3   0.899937 0.120379 0.144556 -0.674405
H90   H     H_    0.881459 0.149600 0.146277 0.217471
H91   H     H_    0.878538 0.101542 0.198541 0.223065
H92   H     H_    0.908154 0.098868 0.096864 0.221993
N4    N     N_2   0.060865 0.133682 0.861414 -0.415896
H93   H     H_    0.068047 0.149666 0.813239 0.249121
C164  C     C_3   0.100347 0.120297 0.853672 -0.675074
H94   H     H_    0.118788 0.149675 0.850934 0.217692
H95   H     H_    0.121826 0.101346 0.800448 0.222965
H96   H     H_    0.092029 0.098991 0.902262 0.222132
C165  C     C_1   0.070039 0.575555 0.782903 0.237419
N5    N     N_1   0.066563 0.600960 0.825234 -0.301760
C166  C     C_1   0.930839 0.423553 0.215930 0.236421
N6    N     N_1   0.934552 0.398167 0.173350 -0.296971
C167  C     C_1   0.567744 0.077927 0.785918 0.230329
N7    N     N_1   0.563752 0.103196 0.828899 -0.290049
C168  C     C_1   0.429883 0.076383 0.214519 0.232404
N8    N     N_1   0.432945 0.101921 0.171947 -0.288899

loop_
_geom_bond_atom_site_label_1
_geom_bond_atom_site_label_2
_ccdc_geom_bond_type
C4    O20   A    
C69   H25   S    
C146  H62   S    
C133  C137  A    
C55   C59   A    
C142  C146  A    
C59   H19   S    
C136  C140  A    
C4    C36   S    
C144  C148  A    
C161  H83   S    
N1    H81   S    
C135  C139  A    
C46   O22   A    
C100  C128  A    
Cu10  O9    S    
C133  H53   S    
C154  C158  A    
C92   O31   A    
C26   C50   A    
C7    C159  A    
C29   C33   A    
C91   O30   A    
Cu6   O42   S    
C117  C132  A    
C9    C13   A    
C80   C86   A    
C40   H8    S    
C156  C168  S    
C77   C101  S    
C152  C156  A    
C70   C74   A    
C149  H65   S    
Cu11  O15   S    
C151  C155  A    
C61   C105  S    
C141  C145  A    
C81   H35   S    
C2    C34   S    
C136  H56   S    
C17   H69   S    
C2    O2    A    
C41   C49   A    
Cu1   Cu3   S    
C47   O27   A    
Cu2   Cu4   S    
C48   O28   A    
C25   C29   A    
Cu8   O44   S    
Cu3   O18   S    
C27   C31   A    
C28   C32   A    
Cu2   O4    S    
C111  H31   S    
C62   C66   A    
C123  C126  A    
Cu7   O40   S    
C123  H51   S    
C17   C21   A    
C86   H2    S    
C19   C23   A    
C27   H75   S    
C111  C130  A    
C161  H82   S    
C16   C20   A    
C31   H79   S    
Cu10  O6    S    
C118  C124  A    
C71   H27   S    
C154  C166  S    
Cu1   O21   S    
C81   C90   A    
C98   C127  A    
C45   O25   A    
C49   C73   S    
C60   H20   S    
C112  H32   S    
C79   C85   A    
C91   C125  S    
C96   O40   A    
Cu5   O41   S    
C57   C61   A    
C99   C128  A    
C62   C106  S    
C59   C63   A    
C60   C64   A    
C110  H30   S    
C24   C96   S    
Cu12  O16   S    
C101  O41   A    
C66   C70   A    
C21   C93   S    
C43   H11   S    
C23   C95   S    
C108  O12   A    
C153  C165  S    
C61   C65   A    
C166  N6    T    
C164  H94   S    
C122  H50   S    
C14   H46   S    
N2    C162  S    
C26   H74   S    
Cu7   O31   S    
Cu5   O38   S    
C78   C87   A    
C103  O46   A    
C80   H34   S    
N4    C164  S    
C84   C135  A    
C115  C121  A    
C82   H36   S    
C99   H39   S    
C94   O38   A    
C57   H17   S    
C135  H55   S    
C64   C68   A    
C50   C74   S    
N3    C163  S    
C1    O17   A    
C106  O10   A    
C45   O21   A    
C3    O19   A    
C115  H41   S    
C110  C129  A    
C107  O7    A    
Cu5   O33   S    
C117  H43   S    
C149  C153  A    
Cu10  O46   S    
C46   O26   A    
Cu2   O24   S    
C124  H52   S    
C23   C159  A    
C58   H18   S    
C120  C140  A    
C95   O39   A    
C104  O48   A    
C55   C75   A    
C44   C52   A    
C77   C85   A    
C70   H26   S    
C155  C167  S    
C22   C94   S    
C165  N5    T    
C11   C15   A    
Cu1   O2    S    
C6    C158  A    
C27   C51   A    
C64   C108  S    
C162  H87   S    
C30   C34   A    
C155  C159  A    
C12   C16   A    
C156  C160  A    
C10   C14   A    
C102  O44   A    
Cu3   O25   S    
C79   H33   S    
C29   H77   S    
C147  C151  A    
C121  C125  A    
C97   C109  A    
C3    C35   S    
C8    C12   A    
C164  H96   S    
C99   C111  A    
C137  N1    S    
C42   C50   A    
C48   O24   A    
Cu4   O19   S    
C26   C30   A    
C109  C129  A    
C4    O4    A    
C15   H47   S    
C124  C126  A    
C163  H92   S    
C18   C22   A    
C119  C138  A    
C148  C152  A    
C52   C76   S    
C53   C57   A    
C39   H7    S    
C19   H71   S    
C37   H5    S    
Cu9   O13   S    
C88   H4    S    
C13   C17   A    
C122  C125  A    
Cu11  O7    S    
C92   O32   A    
C93   O33   A    
C82   C88   A    
C91   O29   A    
C37   C41   A    
C114  C120  S    
C79   C89   A    
C118  C132  A    
C40   C44   A    
C118  H44   S    
C143  H59   S    
C66   H22   S    
C25   H73   S    
C58   C62   A    
C47   O23   A    
C9    C45   S    
C98   C110  A    
C145  H61   S    
C78   C102  S    
C11   C47   S    
C12   C48   S    
C42   H10   S    
C15   C19   A    
C5    C9    A    
C116  C122  A    
Cu3   O17   S    
C56   C76   A    
C141  H57   S    
C28   H76   S    
C80   C89   A    
C113  O14   A    
C83   C134  A    
Cu7   O35   S    
C139  N3    S    
Cu8   O36   S    
Cu6   O37   S    
C90   C127  S    
Cu4   O27   S    
C69   C73   A    
C6    C142  A    
C72   C76   A    
C18   H70   S    
C163  H90   S    
C104  C130  S    
C41   H9    S    
C7    C143  A    
C1    O1    A    
C16   H48   S    
C65   H21   S    
N1    C161  S    
C2    O18   A    
N2    H85   S    
Cu9   Cu10  S    
Cu5   O29   S    
Cu6   O34   S    
Cu7   Cu8   S    
Cu11  O47   S    
C22   C158  A    
C33   C37   A    
C56   C60   A    
C35   C39   A    
C168  N8    T    
C68   H24   S    
C103  C129  S    
C81   C87   A    
C97   H37   S    
C100  C112  A    
C5    C157  A    
C31   C35   A    
C8    C160  A    
C32   C36   A    
C87   H3    S    
C78   C88   A    
C103  O45   A    
C140  N4    S    
C84   C136  A    
C105  O5    A    
C144  H60   S    
Cu2   O3    S    
C92   C126  S    
C6    C10   A    
C146  C150  A    
C151  H67   S    
C82   C90   A    
C93   O37   A    
Cu12  O11   S    
C109  H29   S    
C83   C132  S    
C114  O15   A    
C43   C51   A    
N3    H89   S    
C65   C69   A    
Cu9   O10   S    
C96   O36   A    
C67   C71   A    
C153  C157  A    
Cu11  O12   S    
C25   C49   A    
C142  H58   S    
Cu1   O22   S    
N4    H93   S    
Cu8   O39   S    
C54   H14   S    
C121  H49   S    
C161  H84   S    
C13   H45   S    
C145  C149  A    
C89   C128  S    
C147  H63   S    
Cu11  Cu12  S    
Cu12  O48   S    
Cu5   Cu6   S    
C38   H6    S    
Cu10  O14   S    
C167  N7    T    
C14   C18   A    
C97   C127  A    
Cu1   O1    S    
C1    C33   S    
C94   O34   A    
C115  C131  A    
C162  H86   S    
C143  C147  A    
C98   H38   S    
C134  H54   S    
C51   C75   S    
C38   C42   A    
C114  O16   A    
C101  O42   A    
C95   O35   A    
C53   H13   S    
C20   C24   A    
C150  H66   S    
C10   C46   S    
C85   H1    S    
C54   C74   A    
C55   H15   S    
Cu12  O8    S    
C44   H12   S    
C68   C72   A    
Cu4   O20   S    
Cu9   O5    S    
C67   H23   S    
C3    O3    A    
Cu7   O43   S    
C63   C67   A    
C163  H91   S    
C119  C137  A    
C56   H16   S    
C36   C40   A    
C116  H42   S    
Cu8   O32   S    
C39   C43   A    
C164  H95   S    
C100  H40   S    
C30   H78   S    
C148  H64   S    
C72   H28   S    
Cu2   O23   S    
C7    C11   A    
C152  H68   S    
C8    C144  A    
C120  C139  A    
C113  C119  S    
C138  N2    S    
C77   C86   A    
C108  O8    A    
Cu6   O30   S    
C63   C107  S    
C54   C58   A    
C162  H88   S    
C34   C38   A    
C21   C157  A    
C53   C73   A    
C5    C141  A    
C134  C138  A    
C24   C160  A    
C102  O43   A    
Cu3   O26   S    
C32   H80   S    
C84   C131  S    
C112  C130  A    
C117  C123  A    
C71   C75   A    
C28   C52   A    
C116  C131  A    
C104  O47   A    
C20   H72   S    
C113  O13   A    
C83   C133  A    
C105  O9    A    
C150  C154  A    
C106  O6    A    
Cu4   O28   S    
C107  O11   A    
Cu9   O45   S    
