data_mof_unit_47565.cif
_audit_creation_date              2013-03-05T15:53:35-0500
_audit_creation_method            fapswitch 2.2
_symmetry_space_group_name_H-M    P1
_symmetry_Int_Tables_number       1
_space_group_crystal_system       triclinic
_cell_length_a                    9.962992
_cell_length_b                    10.663666
_cell_length_c                    13.580798
_cell_angle_alpha                 93.799482
_cell_angle_beta                  83.930853
_cell_angle_gamma                 93.481148
_cell_volume                      1429.51139665

loop_
_atom_site_label
_atom_site_type_symbol
_atom_site_description
_atom_site_fract_x
_atom_site_fract_y
_atom_site_fract_z
_atom_type_partial_charge
O1    O     O_R   0.385310 0.683220 0.500000 -0.669497
O2    O     O_R   0.614640 0.683250 0.500010 -0.560658
C1    C     C_R   0.505759 0.734104 0.478345 0.943335
O3    O     O_R   0.368830 0.499960 0.640340 -0.644909
O4    O     O_R   0.598160 0.499980 0.640350 -0.546349
C2    C     C_R   0.476288 0.498067 0.685298 0.946910
Zn1   Zn    Zn3+2 0.346870 0.499980 0.499990 1.004361
Zn2   Zn    Zn3+2 0.653130 0.500020 0.500010 1.029054
O5    O     O_R   0.385360 0.316750 0.499990 -0.558163
O6    O     O_R   0.614690 0.316780 0.500000 -0.616422
O7    O     O_R   0.401840 0.500020 0.359650 -0.619679
O8    O     O_R   0.631170 0.500040 0.359660 -0.601824
C3    C     C_R   0.495527 0.256685 0.494566 0.867146
C4    C     C_R   0.523282 0.498179 0.314482 0.873089
C5    C     C_1   0.539230 0.482826 0.210724 -0.061487
C6    C     C_2   0.555054 0.444679 0.018544 -0.192653
C7    C     C_2   0.438072 0.446953 0.976619 0.237949
C8    C     C_1   0.444922 0.465862 0.873735 0.041537
C9    C     C_1   0.550294 0.465361 0.123076 0.079151
C10   C     C_1   0.457994 0.482569 0.787619 -0.040923
C11   C     C_R   0.279165 0.832959 0.395097 -0.108683
H1    H     H_    0.296468 0.743499 0.354403 0.164679
C12   C     C_R   0.148152 0.859867 0.428828 -0.139718
H2    H     H_    0.065119 0.793055 0.414992 0.155507
C13   C     C_R   0.125144 0.973387 0.480750 -0.140518
H3    H     H_    0.021972 0.996259 0.504288 0.211438
C14   C     C_R   0.229337 0.067693 0.482152 0.323662
C15   C     C_R   0.368157 0.037066 0.460393 -0.010562
C16   C     C_R   0.387495 0.910518 0.428471 0.051924
C17   C     C_R   0.511220 0.859506 0.438600 -0.182867
C18   C     C_R   0.629163 0.936834 0.427882 -0.031783
H4    H     H_    0.708208 0.126390 0.439025 0.213727
C19   C     C_R   0.616539 0.066190 0.444928 -0.206409
C20   C     C_R   0.489136 0.118422 0.469868 -0.133282
H5    H     H_    0.886599 0.386528 0.368159 0.161398
C21   C     C_R   0.865780 0.692669 0.622524 0.344586
C22   C     C_R   0.948130 0.793514 0.657190 -0.215969
H6    H     H_    0.903315 0.875373 0.695961 0.206039
C23   C     C_R   0.082323 0.778821 0.664702 -0.242226
H7    H     H_    0.141526 0.851077 0.703313 0.191000
C24   C     C_R   0.139616 0.669609 0.626283 -0.097389
H8    H     H_    0.242048 0.664010 0.638955 0.220924
C25   C     C_R   0.070100 0.581062 0.566108 0.119445
C26   C     C_R   0.925627 0.586470 0.565040 0.016027
N1    N     N_R   0.857120 0.501200 0.500900 -0.122476
C27   C     C_R   0.934598 0.438048 0.427463 -0.042497
H9    H     H_    0.135861 0.414872 0.356496 0.205523
C28   C     C_R   0.077615 0.447661 0.423441 0.044531
N2    N     N_R   0.142720 0.501280 0.500940 -0.104726
N3    N     N_R   0.307010 0.446028 0.033666 0.221839
O9    O     O_R   0.205900 0.493364 0.998339 -0.331971
O10   O     O_R   0.282795 0.381312 0.112224 -0.358273
N4    N     N_R   0.738474 0.686306 0.680138 0.230678
O11   O     O_R   0.657391 0.776831 0.676668 -0.418479
O12   O     O_R   0.734479 0.632008 0.763626 -0.378076
C29   C     C_2   0.690933 0.433815 0.961463 0.979076
O13   O     O_2   0.792404 0.472895 0.999755 -0.551016
O14   O     O_R   0.703897 0.375236 0.865927 -0.777473
H10   H     H_    0.801387 0.373671 0.835790 0.373979
C30   C     C_2   0.760905 0.887358 0.385594 0.916547
O15   O     O_2   0.862183 0.957971 0.378374 -0.636596
O16   O     O_R   0.767794 0.763395 0.345567 -0.788332
H11   H     H_    0.862434 0.742429 0.316818 0.343565
N5    N     N_R   0.185427 0.186663 0.467080 0.218958
O17   O     O_R   0.092503 0.234784 0.530551 -0.415473
O18   O     O_R   0.198145 0.217833 0.375586 -0.390229

loop_
_geom_bond_atom_site_label_1
_geom_bond_atom_site_label_2
_geom_bond_distance
_ccdc_geom_bond_type
C7    N3    1.445995 S    
C18   C30   1.488455 S    
O4    Zn2   1.926620 S    
N3    O10   1.302157 A    
C12   H2    1.082044 S    
C18   C19   1.394549 A    
C16   C17   1.400544 A    
C13   C14   1.401477 A    
C2    C10   1.401693 S    
C24   H8    1.058572 S    
N4    O12   1.302726 A    
Zn1   O7    1.926620 S    
H9    C28   1.075425 S    
C17   C18   1.394271 A    
Zn2   O8    1.941440 S    
H4    C19   1.082954 S    
C6    C29   1.494075 S    
C19   C20   1.416360 A    
O14   H10   1.013997 S    
C15   C20   1.453626 A    
C3    C20   1.489272 S    
C23   C24   1.375343 A    
O1    Zn1   1.968230 S    
N4    O11   1.302091 A    
N5    O17   1.301450 A    
C30   O16   1.398402 S    
C5    C9    1.187049 T    
C24   C25   1.406090 A    
O16   H11   1.013737 S    
O3    Zn1   1.941440 S    
C28   N2    1.369296 A    
C1    C17   1.470762 S    
O3    C2    1.289134 A    
C15   C16   1.408011 A    
C22   H6    1.084114 S    
C29   O14   1.399010 S    
C7    C8    1.418855 S    
C8    C10   1.187037 T    
C11   C12   1.377521 A    
C25   C26   1.445673 A    
C6    C9    1.418376 S    
O4    C2    1.299719 A    
O7    C4    1.298049 A    
C27   C28   1.417855 A    
C21   C26   1.453920 A    
C6    C7    1.352301 D    
C14   N5    1.401256 S    
N1    C27   1.362119 A    
C14   C15   1.436133 A    
C12   C13   1.378976 A    
C29   O13   1.223691 D    
Zn1   N2    2.033506 S    
C22   C23   1.370705 A    
O2    Zn2   2.013899 S    
C23   H7    1.083154 S    
Zn1   O5    2.013897 S    
O5    C3    1.297082 A    
C4    C5    1.401037 S    
C21   C22   1.399515 A    
O2    C1    1.310528 A    
C21   N4    1.418540 S    
N3    O9    1.302224 A    
C13   H3    1.081153 S    
C11   H1    1.084048 S    
H5    C27   1.081697 S    
C11   C16   1.414101 A    
Zn2   O6    1.968228 S    
C25   N2    1.367528 A    
C26   N1    1.413087 A    
Zn2   N1    2.032934 S    
O8    C4    1.291306 A    
C30   O15   1.221203 D    
O1    C1    1.299398 A    
O6    C3    1.321166 A    
N5    O18   1.298778 A    
