data_mof_unit_49099.cif
_audit_creation_date              2012-12-11T15:09:37-0500
_audit_creation_method            fapswitch 2.2
_symmetry_space_group_name_H-M    P1
_symmetry_Int_Tables_number       1
_space_group_crystal_system       triclinic
_cell_length_a                    20.924456
_cell_length_b                    7.125107
_cell_length_c                    14.109468
_cell_angle_alpha                 89.88934
_cell_angle_beta                  98.079078
_cell_angle_gamma                 89.839472
_cell_volume                      2082.67458129

loop_
_atom_site_label
_atom_site_type_symbol
_atom_type_description
_atom_site_fract_x
_atom_site_fract_y
_atom_site_fract_z
_atom_type_partial_charge
O1    O     O_R   0.447130 0.507140 0.597350 -0.539219
O2    O     O_R   0.552870 0.007140 0.402650 -0.538417
O3    O     O_R   0.578910 0.181280 0.586990 -0.531002
O4    O     O_R   0.421090 0.681280 0.413010 -0.531539
C1    C     C_R   0.604825 0.344182 0.606639 0.776980
C2    C     C_R   0.395211 0.844699 0.393314 0.773176
O5    O     O_R   0.449230 0.177860 0.608640 -0.531690
O6    O     O_R   0.550770 0.677860 0.391360 -0.528770
O7    O     O_R   0.422260 0.000770 0.424450 -0.545064
O8    O     O_R   0.577740 0.500770 0.575550 -0.543917
C3    C     C_R   0.432873 0.345004 0.634658 0.787764
C4    C     C_R   0.566809 0.845316 0.364950 0.792375
O9    O     O_3   0.491310 0.336980 0.439550 -0.366754
O10   O     O_3   0.508690 0.836980 0.560450 -0.368034
V1    V     V_3+5 0.501610 0.064760 0.511210 1.621795
V2    V     V_3+5 0.498390 0.564760 0.488790 1.620345
C5    C     C_R   0.624150 0.709627 0.133102 0.365170
C6    C     C_R   0.376098 0.194214 0.864326 0.278311
H1    H     H_    0.697802 0.779818 0.998241 0.199821
H2    H     H_    0.300814 0.248731 0.999169 0.189181
C7    C     C_R   0.604573 0.843807 0.284969 -0.199286
C8    C     C_R   0.395129 0.341092 0.714596 -0.162071
C9    C     C_R   0.916393 0.891969 0.300020 -0.233043
C10   C     C_R   0.083357 0.396449 0.699984 -0.233081
C11   C     C_R   0.878914 0.910042 0.373340 0.509239
C12   C     C_R   0.120746 0.411611 0.626403 0.510132
C13   C     C_R   0.811853 0.903500 0.352500 -0.226605
C14   C     C_R   0.187741 0.398957 0.646856 -0.227044
C15   C     C_R   0.780666 0.880380 0.257538 0.057681
C16   C     C_R   0.218911 0.371347 0.741587 0.053294
C17   C     C_R   0.819177 0.865484 0.181348 0.004710
C18   C     C_R   0.180519 0.356636 0.817786 0.009666
C19   C     C_R   0.712269 0.860252 0.236991 0.073888
C20   C     C_R   0.287208 0.348241 0.761882 0.082031
C21   C     C_R   0.685702 0.792042 0.146496 -0.073451
C22   C     C_R   0.313711 0.272999 0.851311 -0.039825
C23   C     C_R   0.721330 0.804832 0.070669 -0.016508
C24   C     C_R   0.277754 0.279895 0.927095 -0.056093
C25   C     C_R   0.786568 0.849225 0.085525 -0.064932
C26   C     C_R   0.213129 0.332667 0.913126 -0.057454
C27   C     C_R   0.669728 0.894555 0.304209 -0.269318
C28   C     C_R   0.329695 0.388938 0.695452 -0.272020
C29   C     C_R   0.581089 0.747545 0.199350 0.371656
C30   C     C_R   0.419027 0.241085 0.799098 0.282363
C31   C     C_R   0.887752 0.869316 0.205067 -0.152335
C32   C     C_R   0.112028 0.368460 0.794633 -0.153646
H3    H     H_    0.686115 0.957647 0.372797 0.135145
H4    H     H_    0.313104 0.455913 0.627711 0.131999
H5    H     H_    0.968527 0.897753 0.316572 0.188497
H6    H     H_    0.031295 0.407822 0.683846 0.188761
H7    H     H_    0.785334 0.909725 0.412632 0.154384
H8    H     H_    0.214206 0.403724 0.586607 0.154816
C33   C     C_1   0.166571 0.856806 0.168458 -0.083941
C34   C     C_1   0.833490 0.358160 0.831339 -0.079356
C35   C     C_1   0.218912 0.854926 0.219632 0.094381
C36   C     C_1   0.781159 0.355702 0.780159 0.100378
C37   C     C_1   0.280594 0.853935 0.279830 0.060366
C38   C     C_1   0.719461 0.353441 0.720025 0.066818
C39   C     C_1   0.332852 0.851778 0.331217 -0.105665
C40   C     C_1   0.667189 0.350592 0.668702 -0.098938
O11   O     O_R   0.922300 0.202240 0.924350 -0.517598
O12   O     O_R   0.077700 0.702240 0.075650 -0.517372
O13   O     O_R   0.050780 0.535130 0.891350 -0.533627
O14   O     O_R   0.949220 0.035130 0.108650 -0.534021
C41   C     C_R   0.068559 0.369170 0.866954 0.693102
C42   C     C_R   0.931473 0.869292 0.133086 0.691337
O15   O     O_R   0.921100 0.531560 0.912990 -0.553230
O16   O     O_R   0.078900 0.031560 0.087010 -0.553382
O17   O     O_R   0.947120 0.708470 0.097370 -0.548934
O18   O     O_R   0.052880 0.208470 0.902630 -0.549815
C43   C     C_R   0.895877 0.363857 0.893324 0.722716
C44   C     C_R   0.104136 0.863336 0.106586 0.721837
O19   O     O_3   0.008710 0.375800 0.060400 -0.375904
O20   O     O_3   0.991290 0.875800 0.939600 -0.376355
V3    V     V_3+5 0.998380 0.648080 0.988790 1.506557
V4    V     V_3+5 0.001620 0.148080 0.011210 1.505106
S1    S     S_3+6 0.498437 0.675383 0.177612 0.121010
O21   O     O_2   0.490611 0.498138 0.232742 -0.310532
O22   O     O_2   0.456567 0.826184 0.210903 -0.333635
O23   O     O_3   0.472989 0.634845 0.061392 -0.393474
H9    H     H_    0.432184 0.564093 0.060041 0.371284
S2    S     S_3+6 0.502851 0.182748 0.822879 0.137896
O24   O     O_2   0.515066 0.003100 0.772682 -0.267596
O25   O     O_2   0.542314 0.336549 0.787235 -0.331891
O26   O     O_3   0.527054 0.155108 0.940231 -0.383846
H10   H     H_    0.503951 0.256182 0.969350 0.408606
S3    S     S_3+6 0.611592 0.514559 0.054519 0.083679
O27   O     O_2   0.578128 0.363033 0.102845 -0.289422
O28   O     O_2   0.571422 0.574252 0.962636 -0.241095
O29   O     O_3   0.682098 0.426419 0.029691 -0.518555
H11   H     H_    0.669938 0.319988 0.985784 0.394331
S4    S     S_3+6 0.391691 0.001972 0.945585 0.073495
O30   O     O_2   0.436478 0.863317 0.908876 -0.225855
O31   O     O_2   0.420850 0.073016 0.042220 -0.284132
O32   O     O_3   0.322225 0.890795 0.956620 -0.513405
H12   H     H_    0.333985 0.795117 0.007136 0.374950
S5    S     S_3+6 0.915769 0.939231 0.492605 0.044491
O33   O     O_2   0.888768 0.112322 0.533271 -0.317251
O34   O     O_2   0.900910 0.771505 0.550360 -0.310109
O35   O     O_3   0.996236 0.960728 0.497814 -0.450925
H13   H     H_    0.012229 0.986404 0.565992 0.386131
S6    S     S_3+6 0.083888 0.445345 0.507361 0.044784
O36   O     O_2   0.107611 0.626451 0.470281 -0.315131
O37   O     O_2   0.102403 0.286065 0.446947 -0.311483
O38   O     O_3   0.003057 0.453596 0.501338 -0.451323
H14   H     H_    0.986934 0.484051 0.433641 0.385854
C45   C     C_2   0.815995 0.876188 0.997149 0.368909
H15   H     H_    0.855325 0.789608 0.981191 0.075321
O39   O     O_2   0.792976 0.990771 0.937426 -0.521782
C46   C     C_2   0.184551 0.364547 0.001767 0.360596
H16   H     H_    0.145241 0.280348 0.019330 0.077750
O40   O     O_2   0.208035 0.481243 0.059544 -0.524165

loop_
_geom_bond_atom_site_label_1
_geom_bond_atom_site_label_2
_ccdc_geom_bond_type
C16   C18   A    
S3    O27   D    
O13   C41   A    
C9    C31   A    
C13   C15   A    
O19   V3    S    
C33   C35   T    
O32   H12   S    
O1    C3    A    
O14   V4    S    
O2    C4    A    
C2    O7    A    
S5    O33   D    
S1    O21   D    
C25   C45   S    
O20   V4    S    
C21   C23   A    
C10   C12   A    
C30   S2    S    
C37   C39   T    
C42   O17   A    
C38   C40   T    
C41   O18   A    
C15   C19   A    
S6    O38   S    
C46   H16   S    
S4    O30   D    
H1    C23   S    
C7    C29   A    
C8    C30   A    
C34   C43   S    
C17   C25   A    
C14   C16   A    
C20   C28   A    
C45   H15   S    
O15   C43   A    
O16   C44   A    
O11   C43   A    
O5    V1    S    
O6    V2    S    
C45   O39   D    
S5    O34   D    
C13   H7    S    
S1    O22   D    
O11   V4    S    
C10   H6    S    
C34   C36   T    
O20   V3    S    
C16   C20   A    
C32   C41   S    
O4    C2    A    
C26   C46   S    
O26   H10   S    
C4    C7    S    
S4    O32   S    
O14   C42   A    
O4    V2    S    
O5    C3    A    
C5    C29   A    
C6    C30   A    
H2    C24   S    
O6    C4    A    
S4    O31   D    
C27   H3    S    
O12   C44   A    
O1    V2    S    
C28   H4    S    
S6    O37   D    
O2    V1    S    
C7    C27   A    
C11   S5    S    
S2    O25   D    
C35   C37   S    
O18   V4    S    
C11   C13   A    
O19   V4    S    
O12   V3    S    
S3    O29   S    
C29   S1    S    
S5    O35   S    
O3    V1    S    
S1    O23   S    
C1    C40   S    
C5    S3    S    
C18   C32   A    
C2    C39   S    
O23   H9    S    
O3    C1    A    
O16   V4    S    
S2    O26   S    
O38   H14   S    
C3    C8    S    
C12   C14   A    
C19   C27   A    
S3    O28   D    
O7    V1    S    
C6    S4    S    
C1    O8    A    
C23   C25   A    
O8    V2    S    
C12   S6    S    
C24   C26   A    
C14   H8    S    
O29   H11   S    
C8    C28   A    
O13   V3    S    
C22   C24   A    
O35   H13   S    
C19   C21   A    
C36   C38   S    
O17   V3    S    
C20   C22   A    
C18   C26   A    
S6    O36   D    
C46   O40   D    
C9    H5    S    
C9    C11   A    
O15   V3    S    
C15   C17   A    
S2    O24   D    
C17   C31   A    
O9    V2    S    
C31   C42   S    
O10   V1    S    
C5    C21   A    
C33   C44   S    
C6    C22   A    
C10   C32   A    
