data_mof_unit_40701.cif
_audit_creation_date              2012-12-10T20:27:16-0500
_audit_creation_method            fapswitch 2.2
_symmetry_space_group_name_H-M    P1
_symmetry_Int_Tables_number       1
_space_group_crystal_system       triclinic
_cell_length_a                    10.675334
_cell_length_b                    10.690105
_cell_length_c                    9.886788
_cell_angle_alpha                 89.944538
_cell_angle_beta                  103.768482
_cell_angle_gamma                 90.686638
_cell_volume                      1095.78299094

loop_
_atom_site_label
_atom_site_type_symbol
_atom_type_description
_atom_site_fract_x
_atom_site_fract_y
_atom_site_fract_z
_atom_type_partial_charge
C1    C     C_R   0.504191 0.260288 0.501106 0.887714
C2    C     C_R   0.585069 0.572777 0.093399 -0.029502
C3    C     C_R   0.584616 0.573203 0.948453 0.122752
C4    C     C_R   0.258078 0.495751 0.441536 0.885616
C5    C     C_R   0.424722 0.416785 0.909990 0.165121
C6    C     C_3   0.281343 0.406352 0.868908 -0.495889
C7    C     C_3   0.281657 0.406006 0.022353 -0.460356
C8    C     C_R   0.501459 0.739767 0.500498 0.907512
C9    C     C_R   0.741929 0.495798 0.558093 0.883564
C10   C     C_2   0.119460 0.477744 0.406556 -0.167915
C11   C     C_2   0.066296 0.424572 0.502305 -0.229044
C12   C     C_R   0.520229 0.128768 0.506919 -0.090713
C13   C     C_2   0.880422 0.476216 0.590090 -0.056386
C14   C     C_2   0.929005 0.426654 0.489225 -0.136277
C15   C     C_R   0.485585 0.063988 0.614861 0.058813
C16   C     C_1   0.676607 0.650641 0.188283 0.235509
C17   C     C_1   0.044101 0.519455 0.272487 0.203827
C18   C     C_1   0.249119 0.877081 0.573137 0.164826
C19   C     C_1   0.385929 0.876313 0.810367 0.191079
C20   C     C_R   0.572978 0.064384 0.409410 0.081426
C21   C     C_R   0.568644 0.934561 0.409017 -0.246231
C22   C     C_R   0.514640 0.871460 0.505925 -0.137173
C23   C     C_R   0.482472 0.936373 0.614608 0.051793
C24   C     C_3   0.363224 0.931520 0.670381 -0.004309
C25   C     C_3   0.367376 0.074194 0.670694 -0.543370
C26   C     C_R   0.424648 0.416928 0.052167 0.185162
H1    H     H_    0.867420 0.400230 0.388788 0.171739
H2    H     H_    0.656065 0.744969 0.920813 0.179485
H3    H     H_    0.765704 0.628892 0.946579 0.175859
H4    H     H_    0.906502 0.542394 0.789732 0.203024
H5    H     H_    0.017440 0.589345 0.705986 0.198064
H6    H     H_    0.574481 0.101900 0.209338 0.191483
H7    H     H_    0.721601 0.101018 0.320895 0.185410
H8    H     H_    0.390005 0.117547 0.776153 0.200986
H9    H     H_    0.236367 0.491211 0.813911 0.227394
H10   H     H_    0.248293 0.315790 0.816633 0.195229
H11   H     H_    0.236159 0.490139 0.055215 0.227100
H12   H     H_    0.249455 0.315300 0.058440 0.201433
H13   H     H_    0.125530 0.392079 0.600277 0.188655
H14   H     H_    0.602299 0.884318 0.329904 0.183269
H15   H     H_    0.286207 0.118999 0.595077 0.190081
N1    N     N_R   0.499160 0.499140 0.142600 -0.132077
N2    N     N_R   0.499160 0.499180 0.856960 -0.103616
N3    N     N_1   0.751423 0.712841 0.263575 -0.218398
N4    N     N_3   0.671401 0.652259 0.896070 -0.392950
N5    N     N_3   0.962255 0.511959 0.722780 -0.454004
N6    N     N_1   0.984283 0.552600 0.165300 -0.230391
N7    N     N_3   0.626164 0.129379 0.308661 -0.433175
N8    N     N_1   0.159664 0.834113 0.496810 -0.208946
N9    N     N_1   0.403293 0.833153 0.920574 -0.229163
O1    O     O_R   0.500020 0.316790 0.614700 -0.619178
O2    O     O_R   0.500000 0.316760 0.385350 -0.597323
O3    O     O_R   0.317820 0.500020 0.571850 -0.617305
O4    O     O_R   0.317800 0.499980 0.342510 -0.613042
O5    O     O_R   0.500000 0.683240 0.614650 -0.598731
O6    O     O_R   0.499980 0.683210 0.385300 -0.611473
O7    O     O_R   0.682200 0.500020 0.657490 -0.598001
O8    O     O_R   0.682180 0.499980 0.428150 -0.619355
Zn1   Zn    Zn3+2 0.500010 0.500020 0.653140 0.965273
Zn2   Zn    Zn3+2 0.499990 0.499980 0.346860 0.965097

loop_
_geom_bond_atom_site_label_1
_geom_bond_atom_site_label_2
_ccdc_geom_bond_type
C8    C22   S    
C23   C24   S    
C6    C7    S    
O5    Zn1   S    
C14   H1    S    
C2    C16   S    
C6    H9    S    
C16   N3    T    
C12   C15   A    
N2    Zn1   S    
C25   H8    S    
C3    N2    A    
C8    O6    A    
C15   C23   A    
C2    C3    A    
O3    Zn1   S    
C3    N4    S    
O4    Zn2   S    
C13   C14   D    
C24   C25   S    
C11   H13   S    
C1    O1    A    
C19   N9    T    
C12   C20   A    
H6    N7    S    
C1    C12   S    
C7    C26   S    
C2    N1    A    
C18   C24   S    
C8    O5    A    
C21   C22   A    
C11   C14   S    
C7    H12   S    
C6    H10   S    
C19   C24   S    
C18   N8    T    
C9    O7    A    
C7    H11   S    
C5    C6    S    
C4    O3    A    
C1    O2    A    
H2    N4    S    
O7    Zn1   S    
O1    Zn1   S    
C10   C11   D    
C10   C17   S    
C4    C10   S    
C5    C26   A    
N1    Zn2   S    
C20   C21   A    
C26   N1    A    
C15   C25   S    
O2    Zn2   S    
C9    O8    A    
C25   H15   S    
H7    N7    S    
C9    C13   S    
C13   N5    S    
C5    N2    A    
C20   N7    S    
C4    O4    A    
C22   C23   A    
O8    Zn2   S    
H4    N5    S    
O6    Zn2   S    
C17   N6    T    
H3    N4    S    
H5    N5    S    
C21   H14   S    
