data_mof_unit_35729.cif
_audit_creation_date              2013-03-05T16:06:20-0500
_audit_creation_method            fapswitch 2.2
_symmetry_space_group_name_H-M    P1
_symmetry_Int_Tables_number       1
_space_group_crystal_system       triclinic
_cell_length_a                    10.890468
_cell_length_b                    9.573655
_cell_length_c                    27.707449
_cell_angle_alpha                 89.997423
_cell_angle_beta                  88.963373
_cell_angle_gamma                 90.000078
_cell_volume                      2888.34970092

loop_
_atom_site_label
_atom_site_type_symbol
_atom_site_description
_atom_site_fract_x
_atom_site_fract_y
_atom_site_fract_z
_atom_type_partial_charge
O1    O     O_R   0.319640 0.618740 0.500000 -0.517696
O2    O     O_R   0.680360 0.381260 0.500000 -0.530938
O3    O     O_R   0.680360 0.618740 0.500000 -0.517643
O4    O     O_R   0.319640 0.381260 0.500000 -0.530895
C1    C     C_R   0.262321 0.499522 0.499013 0.883923
C2    C     C_R   0.737677 0.499521 0.500995 0.884578
O5    O     O_R   0.500020 0.618770 0.430260 -0.535466
O6    O     O_R   0.499980 0.381230 0.569740 -0.540837
O7    O     O_R   0.499980 0.618770 0.569740 -0.535465
O8    O     O_R   0.500020 0.381230 0.430260 -0.540814
C3    C     C_R   0.500570 0.500117 0.407682 0.923642
C4    C     C_R   0.499445 0.500112 0.592317 0.924193
Cu1   Cu    Cu3+1 0.500000 0.640660 0.500000 1.055954
Cu2   Cu    Cu3+1 0.500000 0.359340 0.500000 1.042258
C5    C     C_R   0.406375 0.578482 0.179623 0.689607
C6    C     C_R   0.594077 0.578070 0.820362 0.689562
O9    O     O_2   0.311641 0.626040 0.207049 -0.455797
O10   O     O_2   0.688815 0.625555 0.792922 -0.455811
N1    N     N_R   0.508563 0.527726 0.201678 -0.426982
N2    N     N_R   0.491843 0.527377 0.798322 -0.427000
C7    C     C_R   0.610288 0.487949 0.175471 0.661476
C8    C     C_R   0.390127 0.487654 0.824547 0.661457
C9    C     C_R   0.595637 0.590818 0.280393 0.369533
C10   C     C_R   0.404615 0.590622 0.719646 0.369560
C11   C     C_R   0.598890 0.575341 0.330628 0.310784
C12   C     C_R   0.401250 0.575228 0.669410 0.310696
C13   C     C_R   0.413417 0.432961 0.328529 0.257590
C14   C     C_R   0.586786 0.432945 0.671422 0.257500
C15   C     C_R   0.420318 0.432378 0.277539 0.327224
C16   C     C_R   0.579958 0.432192 0.722414 0.327043
C17   C     C_R   0.508765 0.515967 0.253600 0.065677
C18   C     C_R   0.491545 0.515715 0.746399 0.065820
C19   C     C_R   0.506526 0.546120 0.101531 -0.188098
C20   C     C_R   0.493948 0.545869 0.898467 -0.188132
C21   C     C_R   0.399809 0.580606 0.128830 -0.114561
C22   C     C_R   0.600674 0.580234 0.871154 -0.114610
C23   C     C_R   0.290880 0.618471 0.104895 0.347366
C24   C     C_R   0.709635 0.618054 0.895074 0.347331
C25   C     C_R   0.615671 0.507964 0.125004 -0.156134
C26   C     C_R   0.384777 0.507736 0.875009 -0.156089
C27   C     C_R   0.504800 0.501461 0.354862 -0.341786
C28   C     C_R   0.495304 0.501413 0.645136 -0.341892
C29   C     C_R   0.386928 0.534631 0.976796 -0.002056
C30   C     C_R   0.613552 0.534619 0.023207 -0.002068
C31   C     C_R   0.609787 0.563446 0.972913 -0.028277
C32   C     C_R   0.390709 0.563597 0.027078 -0.028270
C33   C     C_R   0.496737 0.548418 0.949319 -0.086911
C34   C     C_R   0.503749 0.548554 0.050678 -0.086917
C35   C     C_R   0.279214 0.488883 0.953752 0.438142
C36   C     C_R   0.721241 0.488865 0.046269 0.438183
C37   C     C_R   0.276245 0.482669 0.902880 0.293946
C38   C     C_R   0.724198 0.482778 0.097143 0.293963
O11   O     O_2   0.296582 0.424838 0.801794 -0.487798
O12   O     O_2   0.703800 0.425125 0.198243 -0.487776
C39   C     C_R   0.287833 0.613650 0.053937 0.431208
C40   C     C_R   0.712691 0.613350 0.946034 0.431169
C41   C     C_R   0.063981 0.368979 0.499125 0.335001
C42   C     C_R   0.936781 0.624032 0.503825 0.342751
C43   C     C_R   0.936014 0.368977 0.500893 0.334885
C44   C     C_R   0.063213 0.624035 0.496195 0.342730
C45   C     C_R   0.871682 0.497371 0.502074 -0.387593
C46   C     C_R   0.128313 0.497373 0.497942 -0.387674
C47   C     C_R   0.558628 0.073999 0.463830 0.381874
C48   C     C_R   0.431671 0.924442 0.533516 0.374121
C49   C     C_R   0.441383 0.073991 0.536173 0.381919
C50   C     C_R   0.568338 0.924448 0.466487 0.374138
N3    N     N_R   0.500000 0.852070 0.500000 -0.269106
N4    N     N_R   0.500000 0.147930 0.500000 -0.267095
O13   O     O_3   0.316345 0.368654 0.352535 -0.595085
C51   C     C_3   0.219846 0.466589 0.357127 -0.346668
H1    H     H_    0.192815 0.509626 0.321505 0.209806
H2    H     H_    0.245232 0.552828 0.381930 0.153934
H3    H     H_    0.137726 0.413848 0.372775 0.166624
O14   O     O_3   0.683915 0.368973 0.647343 -0.595304
C52   C     C_3   0.780539 0.466864 0.643105 -0.346140
H4    H     H_    0.808745 0.507032 0.678982 0.210680
H5    H     H_    0.754664 0.555125 0.619207 0.154103
H6    H     H_    0.862034 0.415001 0.626580 0.165928
O15   O     O_3   0.611910 0.145502 0.425556 -0.538960
C53   C     C_3   0.544020 0.118603 0.383467 -0.262130
H7    H     H_    0.577517 0.189448 0.354417 0.180201
H8    H     H_    0.444136 0.139216 0.389245 0.184435
H9    H     H_    0.557408 0.010167 0.370250 0.166676
O16   O     O_3   0.362245 0.848324 0.566752 -0.518445
C54   C     C_3   0.241010 0.900094 0.571371 -0.084389
H10   H     H_    0.178701 0.810486 0.577845 0.184562
H11   H     H_    0.208531 0.956210 0.538764 0.169174
H12   H     H_    0.232021 0.968512 0.603525 0.159225
O17   O     O_3   0.388131 0.145485 0.574453 -0.538937
C55   C     C_3   0.456065 0.118586 0.616532 -0.262315
H13   H     H_    0.422582 0.189418 0.645587 0.180159
H14   H     H_    0.555942 0.139225 0.610740 0.184282
H15   H     H_    0.442705 0.010140 0.629752 0.166747
O18   O     O_3   0.637783 0.848336 0.433259 -0.518417
C56   C     C_3   0.759020 0.900110 0.428647 -0.084331
H16   H     H_    0.768037 0.968456 0.396471 0.159166
H17   H     H_    0.821338 0.810487 0.422214 0.184623
H18   H     H_    0.791466 0.956308 0.461244 0.169102
O19   O     O_3   0.340584 0.354635 0.250063 -0.675519
H19   H     H_    0.289475 0.294438 0.271424 0.364343
O20   O     O_3   0.659711 0.354327 0.749841 -0.675732
H20   H     H_    0.710606 0.294003 0.728446 0.363948
O21   O     O_3   0.188575 0.658994 0.131798 -0.650866
H21   H     H_    0.116771 0.669974 0.110737 0.369606
O22   O     O_3   0.811963 0.658425 0.868156 -0.650891
H22   H     H_    0.883783 0.669374 0.889211 0.369621
O23   O     O_3   0.308460 0.638597 0.643982 -0.524400
C57   C     C_3   0.212851 0.540756 0.638383 -0.243562
H23   H     H_    0.174745 0.506161 0.673979 0.191638
H24   H     H_    0.243961 0.448916 0.616762 0.152889
H25   H     H_    0.137148 0.591031 0.618553 0.149462
O24   O     O_3   0.691638 0.638648 0.356096 -0.524371
C58   C     C_3   0.787234 0.540790 0.361697 -0.243644
H26   H     H_    0.825410 0.506287 0.326102 0.191681
H27   H     H_    0.756080 0.448892 0.383283 0.152921
H28   H     H_    0.862898 0.591011 0.381564 0.149435
O25   O     O_3   0.317754 0.672849 0.742956 -0.529540
C59   C     C_3   0.362899 0.810704 0.744703 -0.241128
H29   H     H_    0.376605 0.854749 0.707806 0.172451
H30   H     H_    0.449820 0.816482 0.765165 0.151361
H31   H     H_    0.294089 0.876853 0.763868 0.196145
O26   O     O_3   0.682554 0.673071 0.257123 -0.529512
C60   C     C_3   0.637445 0.810945 0.255397 -0.241061
H32   H     H_    0.623701 0.854916 0.292301 0.172428
H33   H     H_    0.550554 0.816796 0.234919 0.151418
H34   H     H_    0.706297 0.877113 0.236261 0.196141
O27   O     O_3   0.165189 0.456506 0.881571 -0.682474
H35   H     H_    0.153930 0.529051 0.856495 0.370808
O28   O     O_3   0.835240 0.456605 0.118464 -0.682432
H36   H     H_    0.846513 0.529181 0.143526 0.370817
O29   O     O_3   0.181467 0.441075 0.981849 -0.663420
H37   H     H_    0.115997 0.403211 0.961287 0.384151
O30   O     O_3   0.818965 0.440915 0.018191 -0.663451
H38   H     H_    0.884412 0.403061 0.038769 0.384131
O31   O     O_3   0.186393 0.666449 0.030645 -0.534401
C61   C     C_3   0.210324 0.806489 0.017810 -0.287129
H39   H     H_    0.288516 0.814353 0.991529 0.151758
H40   H     H_    0.228141 0.871684 0.050216 0.165537
H41   H     H_    0.127979 0.849528 0.000110 0.206339
O32   O     O_3   0.814167 0.666130 0.969305 -0.534372
C62   C     C_3   0.790329 0.806227 0.982088 -0.286977
H42   H     H_    0.712139 0.814232 0.008364 0.151725
H43   H     H_    0.772562 0.871348 0.949657 0.165504
H44   H     H_    0.872701 0.849244 0.999775 0.206383
O33   O     O_3   0.124823 0.242351 0.502439 -0.539091
C63   C     C_3   0.140232 0.185315 0.455815 -0.231333
H45   H     H_    0.196530 0.254698 0.432209 0.185629
H46   H     H_    0.050601 0.162282 0.438930 0.171627
H47   H     H_    0.191299 0.085781 0.458927 0.155144
O34   O     O_3   0.876410 0.749434 0.511177 -0.554382
C64   C     C_3   0.896000 0.796724 0.558720 -0.284009
H48   H     H_    0.917838 0.712241 0.584973 0.118164
H49   H     H_    0.810792 0.848177 0.572155 0.163873
H50   H     H_    0.970406 0.875772 0.558358 0.177012
O35   O     O_3   0.875177 0.242350 0.497567 -0.539127
C65   C     C_3   0.859769 0.185255 0.544185 -0.231565
H51   H     H_    0.803208 0.254437 0.567756 0.185921
H52   H     H_    0.949383 0.162511 0.561123 0.171607
H53   H     H_    0.808976 0.085563 0.541047 0.155172
O36   O     O_3   0.123585 0.749445 0.488858 -0.554378
C66   C     C_3   0.104036 0.796770 0.441314 -0.284089
H54   H     H_    0.082277 0.712296 0.415048 0.118191
H55   H     H_    0.189241 0.848286 0.427902 0.163957
H56   H     H_    0.029595 0.875780 0.441667 0.176990

loop_
_geom_bond_atom_site_label_1
_geom_bond_atom_site_label_2
_geom_bond_distance
_ccdc_geom_bond_type
C29   C32   1.421857 A    
O20   H20   0.990104 S    
C41   O33   1.385394 S    
C13   C15   1.413453 A    
C56   H16   1.108759 S    
O3    C2    1.301429 A    
N1    C17   1.443044 S    
C66   H54   1.116295 S    
C56   H18   1.114289 S    
C60   H32   1.113389 S    
C47   O15   1.381148 S    
C54   H10   1.106426 S    
C5    N1    1.368445 A    
C35   O29   1.385173 S    
C10   O25   1.381893 S    
C19   C25   1.413240 A    
O1    C1    1.301429 A    
C38   O28   1.378408 S    
C2    C45   1.460374 S    
C65   H51   1.109106 S    
N1    C7    1.367673 A    
C10   C12   1.400824 A    
C63   H45   1.109221 S    
C62   H43   1.113468 S    
N2    C18   1.443055 S    
C7    O12   1.349150 S    
C40   O32   1.384991 S    
C60   H33   1.113540 S    
C42   C44   1.389258 A    
C57   H23   1.113463 S    
C44   C46   1.405934 A    
C64   H50   1.108664 S    
C14   C28   1.406742 A    
O7    Cu1   1.943635 S    
C59   H29   1.113397 S    
C48   O16   1.387601 S    
C4    C28   1.463418 S    
C11   O24   1.382508 S    
C55   H14   1.114267 S    
C31   C40   1.417248 A    
C35   C37   1.411729 A    
C32   C39   1.417242 A    
C36   C38   1.411737 A    
C64   H48   1.116264 S    
C51   H1    1.114024 S    
C8    O11   1.349150 S    
O31   C61   1.410133 S    
C13   O13   1.383302 S    
C6    N2    1.368456 A    
C50   O18   1.387598 S    
C58   H28   1.108885 S    
C42   C45   1.405930 A    
C54   H11   1.114217 S    
C25   C38   1.420547 A    
C47   C50   1.437628 A    
C14   O14   1.383331 S    
Cu1   Cu2   2.693261 S    
C64   H49   1.108978 S    
O2    C2    1.293397 A    
C61   H41   1.109230 S    
C5    C21   1.410583 A    
O24   C58   1.411206 S    
C66   H55   1.109002 S    
O33   C63   1.409758 S    
C9    O26   1.381899 S    
C63   H46   1.112123 S    
C31   C33   1.411728 A    
C32   C34   1.411716 A    
C43   C45   1.414924 A    
O14   C52   1.412407 S    
C15   O19   1.382569 S    
C48   N3    1.367932 A    
C41   C46   1.414928 A    
C50   N3    1.367915 A    
O32   C62   1.410137 S    
C61   H40   1.113463 S    
O8    Cu2   1.943635 S    
C62   H44   1.109234 S    
C11   C27   1.405760 A    
C23   O21   1.384725 S    
C43   O35   1.385393 S    
C53   H7    1.109180 S    
C60   H34   1.109159 S    
C59   H31   1.109157 S    
C9    C17   1.408965 A    
C49   O17   1.381160 S    
C52   H4    1.114203 S    
C10   C18   1.409026 A    
C63   H47   1.107463 S    
C13   C27   1.406833 A    
O5    C3    1.296790 A    
O19   H19   0.990082 S    
C7    C25   1.411527 A    
O5    Cu1   1.943654 S    
O6    C4    1.298697 A    
C49   N4    1.374736 A    
C8    C26   1.411511 A    
C51   H3    1.108476 S    
O18   C56   1.413913 S    
O16   C54   1.413911 S    
C52   H5    1.112910 S    
C42   O34   1.382126 S    
C53   H8    1.114253 S    
N2    C8    1.367665 A    
O30   H38   0.989494 S    
C20   C26   1.413244 A    
O1    Cu1   1.975383 S    
O23   C57   1.411197 S    
O29   H37   0.989491 S    
O21   H21   0.989738 S    
C66   H56   1.108698 S    
C30   C31   1.421883 A    
C12   C28   1.405709 A    
C55   H15   1.109633 S    
C53   H9    1.109593 S    
C58   H26   1.113479 S    
Cu1   N3    2.023966 S    
C54   H12   1.108698 S    
C30   C36   1.415167 A    
C5    O9    1.349373 S    
C47   N4    1.374747 A    
O6    Cu2   1.943654 S    
C21   C23   1.416664 A    
O7    C4    1.296776 A    
C65   H53   1.107335 S    
C29   C35   1.415158 A    
C44   O36   1.382122 S    
C61   H39   1.112916 S    
C36   O30   1.385175 S    
O3    Cu1   1.975384 S    
C12   O23   1.382510 S    
C56   H17   1.106443 S    
C26   C37   1.420538 A    
O22   H22   0.989745 S    
C57   H25   1.108878 S    
C37   O27   1.378404 S    
O36   C66   1.412800 S    
C24   O22   1.384724 S    
C65   H52   1.112056 S    
O28   H36   0.991548 S    
C15   C17   1.408898 A    
C62   H42   1.112918 S    
C48   C49   1.437622 A    
C22   C24   1.416669 A    
C16   C18   1.408916 A    
C55   H13   1.109207 S    
C39   O31   1.384991 S    
C16   O20   1.382544 S    
C14   C16   1.413479 A    
C19   C21   1.414242 A    
C57   H24   1.113304 S    
C1    C46   1.460394 S    
C3    C27   1.463463 S    
C20   C22   1.414232 A    
C9    C11   1.400825 A    
O4    Cu2   1.975384 S    
O13   C51   1.412398 S    
O2    Cu2   1.975383 S    
C52   H6    1.108689 S    
C59   H30   1.113537 S    
C41   C43   1.393603 A    
O8    C3    1.298709 A    
O15   C53   1.415674 S    
C23   C39   1.413656 A    
C30   C34   1.412152 A    
O4    C1    1.293404 A    
C24   C40   1.413667 A    
C6    O10   1.349363 S    
O35   C65   1.409770 S    
O26   C60   1.409525 S    
C19   C34   1.410073 A    
Cu2   N4    2.023967 S    
O34   C64   1.412793 S    
C51   H2    1.112342 S    
C20   C33   1.410071 A    
O17   C55   1.415677 S    
O25   C59   1.409518 S    
C29   C33   1.412142 A    
C6    C22   1.410600 A    
O27   H35   0.991546 S    
C58   H27   1.113321 S    
