data_mof_unit_37355.cif
_audit_creation_date              2012-12-11T20:23:58-0500
_audit_creation_method            fapswitch 2.2
_symmetry_space_group_name_H-M    P1
_symmetry_Int_Tables_number       1
_space_group_crystal_system       triclinic
_cell_length_a                    8.27824
_cell_length_b                    17.330108
_cell_length_c                    18.955153
_cell_angle_alpha                 102.408397
_cell_angle_beta                  91.980557
_cell_angle_gamma                 98.239802
_cell_volume                      2622.4051285

loop_
_atom_site_label
_atom_site_type_symbol
_atom_type_description
_atom_site_fract_x
_atom_site_fract_y
_atom_site_fract_z
_atom_type_partial_charge
Ba1   Ba    Ba6+2 0.854170 0.535040 0.467640 1.645450
Ba2   Ba    Ba6+2 0.335670 0.465030 0.532370 1.656886
C1    C     C_3   0.704317 0.814508 0.293123 -0.379484
C2    C     C_3   0.661438 0.734228 0.313682 0.367704
C3    C     C_3   0.481552 0.322388 0.302532 0.313771
C4    C     C_3   0.529823 0.296169 0.224963 -0.059122
C5    C     C_3   0.008883 0.269896 0.726110 0.387769
C6    C     C_3   0.902930 0.189595 0.729711 -0.071605
C7    C     C_3   0.532782 0.256869 0.663930 0.379907
C8    C     C_3   0.468365 0.171636 0.667319 -0.314428
C9    C     C_R   0.054997 0.551254 0.804279 -0.157571
C10   C     C_R   0.018481 0.532493 0.729100 0.072057
C11   C     C_R   0.835275 0.448079 0.816139 -0.110901
C12   C     C_3   0.114120 0.710441 0.282727 0.367063
C13   C     C_R   0.774701 0.446257 0.745880 -0.031938
C14   C     C_R   0.357265 0.561635 0.187804 -0.161482
C15   C     C_R   0.418141 0.549209 0.253325 0.023823
C16   C     C_R   0.101065 0.481849 0.200387 -0.143806
C17   C     C_R   0.161318 0.473920 0.269790 0.057206
C18   C     C_R   0.972590 0.504755 0.849476 0.020311
C19   C     C_R   0.874207 0.482021 0.700638 -0.240078
C20   C     C_R   0.194921 0.531330 0.158789 -0.013517
C21   C     C_R   0.319512 0.508580 0.294924 -0.224240
C22   C     C_R   0.738379 0.501122 0.966760 -0.051010
C23   C     C_3   0.085416 0.742174 0.215196 -0.389249
C24   C     C_R   0.627664 0.487271 0.017514 -0.070317
C25   C     C_R   0.681636 0.502803 0.089369 -0.063445
C26   C     C_R   0.845492 0.531220 0.109931 -0.066890
C27   C     C_R   0.963455 0.526701 0.059320 0.012084
C28   C     C_R   0.909368 0.513911 0.984240 0.052733
C29   C     C_R   0.131476 0.545032 0.083937 -0.012932
C30   C     C_R   0.235496 0.571936 0.032631 0.001582
C31   C     C_R   0.192427 0.543872 0.957060 0.017337
C32   C     C_R   0.025507 0.517583 0.930485 0.034928
C33   C     C_R   0.370444 0.633952 0.052492 -0.086403
C34   C     C_3   0.244984 0.710866 0.628510 0.296537
C35   C     C_R   0.485678 0.649602 0.002185 0.233338
C36   C     C_R   0.460969 0.603704 0.931581 -0.100687
C37   C     C_R   0.319100 0.548904 0.910284 -0.146472
C38   C     C_2   0.443845 0.716618 0.476502 -0.257243
C39   C     C_3   0.365430 0.765470 0.431813 -0.038442
C40   C     C_2   0.418721 0.854076 0.457903 -0.108911
C41   C     C_2   0.556728 0.881793 0.501444 -0.038674
C42   C     C_2   0.645260 0.823811 0.528594 -0.128589
C43   C     C_1   0.577762 0.748491 0.518967 0.049196
C44   C     C_R   0.815580 0.138788 0.534135 -0.161122
C45   C     C_3   0.280179 0.801764 0.647918 -0.348274
C46   C     C_R   0.867177 0.221117 0.548636 -0.005647
C47   C     C_R   0.621522 0.237844 0.482803 0.024233
C48   C     C_R   0.567231 0.155551 0.470978 -0.113526
C49   C     C_R   0.662148 0.105769 0.498080 0.008139
C50   C     C_2   0.618911 0.968429 0.525717 0.020107
C51   C     C_2   0.605982 0.018524 0.480516 -0.140395
C52   C     C_R   0.768836 0.270619 0.523691 -0.266535
C53   C     C_3   0.948804 0.286802 0.367764 0.305408
C54   C     C_3   0.910737 0.196119 0.344930 -0.393608
C55   C     C_3   0.724820 0.649999 0.691072 0.325042
C56   C     C_3   0.734696 0.674107 0.773304 -0.396568
H1    H     H_    0.717829 0.739652 0.368989 0.080753
H2    H     H_    0.377616 0.822356 0.692522 0.131172
H3    H     H_    0.321222 0.824754 0.600262 0.084158
H4    H     H_    0.167549 0.826345 0.665279 0.137874
H5    H     H_    0.836554 0.310718 0.385568 0.012156
H6    H     H_    0.043383 0.303046 0.413523 0.077130
H7    H     H_    0.809796 0.178205 0.301754 0.127405
H8    H     H_    0.873501 0.170548 0.391670 0.073060
H9    H     H_    0.021043 0.171522 0.324242 0.124276
H10   H     H_    0.843472 0.633725 0.673254 -0.002722
H11   H     H_    0.627095 0.597508 0.673638 0.066689
H12   H     H_    0.837762 0.829255 0.288935 0.154433
H13   H     H_    0.837344 0.723830 0.792892 0.125798
H14   H     H_    0.755217 0.622520 0.796543 0.050858
H15   H     H_    0.618369 0.693670 0.792046 0.125150
H16   H     H_    0.526274 0.722281 0.314043 -0.074559
H17   H     H_    0.665747 0.862114 0.335382 0.075738
H18   H     H_    0.349013 0.326701 0.302719 0.007280
H19   H     H_    0.554112 0.382003 0.326305 0.062566
H20   H     H_    0.469243 0.233975 0.200779 0.094900
H21   H     H_    0.664183 0.295460 0.226938 0.095940
H22   H     H_    0.638540 0.813799 0.241093 0.090005
H23   H     H_    0.141591 0.707291 0.169077 0.071497
H24   H     H_    0.928850 0.309718 0.709022 -0.169912
H25   H     H_    0.783471 0.202687 0.749907 0.083511
H26   H     H_    0.877005 0.150889 0.674988 0.098547
H27   H     H_    0.667399 0.263720 0.662558 -0.113707
H28   H     H_    0.478680 0.266535 0.612872 0.081406
H29   H     H_    0.523055 0.130891 0.625280 0.100227
H30   H     H_    0.334780 0.159192 0.654714 0.138213
H31   H     H_    0.048941 0.648143 0.274060 0.065551
H32   H     H_    0.498690 0.160332 0.721305 0.134944
H33   H     H_    0.149400 0.601389 0.826178 0.067713
H34   H     H_    0.769210 0.407516 0.844967 0.113005
H35   H     H_    0.445957 0.592160 0.160235 0.068276
H36   H     H_    0.983172 0.447941 0.179562 0.091331
H37   H     H_    0.834197 0.474679 0.644321 0.061472
H38   H     H_    0.369023 0.501231 0.346267 0.053998
H39   H     H_    0.685143 0.504195 0.915381 0.057417
H40   H     H_    0.498306 0.470488 0.001958 0.076617
H41   H     H_    0.595006 0.495729 0.128891 0.093632
H42   H     H_    0.247771 0.710132 0.289625 -0.071613
H43   H     H_    0.882849 0.559907 0.165060 0.124609
H44   H     H_    0.378773 0.673677 0.105207 0.057866
H45   H     H_    0.551293 0.610971 0.892643 0.074284
H46   H     H_    0.304936 0.513753 0.855956 0.154043
H47   H     H_    0.546999 0.994327 0.426655 0.075070
H48   H     H_    0.766235 0.843803 0.555882 0.132724
H49   H     H_    0.898514 0.100796 0.547941 0.117533
H50   H     H_    0.348050 0.894456 0.438620 0.077474
H51   H     H_    0.952982 0.736420 0.200527 0.144966
H52   H     H_    0.454058 0.129967 0.438674 0.078654
H53   H     H_    0.404994 0.652399 0.463313 0.077896
H54   H     H_    0.811755 0.334045 0.531802 0.065881
H55   H     H_    0.141695 0.805952 0.224406 0.110825
H56   H     H_    0.359437 0.687328 0.614110 0.006071
H57   H     H_    0.154102 0.692060 0.581316 0.086736
O1    O     O_2   0.873520 0.443690 0.322540 -0.453015
O2    O     O_3   0.690609 0.714726 0.662911 -0.627304
O3    O     O_3   0.055598 0.758999 0.342933 -0.590295
O4    O     O_2   0.316180 0.556340 0.677510 -0.468674
O5    O     O_3   0.067690 0.549150 0.588340 -0.496192
O6    O     O_3   0.526120 0.408390 0.624220 -0.484288
O7    O     O_3   0.184622 0.683797 0.688418 -0.634366
O8    O     O_3   0.608980 0.401570 0.457310 -0.486116
O9    O     O_3   0.103650 0.364840 0.585560 -0.460164
O10   O     O_2   0.200583 0.226444 0.540886 -0.495106
O11   O     O_3   0.133794 0.256541 0.677784 -0.587922
O12   O     O_3   0.122020 0.450920 0.411670 -0.491415
O13   O     O_3   0.580730 0.598500 0.542710 -0.499602
O14   O     O_2   0.336360 0.303040 0.452600 -0.460567
O15   O     O_3   0.514604 0.263923 0.339697 -0.666706
O16   O     O_2   0.443101 0.460838 0.754539 -0.467747
O17   O     O_3   0.488524 0.310252 0.724233 -0.528683
O18   O     O_3   0.663590 0.591680 0.375790 -0.474497
O19   O     O_2   0.735260 0.518273 0.250447 -0.495712
O20   O     O_3   0.004627 0.316439 0.308419 -0.643913
O21   O     O_3   0.719300 0.672896 0.264170 -0.616595
O22   O     O_2   0.853350 0.696990 0.547450 -0.463130
O23   O     O_3   0.086060 0.635230 0.414460 -0.486418
O24   O     O_2   0.052592 0.782088 0.484957 -0.474994
P1    P     P_3+3 0.040700 0.421000 0.332140 0.970225
P2    P     P_3+3 0.677490 0.686860 0.568200 0.976415
P3    P     P_3+3 0.139062 0.737325 0.421101 0.954299
P4    P     P_3+3 0.149010 0.579070 0.667870 0.982858
P5    P     P_3+3 0.073779 0.264563 0.589506 0.968237
P6    P     P_3+3 0.633262 0.582363 0.284056 0.929880
P7    P     P_3+3 0.519657 0.300389 0.433426 0.939830
P8    P     P_3+3 0.559795 0.407063 0.714500 0.996456
N1    N     N_2   0.490662 0.350714 0.180998 -0.445636
H58   H     H_    0.581724 0.362980 0.147464 0.212620
C57   C     C_3   0.330479 0.330549 0.142983 -0.266484
H59   H     H_    0.309714 0.378310 0.114551 0.123351
H60   H     H_    0.233788 0.324817 0.181489 0.115077
H61   H     H_    0.322306 0.273414 0.102022 0.117093
C58   C     C_2   0.083155 0.312711 0.800833 0.856459
O25   O     O_2   0.996160 0.322127 0.851860 -0.673214
O26   O     O_R   0.250848 0.339600 0.812550 -0.688177
H62   H     H_    0.285120 0.365639 0.865134 0.295630
N2    N     N_2   0.973177 0.145836 0.777511 -0.426235
H63   H     H_    0.963284 0.167204 0.832063 0.230226
C59   C     C_3   0.126210 0.118005 0.759888 -0.206259
H64   H     H_    0.145026 0.071487 0.790148 0.111086
H65   H     H_    0.228880 0.168263 0.776031 0.146512
H66   H     H_    0.124647 0.091135 0.701219 0.140525
N3    N     N_2   0.631576 0.706662 0.021230 -0.429717
H67   H     H_    0.676749 0.733286 0.980735 0.193594
C60   C     C_3   0.663972 0.754217 0.094182 -0.254084
H68   H     H_    0.786610 0.791346 0.099434 0.110413
H69   H     H_    0.664465 0.714463 0.132930 0.142655
H70   H     H_    0.570726 0.794385 0.106976 0.104436
C61   C     C_2   0.690980 0.994901 0.601011 0.824122
O27   O     O_2   0.601743 0.008356 0.650755 -0.624704
O28   O     O_R   0.856526 0.992662 0.615471 -0.781398
H71   H     H_    0.885328 0.999741 0.669053 0.321014

loop_
_geom_bond_atom_site_label_1
_geom_bond_atom_site_label_2
_ccdc_geom_bond_type
C60   H69   S    
C53   C54   S    
O15   P7    S    
C6    H25   S    
O4    P4    D    
C39   C40   S    
O2    P2    S    
Ba1   O13   S    
C33   H44   S    
C6    N2    S    
C45   H4    S    
Ba1   O8    S    
C55   C56   S    
C37   H46   S    
Ba2   O8    S    
O28   H71   S    
C46   C52   A    
C25   H41   S    
C24   C25   A    
C31   C37   A    
O26   H62   S    
C33   C35   A    
C35   C36   A    
N1    C57   S    
C16   C17   A    
C3    C4    S    
O24   P3    D    
C54   H8    S    
C41   C50   S    
C4    H20   S    
C61   O27   D    
O10   P5    D    
C47   C52   A    
C51   H47   S    
C48   H52   S    
Ba2   O14   S    
C21   H38   S    
C46   P5    S    
C34   C45   S    
Ba1   Ba2   S    
C7    H27   S    
C45   H2    S    
C26   H43   S    
N2    C59   S    
C17   P1    S    
C12   O3    S    
C57   H61   S    
C53   H5    S    
O6    P8    S    
O16   P8    D    
Ba1   O1    S    
C7    O17   S    
C1    H17   S    
C7    C8    S    
C2    H16   S    
O21   P6    S    
C23   H51   S    
C2    O21   S    
C18   C32   S    
Ba2   O12   S    
C34   H56   S    
C12   C23   S    
C16   C20   A    
C53   H6    S    
C23   H23   S    
Ba2   P4    S    
N3    H67   S    
C60   H68   S    
O20   P1    S    
O5    P4    S    
O7    P4    S    
Ba1   O18   S    
C1    H22   S    
C48   C49   A    
C38   H53   S    
C38   C43   D    
C9    C18   A    
C44   C46   A    
C8    H29   S    
C20   C29   S    
C28   C32   A    
C22   H39   S    
C59   H66   S    
C5    C6    S    
C1    H12   S    
N1    H58   S    
O23   P3    S    
C50   C61   S    
Ba2   O5    S    
C17   C21   A    
C14   C15   A    
C19   H37   S    
C36   H45   S    
C44   C49   A    
C49   C51   S    
Ba1   O5    S    
C59   H65   S    
N2    H63   S    
C34   O7    S    
C41   C42   S    
C30   C33   A    
C12   H31   S    
C27   C28   A    
C23   H55   S    
C7    H28   S    
C4    N1    S    
C29   C30   A    
O8    P7    S    
Ba2   O4    S    
C8    H30   S    
C44   H49   S    
C31   C32   A    
C58   O25   D    
C52   H54   S    
C15   C21   A    
O14   P7    D    
Ba1   P1    S    
C43   P2    S    
C35   N3    S    
C38   C39   S    
C24   H40   S    
Ba2   O9    S    
C11   C13   A    
C11   H34   S    
C15   P6    S    
C16   H36   S    
C57   H60   S    
O18   P6    S    
O12   P1    S    
C55   H10   S    
C3    H19   S    
C1    C2    S    
Ba1   O22   S    
C50   C51   D    
C55   O2    S    
O13   P2    S    
Ba2   O6    S    
O19   P6    D    
O22   P2    D    
C26   C27   A    
C3    O15   S    
C14   C20   A    
C11   C18   A    
C6    H26   S    
O17   P8    S    
C58   O26   S    
C42   C43   D    
Ba1   O12   S    
C22   C24   A    
O3    P3    S    
C45   H3    S    
C9    C10   A    
C12   H42   S    
C42   H48   S    
C54   H9    S    
C10   P4    S    
C14   H35   S    
C30   C31   A    
C3    H18   S    
N3    C60   S    
C39   P3    S    
C27   C29   A    
C59   H64   S    
C13   P8    S    
C56   H14   S    
C4    H21   S    
C36   C37   A    
C5    C58   S    
C61   O28   S    
C53   O20   S    
C10   C19   A    
C2    H1    S    
O11   P5    S    
C47   P7    S    
C5    O11   S    
C56   H13   S    
C22   C28   A    
Ba1   P2    S    
C9    H33   S    
C13   C19   A    
C5    H24   S    
C8    H32   S    
C60   H70   S    
C47   C48   A    
C40   C41   D    
C25   C26   A    
C57   H59   S    
O9    P5    S    
C55   H11   S    
C34   H57   S    
C40   H50   S    
Ba1   O23   S    
C54   H7    S    
C56   H15   S    
O1    P1    D    
Ba2   O13   S    
