data_mof_unit_25525.cif
_audit_creation_date              2012-12-11T14:15:34-0500
_audit_creation_method            fapswitch 2.2
_symmetry_space_group_name_H-M    P1
_symmetry_Int_Tables_number       1
_space_group_crystal_system       triclinic
_cell_length_a                    11.162175
_cell_length_b                    12.644309
_cell_length_c                    23.722784
_cell_angle_alpha                 90.204264
_cell_angle_beta                  96.645712
_cell_angle_gamma                 68.837246
_cell_volume                      3098.75936896

loop_
_atom_site_label
_atom_site_type_symbol
_atom_type_description
_atom_site_fract_x
_atom_site_fract_y
_atom_site_fract_z
_atom_type_partial_charge
C1    C     C_R   0.148484 0.616449 0.428820 0.543639
C2    C     C_R   0.590021 0.591279 0.328229 -0.145875
C3    C     C_R   0.654128 0.754592 0.324427 -0.029336
C4    C     C_R   0.603640 0.773708 0.266400 0.012007
C5    C     C_R   0.556722 0.693804 0.238110 0.010889
C6    C     C_R   0.530951 0.702794 0.178060 -0.037268
C7    C     C_R   0.578579 0.876704 0.176926 -0.150753
C8    C     C_R   0.606685 0.867375 0.235440 -0.134492
C9    C     C_1   0.242284 0.156072 0.123944 0.013221
C10   C     C_2   0.219852 0.207080 0.231631 -0.018399
C11   C     C_2   0.117607 0.205842 0.256986 -0.033659
C12   C     C_R   0.743949 0.607387 0.405863 0.546315
C13   C     C_1   0.113443 0.222468 0.317213 -0.035339
C14   C     C_1   0.229025 0.183516 0.172235 -0.028766
C15   C     C_1   0.109249 0.243331 0.366733 0.018514
C16   C     C_1   0.177539 0.760391 0.126123 0.002618
C17   C     C_2   0.192070 0.733568 0.237529 0.137711
C18   C     C_2   0.177379 0.643600 0.262041 0.013456
C19   C     C_1   0.183499 0.633035 0.322684 -0.036116
C20   C     C_1   0.179554 0.745607 0.176236 -0.011151
C21   C     C_1   0.177445 0.625957 0.372626 0.009815
C22   C     C_1   0.613050 0.766559 0.862604 -0.012105
C23   C     C_R   0.100448 0.283339 0.423270 0.550595
C24   C     C_2   0.640381 0.757128 0.753484 -0.004504
C25   C     C_2   0.687791 0.655697 0.730558 -0.135656
C26   C     C_1   0.695294 0.642746 0.670514 -0.042944
C27   C     C_1   0.630677 0.761967 0.813424 -0.065700
C28   C     C_1   0.711350 0.627469 0.621435 0.011299
C29   C     C_R   0.210459 0.169778 0.849358 -0.020601
C30   C     C_R   0.111173 0.212564 0.636956 0.005578
C31   C     C_R   0.002393 0.177151 0.713038 -0.119919
C32   C     C_R   0.002329 0.200120 0.655719 -0.122766
C33   C     C_R   0.224026 0.188413 0.674173 -0.103310
C34   C     C_R   0.149564 0.617003 0.590658 0.542165
C35   C     C_R   0.221082 0.178960 0.732400 -0.008308
C36   C     C_R   0.108636 0.173192 0.752643 0.007814
C37   C     C_R   0.105549 0.164055 0.811578 -0.052816
C38   C     C_R   0.309332 0.198271 0.827910 0.120555
C39   C     C_R   0.322767 0.188192 0.770285 0.015699
C40   C     C_R   0.133259 0.750650 0.849974 -0.030637
C41   C     C_R   0.192064 0.640912 0.648122 -0.023194
C42   C     C_R   0.326194 0.579329 0.738662 0.146765
C43   C     C_R   0.303432 0.566986 0.679805 -0.099963
C44   C     C_R   0.107142 0.732387 0.673754 -0.123587
C45   C     C_R   0.750979 0.601454 0.566285 0.543037
C46   C     C_R   0.116534 0.738330 0.732266 -0.008146
C47   C     C_R   0.224004 0.657494 0.766039 0.025409
C48   C     C_R   0.224724 0.658678 0.825662 -0.029446
C49   C     C_R   0.026559 0.826251 0.815793 -0.135647
C50   C     C_R   0.017007 0.820878 0.757457 -0.021850
C51   C     C_R   0.266313 0.109755 0.069309 0.537168
C52   C     C_R   0.531344 0.798590 0.084733 0.557532
C53   C     C_R   0.189284 0.787544 0.069300 0.537312
C54   C     C_R   0.242387 0.114255 0.906641 0.544723
C55   C     C_R   0.573443 0.777267 0.918189 0.558562
C56   C     C_R   0.100294 0.275954 0.584135 0.543532
C57   C     C_R   0.164909 0.786637 0.906756 0.542231
C58   C     C_R   0.547937 0.792485 0.147437 -0.020809
C59   C     C_R   0.658486 0.655621 0.353159 -0.020221
C60   C     C_R   0.542420 0.606270 0.271493 -0.029574
Cr1   Cr    Cr6+3 0.189770 0.415650 0.511620 1.046852
Cr2   Cr    Cr6+3 0.930400 0.667320 0.496770 1.070465
Cr3   Cr    Cr6+3 0.879870 0.417010 0.491650 1.042315
Cr4   Cr    Cr6+3 0.149500 0.973980 0.985330 1.056656
Cr5   Cr    Cr6+3 0.457000 0.976510 0.994660 1.024829
Cr6   Cr    Cr6+3 0.411170 0.724270 0.995270 1.075999
H1    H     H_    0.725379 0.579057 0.757798 0.122205
H2    H     H_    0.915423 0.171168 0.726329 0.147615
H3    H     H_    0.914481 0.215549 0.626953 0.143590
H4    H     H_    0.308798 0.193811 0.658287 0.160166
H5    H     H_    0.586100 0.948130 0.154532 0.160340
H6    H     H_    0.953745 0.894702 0.834414 0.164936
H7    H     H_    0.371325 0.501216 0.657941 0.126752
H8    H     H_    0.024990 0.793579 0.648160 0.163990
H9    H     H_    0.635995 0.932314 0.255906 0.151117
H10   H     H_    0.582781 0.521207 0.352175 0.157613
O1    O     O_R   0.196340 0.303200 0.448500 -0.497986
O2    O     O_R   0.811960 0.658090 0.547150 -0.489162
O3    O     O_R   0.757930 0.506140 0.547110 -0.515634
O4    O     O_R   0.988670 0.321620 0.556040 -0.503072
O5    O     O_3   0.000020 0.499990 0.500010 -0.258642
O6    O     O_R   0.113660 0.883270 0.047820 -0.502056
O7    O     O_R   0.186930 0.068530 0.043990 -0.493628
O8    O     O_R   0.377770 0.089040 0.054220 -0.516178
O9    O     O_R   0.562800 0.872960 0.056970 -0.494723
O10   O     O_R   0.555390 0.700940 0.062700 -0.486578
O11   O     O_R   0.295020 0.731920 0.049950 -0.504122
O12   O     O_R   0.199310 0.519670 0.454880 -0.495921
O13   O     O_R   0.094290 0.884230 0.921550 -0.503800
O14   O     O_R   0.168980 0.069410 0.926940 -0.478355
O15   O     O_R   0.358400 0.089990 0.927950 -0.513596
O16   O     O_R   0.544850 0.873850 0.939920 -0.496056
O17   O     O_R   0.536020 0.701900 0.936430 -0.492424
O18   O     O_R   0.277070 0.732810 0.932890 -0.489611
O19   O     O_3   0.339220 0.891590 0.991750 -0.289712
O20   O     O_R   0.045660 0.691380 0.441680 -0.488432
O21   O     O_R   0.811930 0.659460 0.430950 -0.485129
O22   O     O_R   0.757900 0.507620 0.421760 -0.516144
O23   O     O_R   0.988630 0.322990 0.439840 -0.490578
O24   O     O_R   0.196380 0.301720 0.573850 -0.515121
O25   O     O_R   0.199350 0.518300 0.571080 -0.500642
O26   O     O_R   0.045700 0.689900 0.567030 -0.516957
C61   C     C_1   0.495941 0.616191 0.147580 0.251176
N1    N     N_1   0.469465 0.546772 0.122963 -0.227774
N2    N     N_2   0.223729 0.815634 0.272018 -0.506858
H11   H     H_    0.288586 0.783355 0.307968 0.255998
C62   C     C_3   0.238154 0.911261 0.244226 -0.283552
H12   H     H_    0.258156 0.967961 0.276753 0.148670
H13   H     H_    0.147822 0.959840 0.216431 0.178226
H14   H     H_    0.319777 0.882043 0.218385 0.143013
C63   C     C_1   0.585264 0.861106 0.718864 0.243792
N3    N     N_1   0.540694 0.943827 0.690769 -0.266495
C64   C     C_1   0.994739 0.151112 0.832977 0.213082
N4    N     N_1   0.906091 0.140991 0.849884 -0.304013
N5    N     N_2   0.391433 0.241584 0.864143 -0.485270
H15   H     H_    0.351459 0.284277 0.898558 0.276867
C65   C     C_3   0.528230 0.172516 0.875671 -0.210194
H16   H     H_    0.557709 0.159018 0.922240 0.150370
H17   H     H_    0.585712 0.217374 0.858179 0.180883
H18   H     H_    0.551099 0.087802 0.856859 0.160390
C66   C     C_1   0.442258 0.185219 0.750704 0.217776
N6    N     N_1   0.538693 0.179740 0.735123 -0.294127
C67   C     C_1   0.311256 0.563231 0.862000 0.253793
N7    N     N_1   0.380468 0.487677 0.891261 -0.275662
N8    N     N_2   0.451054 0.520406 0.769831 -0.500128
H19   H     H_    0.482354 0.570553 0.797695 0.260698
C68   C     C_3   0.554294 0.444288 0.741104 -0.293848
H20   H     H_    0.641432 0.403249 0.772259 0.159577
H21   H     H_    0.579086 0.491470 0.707850 0.136110
H22   H     H_    0.524603 0.377235 0.721164 0.189975
C69   C     C_1   0.906846 0.905686 0.724723 0.183786
N9    N     N_1   0.819070 0.973723 0.698587 -0.262690
C70   C     C_1   0.489190 0.522722 0.250717 0.202574
N10   N     N_1   0.448110 0.454411 0.234980 -0.237260
C71   C     C_1   0.706822 0.832723 0.353143 0.218072
N11   N     N_1   0.748690 0.895211 0.375929 -0.261753
C72   C     C_1   0.006251 0.192178 0.224784 0.216910
N12   N     N_1   0.917139 0.181275 0.199026 -0.260524
C73   C     C_1   0.330307 0.222110 0.263985 0.233666
N13   N     N_1   0.418708 0.233840 0.289951 -0.251914
C74   C     C_1   0.143011 0.560076 0.228892 0.227706
N14   N     N_1   0.115407 0.493449 0.202374 -0.267530

loop_
_geom_bond_atom_site_label_1
_geom_bond_atom_site_label_2
_ccdc_geom_bond_type
C43   H7    S    
Cr5   O16   S    
C23   O23   A    
C1    C21   S    
Cr2   O20   S    
C62   H13   S    
C6    C58   A    
C35   C39   A    
C63   N3    T    
C9    C51   S    
C24   C27   S    
Cr4   O14   S    
C4    C8    A    
C48   C67   S    
C67   N7    T    
Cr3   O3    S    
N2    C62   S    
C34   O26   A    
C57   O13   A    
Cr3   O5    S    
C36   C37   A    
C19   C21   T    
C54   O14   A    
Cr3   O22   S    
C65   H17   S    
C7    H5    S    
C5    C6    A    
C2    C60   A    
C37   C64   S    
C29   C54   S    
N5    H15   S    
C17   C20   S    
Cr5   O15   S    
C18   C19   S    
C16   C53   S    
Cr3   O23   S    
C42   N8    S    
C12   C59   S    
C35   C36   A    
Cr1   O1    S    
N5    C65   S    
C49   H6    S    
C25   H1    S    
C29   C38   A    
C62   H14   S    
C62   H12   S    
C45   O2    A    
C7    C58   A    
C12   O22   A    
C30   C33   A    
C55   O17   A    
Cr6   O18   S    
C1    O12   A    
C15   C23   S    
C41   C43   A    
C24   C63   S    
Cr4   O13   S    
C44   C46   A    
Cr3   O4    S    
C18   C74   S    
C31   H2    S    
C28   C45   S    
C34   O25   A    
C71   N11   T    
C38   C39   A    
C24   C25   D    
C53   O11   A    
C10   C14   S    
C65   H18   S    
Cr6   O11   S    
C2    C59   A    
Cr5   O8    S    
C25   C26   S    
C30   C56   S    
C8    H9    S    
C53   O6    A    
Cr1   O25   S    
C9    C14   T    
C68   H21   S    
Cr4   O7    S    
C34   C41   S    
C55   O16   A    
Cr1   O12   S    
C17   N2    S    
Cr2   O21   S    
C47   C48   A    
C16   C20   T    
C17   C18   D    
C12   O21   A    
C45   O3    A    
C6    C61   S    
C23   O1    A    
C44   H8    S    
Cr4   O6    S    
C66   N6    T    
C22   C55   S    
C52   C58   S    
C33   H4    S    
Cr6   O17   S    
Cr2   O5    S    
C57   O18   A    
C13   C15   T    
C70   N10   T    
C41   C44   A    
Cr1   O24   S    
C42   C43   A    
C56   O24   A    
C3    C4    A    
C51   O7    A    
C2    H10   S    
C64   N4    T    
C72   N12   T    
C40   C48   A    
C46   C47   A    
C52   O9    A    
C40   C57   S    
C5    C60   A    
Cr2   O2    S    
C31   C32   A    
Cr4   O19   S    
C4    C5    A    
C39   C66   S    
Cr6   O10   S    
C73   N13   T    
Cr5   O9    S    
C32   H3    S    
N2    H11   S    
C46   C50   A    
C26   C28   T    
C56   O4    A    
C22   C27   T    
C10   C11   D    
C52   O10   A    
C11   C72   S    
C68   H22   S    
C54   O15   A    
Cr1   O5    S    
C74   N14   T    
C30   C32   A    
C38   N5    S    
C11   C13   S    
C40   C49   A    
N8    H19   S    
C1    O20   A    
C60   C70   S    
C33   C35   A    
C3    C71   S    
C42   C47   A    
C69   N9    T    
C7    C8    A    
C50   C69   S    
Cr5   O19   S    
C49   C50   A    
C10   C73   S    
C29   C37   A    
C61   N1    T    
N8    C68   S    
C31   C36   A    
C65   H16   S    
C51   O8    A    
C68   H20   S    
Cr6   O19   S    
Cr2   O26   S    
C3    C59   A    
