data_mof_unit_17573.cif
_audit_creation_date              2012-12-11T17:01:13-0500
_audit_creation_method            fapswitch 2.2
_symmetry_space_group_name_H-M    P1
_symmetry_Int_Tables_number       1
_space_group_crystal_system       triclinic
_cell_length_a                    19.356269
_cell_length_b                    7.112167
_cell_length_c                    17.698715
_cell_angle_alpha                 90.000191
_cell_angle_beta                  108.61056
_cell_angle_gamma                 90.000295
_cell_volume                      2309.08868948

loop_
_atom_site_label
_atom_site_type_symbol
_atom_type_description
_atom_site_fract_x
_atom_site_fract_y
_atom_site_fract_z
_atom_type_partial_charge
O1    O     O_R   0.413720 0.494330 0.415730 -0.530744
O2    O     O_R   0.586280 0.994330 0.584270 -0.530744
O3    O     O_R   0.560210 0.819300 0.430070 -0.539675
O4    O     O_R   0.439790 0.319300 0.569930 -0.539678
C1    C     C_R   0.583831 0.654598 0.416960 0.763442
C2    C     C_R   0.416169 0.154598 0.583039 0.763438
O5    O     O_R   0.412670 0.823730 0.406310 -0.532153
O6    O     O_R   0.587330 0.323730 0.593690 -0.532156
O7    O     O_R   0.437690 0.998790 0.560340 -0.510877
O8    O     O_R   0.562310 0.498790 0.439660 -0.510877
C3    C     C_R   0.384531 0.654945 0.384714 0.763397
C4    C     C_R   0.615469 0.154946 0.615286 0.763398
O9    O     O_3   0.508380 0.662350 0.550560 -0.364096
O10   O     O_3   0.491620 0.162350 0.449440 -0.364091
V1    V     V_3+5 0.498450 0.935370 0.490620 1.619101
V2    V     V_3+5 0.501550 0.435370 0.509380 1.619096
C5    C     C_R   0.689661 0.036241 0.750473 -0.044622
C6    C     C_R   0.310341 0.536260 0.249523 -0.044629
C7    C     C_R   0.684607 0.143955 0.682927 -0.117627
C8    C     C_R   0.315393 0.643955 0.317073 -0.117612
C9    C     C_R   0.748212 0.237063 0.681217 -0.093876
C10   C     C_R   0.251788 0.737058 0.318785 -0.093876
H1    H     H_    0.747916 0.312350 0.627955 0.200743
H2    H     H_    0.252084 0.812344 0.372047 0.200740
C11   C     C_R   0.813574 0.227371 0.746324 0.439053
C12   C     C_R   0.186426 0.727367 0.253677 0.439032
C13   C     C_R   0.817269 0.119163 0.814887 -0.120587
C14   C     C_R   0.182731 0.619167 0.185111 -0.120577
C15   C     C_R   0.752792 0.029619 0.816395 -0.031829
C16   C     C_R   0.247210 0.529642 0.183600 -0.031826
C17   C     C_3   0.736488 0.830950 0.834655 0.417462
C18   C     C_3   0.263520 0.330987 0.165328 0.417469
C19   C     C_3   0.672587 0.833482 0.756836 -0.020094
C20   C     C_3   0.327422 0.333513 0.243147 -0.020092
H3    H     H_    0.618257 0.812895 0.764324 0.134445
H4    H     H_    0.381752 0.312953 0.235658 0.134450
C21   C     C_R   0.313267 0.990082 0.620335 0.437872
C22   C     C_R   0.686731 0.490082 0.379663 0.437872
C23   C     C_R   0.361713 0.144681 0.627135 -0.182116
C24   C     C_R   0.638286 0.644680 0.372864 -0.182115
C25   C     C_R   0.357467 0.297091 0.675484 -0.106720
C26   C     C_R   0.642532 0.797088 0.324514 -0.106720
C27   C     C_R   0.309394 0.297634 0.720415 -0.001616
C28   C     C_R   0.690603 0.797630 0.279581 -0.001616
C29   C     C_R   0.260272 0.145742 0.712730 -0.068685
C30   C     C_R   0.739725 0.645739 0.287266 -0.068685
C31   C     C_R   0.258232 0.997092 0.658265 -0.017695
C32   C     C_R   0.741765 0.497091 0.341732 -0.017699
C33   C     C_R   0.309666 0.447759 0.772948 0.366613
C34   C     C_R   0.690330 0.947752 0.227047 0.366609
C35   C     C_R   0.262553 0.445112 0.819039 0.334098
C36   C     C_R   0.737442 0.945102 0.180955 0.334095
C37   C     C_R   0.215195 0.291295 0.813984 -0.007162
C38   C     C_R   0.784801 0.791289 0.186011 -0.007161
C39   C     C_R   0.213359 0.142507 0.759977 0.021208
C40   C     C_R   0.786638 0.642504 0.240018 0.021209
C41   C     C_R   0.164922 0.989787 0.753934 0.059912
C42   C     C_R   0.835074 0.489784 0.246061 0.059908
C43   C     C_R   0.157706 0.851939 0.694647 0.108213
C44   C     C_R   0.842290 0.351936 0.305348 0.108208
C45   C     C_R   0.201241 0.861244 0.644374 0.400700
C46   C     C_R   0.798756 0.361244 0.355622 0.400702
C47   C     C_R   0.169644 0.282638 0.862085 -0.073011
C48   C     C_R   0.830353 0.782633 0.137911 -0.073014
C49   C     C_R   0.125424 0.125854 0.860336 -0.092741
C50   C     C_R   0.874574 0.625852 0.139661 -0.092737
C51   C     C_R   0.123122 0.981309 0.806025 -0.067357
C52   C     C_R   0.876875 0.481307 0.193971 -0.067361
H5    H     H_    0.394555 0.413335 0.680060 0.210415
H6    H     H_    0.605444 0.913333 0.319939 0.210415
H7    H     H_    0.169534 0.395326 0.903026 0.178339
H8    H     H_    0.830463 0.895319 0.096969 0.178338
H9    H     H_    0.087396 0.863892 0.804436 0.155739
H10   H     H_    0.912601 0.363892 0.195561 0.155738
O11   O     O_R   0.937800 0.775460 0.060470 -0.539069
O12   O     O_R   0.062200 0.275460 0.939530 -0.539068
O13   O     O_R   0.087350 0.441340 0.093710 -0.517254
O14   O     O_R   0.912650 0.941340 0.906290 -0.517256
C53   C     C_R   0.114846 0.609596 0.116016 0.763601
C54   C     C_R   0.885155 0.109595 0.883983 0.763597
O15   O     O_R   0.939820 0.446010 0.069950 -0.545994
O16   O     O_R   0.060180 0.946010 0.930050 -0.545991
O17   O     O_R   0.913690 0.271230 0.915700 -0.510242
O18   O     O_R   0.086310 0.771230 0.084300 -0.510242
C55   C     C_R   0.919871 0.614951 0.086125 0.736867
C56   C     C_R   0.080128 0.114952 0.913874 0.736879
O19   O     O_3   0.991670 0.603050 0.949510 -0.356969
O20   O     O_3   0.008330 0.103050 0.050490 -0.356973
V3    V     V_3+5 0.001550 0.329940 0.009370 1.661937
V4    V     V_3+5 0.998450 0.829940 0.990630 1.661941
Cl1   Cl    Cl    0.264322 0.636912 0.883612 -0.557187
Cl2   Cl    Cl    0.735669 0.136894 0.116375 -0.557177
I1    I     I_    0.078065 0.630577 0.676592 -0.141832
I2    I     I_    0.921930 0.130573 0.323402 -0.141842
Cl3   Cl    Cl    0.172980 0.722602 0.556566 -0.452916
Cl4   Cl    Cl    0.827018 0.222604 0.443430 -0.452912
Cl5   Cl    Cl    0.891347 0.340759 0.736915 -0.518694
Cl6   Cl    Cl    0.108651 0.840744 0.263088 -0.518713
I3    I     I_    0.700178 0.817871 0.936606 -0.204226
I4    I     I_    0.299833 0.317961 0.063379 -0.204196
Cl7   Cl    Cl    0.805748 0.658930 0.841392 -0.564979
Cl8   Cl    Cl    0.194265 0.158944 0.158580 -0.564992
I5    I     I_    0.690372 0.679060 0.659756 -0.236653
I6    I     I_    0.309641 0.179044 0.340216 -0.236668
Cl9   Cl    Cl    0.328622 0.779243 0.574244 -0.573081
Cl10  Cl    Cl    0.671376 0.279244 0.425754 -0.573076
Cl11  Cl    Cl    0.370211 0.640384 0.783676 -0.530767
Cl12  Cl    Cl    0.629784 0.140374 0.216317 -0.530767

loop_
_geom_bond_atom_site_label_1
_geom_bond_atom_site_label_2
_ccdc_geom_bond_type
C50   C52   A    
C47   C49   A    
O4    V2    S    
C46   Cl4   S    
C13   C15   A    
C5    C15   A    
O1    C3    A    
O2    C4    A    
C50   C55   S    
C49   C56   S    
C23   C25   A    
O14   V4    S    
O5    C3    A    
O13   V3    S    
O18   V4    S    
C17   Cl7   S    
C10   H2    S    
C7    C9    A    
C53   O18   A    
C19   H3    S    
O14   C54   A    
C41   C43   A    
C52   H10   S    
C26   H6    S    
C2    O7    A    
C44   C46   A    
C29   C31   A    
C14   C53   S    
C28   C34   A    
O11   V4    S    
C35   Cl1   S    
O11   C55   A    
C36   C38   A    
C49   C51   A    
C34   C36   A    
C17   C19   S    
C6    C16   A    
C17   I3    S    
C21   C31   A    
C22   C32   A    
O12   V3    S    
O15   V3    S    
C24   C26   A    
O6    V2    S    
C22   C24   A    
C34   Cl12  S    
C25   C27   A    
C26   C28   A    
C41   C51   A    
C54   O17   A    
C28   C30   A    
C30   C32   A    
C37   C39   A    
C9    H1    S    
O17   V3    S    
C38   C40   A    
C3    C8    S    
C43   C45   A    
O4    C2    A    
C13   C54   S    
C27   C33   A    
C33   C35   A    
O16   C56   A    
C33   Cl11  S    
C20   I6    S    
C18   I4    S    
C35   C37   A    
C48   C50   A    
C22   Cl10  S    
C21   Cl9   S    
C27   C29   A    
C32   C46   A    
O10   V1    S    
O6    C4    A    
O13   C53   A    
C5    C19   S    
O1    V2    S    
O2    V1    S    
C6    C20   S    
C47   H7    S    
C12   Cl6   S    
C51   H9    S    
C42   C52   A    
O20   V4    S    
C39   C41   A    
C18   Cl8   S    
O9    V2    S    
O12   C56   A    
O3    V1    S    
C25   H5    S    
C11   Cl5   S    
C9    C11   A    
C19   I5    S    
C8    C10   A    
O3    C1    A    
C31   C45   A    
C45   Cl3   S    
C11   C13   A    
C12   C14   A    
O16   V4    S    
C14   C16   A    
O7    V1    S    
C1    O8    A    
C21   C23   A    
O8    V2    S    
C16   C18   S    
C37   C47   A    
C38   C48   A    
C4    C7    S    
O5    V1    S    
C5    C7    A    
C20   H4    S    
C40   C42   A    
C6    C8    A    
C48   H8    S    
C36   Cl2   S    
O20   V3    S    
C29   C39   A    
C15   C17   S    
C10   C12   A    
O19   V4    S    
C30   C40   A    
O19   V3    S    
C2    C23   S    
C43   I1    S    
C1    C24   S    
C42   C44   A    
O15   C55   A    
C18   C20   S    
C44   I2    S    
