data_mof_unit_49909.cif
_audit_creation_date              2012-12-10T20:31:57-0500
_audit_creation_method            fapswitch 2.2
_symmetry_space_group_name_H-M    P1
_symmetry_Int_Tables_number       1
_space_group_crystal_system       triclinic
_cell_length_a                    9.945011
_cell_length_b                    10.618299
_cell_length_c                    15.459442
_cell_angle_alpha                 92.108674
_cell_angle_beta                  65.997523
_cell_angle_gamma                 91.846088
_cell_volume                      1490.06126328

loop_
_atom_site_label
_atom_site_type_symbol
_atom_type_description
_atom_site_fract_x
_atom_site_fract_y
_atom_site_fract_z
_atom_type_partial_charge
C1    C     C_R   0.502389 0.739652 0.499480 0.940937
C2    C     C_R   0.416210 0.462145 0.912217 0.118496
C3    C     C_R   0.281226 0.518511 0.973126 0.136559
C4    C     C_R   0.525257 0.434262 0.947864 -0.042583
C5    C     C_R   0.485581 0.459789 0.046632 0.046625
C6    C     C_R   0.340636 0.495551 0.106096 -0.168660
C7    C     C_R   0.242589 0.528844 0.069556 -0.169621
C8    C     C_R   0.672111 0.387082 0.893210 0.357222
C9    C     C_R   0.758217 0.350613 0.940615 -0.251276
C10   C     C_R   0.721864 0.383409 0.035403 0.043506
C11   C     C_R   0.590470 0.448396 0.085681 0.071620
C12   C     C_R   0.406228 0.497785 0.676839 0.945478
C13   C     C_R   0.816502 0.358108 0.080644 0.176553
C14   C     C_R   0.780216 0.401124 0.174052 -0.227766
C15   C     C_R   0.566812 0.502257 0.174481 -0.206255
C16   C     C_R   0.381089 0.935818 0.553648 -0.061896
C17   C     C_R   0.507735 0.872030 0.496178 -0.072498
C18   C     C_R   0.627042 0.936126 0.427070 0.134873
C19   C     C_R   0.622795 0.066363 0.425545 -0.192755
C20   C     C_R   0.498752 0.128836 0.489685 -0.039023
C21   C     C_R   0.373937 0.062966 0.547503 0.074395
C22   C     C_3   0.284366 0.082281 0.651040 -0.471050
C23   C     C_R   0.499788 0.260695 0.497331 0.878132
C24   C     C_3   0.299210 0.941873 0.659606 0.311242
C25   C     C_R   0.936232 0.609980 0.494841 0.196637
C26   C     C_R   0.928988 0.391414 0.489879 -0.039724
C27   C     C_R   0.073887 0.390916 0.485471 0.220762
C28   C     C_R   0.077123 0.610054 0.495482 0.175958
C29   C     C_3   0.045114 0.723824 0.559408 -0.481605
C30   C     C_3   0.892362 0.723657 0.558667 -0.393843
C31   C     C_R   0.593598 0.496644 0.323389 0.878800
C32   C     C_R   0.345508 0.493111 0.780638 -0.143207
C33   C     C_R   0.654145 0.472730 0.221087 -0.081910
C34   C     C_R   0.182522 0.561496 0.937762 -0.184352
C35   C     C_R   0.216972 0.554928 0.841339 0.236223
C36   C     C_R   0.432234 0.435544 0.819426 -0.173408
H1    H     H_    0.135341 0.562716 0.117380 0.160534
H2    H     H_    0.716507 0.118715 0.376523 0.168374
H3    H     H_    0.340233 0.144965 0.686038 0.235756
H4    H     H_    0.169961 0.109557 0.665727 0.201785
H5    H     H_    0.192476 0.889308 0.685002 0.101238
H6    H     H_    0.876556 0.304083 0.481087 0.179118
H7    H     H_    0.042954 0.703930 0.629378 0.248409
H8    H     H_    0.477874 0.566576 0.210236 0.155710
H9    H     H_    0.114343 0.806620 0.524075 0.210581
H10   H     H_    0.801824 0.704283 0.628524 0.265452
H11   H     H_    0.874769 0.806045 0.522443 0.223303
H12   H     H_    0.847415 0.375154 0.210628 0.173404
H13   H     H_    0.862108 0.306038 0.900296 0.218507
H14   H     H_    0.081001 0.605536 0.984974 0.170351
H15   H     H_    0.511091 0.370363 0.774938 0.241558
H16   H     H_    0.299838 0.498758 0.182424 0.150514
N1    N     N_R   0.856900 0.500860 0.500610 -0.107632
N2    N     N_R   0.142540 0.500820 0.500610 -0.107954
O1    O     O_R   0.385310 0.683210 0.499990 -0.631251
O2    O     O_R   0.614650 0.683240 0.500000 -0.583832
O3    O     O_R   0.319830 0.499970 0.632240 -0.579379
O4    O     O_R   0.549170 0.500000 0.632250 -0.537729
O5    O     O_R   0.385350 0.316760 0.500000 -0.586519
O6    O     O_R   0.614690 0.316790 0.500010 -0.623166
O7    O     O_R   0.450830 0.500000 0.367750 -0.610732
O8    O     O_R   0.680170 0.500030 0.367760 -0.617921
Zn1   Zn    Zn3+2 0.346870 0.499980 0.499990 1.013935
Zn2   Zn    Zn3+2 0.653130 0.500020 0.500010 1.023891
I1    I     I_    0.008284 0.247073 0.017192 -0.323701
I2    I     I_    0.814651 0.845418 0.324457 -0.344922
S1    S     S_3+6 0.411631 0.911430 0.722458 0.028279
O9    O     O_2   0.329792 0.948520 0.825064 -0.242379
O10   O     O_2   0.445940 0.773850 0.714308 -0.336152
O11   O     O_3   0.569873 0.995851 0.676585 -0.540388
H17   H     H_    0.631055 0.965289 0.708250 0.381837
I3    I     I_    0.173679 0.215278 0.432073 -0.322561
I4    I     I_    0.070201 0.646437 0.798621 -0.237584
S2    S     S_3+6 0.771492 0.386514 0.767338 -0.000206
O12   O     O_2   0.738642 0.503017 0.727924 -0.280447
O13   O     O_2   0.934680 0.385184 0.740657 -0.293760
O14   O     O_3   0.727967 0.256906 0.717377 -0.547305
H18   H     H_    0.753505 0.185258 0.746738 0.360399

loop_
_geom_bond_atom_site_label_1
_geom_bond_atom_site_label_2
_ccdc_geom_bond_type
C8    C9    A    
C16   C21   A    
C31   O7    A    
C19   C20   A    
C4    C8    A    
C14   C33   A    
C27   N2    A    
C13   I1    S    
O14   H18   S    
C25   C28   A    
C23   O5    A    
C26   C27   A    
S2    O13   D    
C32   C36   A    
C28   C29   S    
C1    O2    A    
C25   N1    A    
C15   H8    S    
C5    C11   A    
C3    C7    A    
C5    C6    A    
N1    Zn2   S    
N2    Zn1   S    
C34   C35   A    
O7    Zn1   S    
O8    Zn2   S    
C24   S1    S    
C11   C15   A    
C16   C17   A    
S2    O14   S    
O1    Zn1   S    
O2    Zn2   S    
O11   H17   S    
C9    C10   A    
C12   O4    A    
C16   C24   S    
C21   C22   S    
C29   H7    S    
C24   H5    S    
C31   O8    A    
O3    Zn1   S    
O4    Zn2   S    
C23   O6    A    
C34   H14   S    
S2    O12   D    
S1    O9    D    
C32   C35   A    
C30   H11   S    
C9    H13   S    
C28   N2    A    
C18   C19   A    
C14   H12   S    
C3    C34   A    
C29   H9    S    
S1    O10   D    
C2    C4    A    
C29   C30   S    
C19   H2    S    
C20   C23   S    
C22   H4    S    
C8    S2    S    
C17   C18   A    
C7    H1    S    
C36   H15   S    
C12   O3    A    
C22   C24   S    
C26   N1    A    
C26   H6    S    
C2    C36   A    
C25   C30   S    
C35   I4    S    
C31   C33   S    
C1    C17   S    
C30   H10   S    
C4    C5    A    
C10   C13   A    
C6    C7    A    
C18   I2    S    
O5    Zn1   S    
O6    Zn2   S    
S1    O11   S    
C2    C3    A    
C1    O1    A    
C22   H3    S    
C10   C11   A    
C20   C21   A    
C6    H16   S    
C13   C14   A    
C15   C33   A    
C12   C32   S    
C27   I3    S    
