data_mof_unit_15191.cif
_audit_creation_date              2012-12-11T14:29:40-0500
_audit_creation_method            fapswitch 2.2
_symmetry_space_group_name_H-M    P1
_symmetry_Int_Tables_number       1
_space_group_crystal_system       triclinic
_cell_length_a                    6.932513
_cell_length_b                    14.647113
_cell_length_c                    16.401295
_cell_angle_alpha                 90.467339
_cell_angle_beta                  90.235539
_cell_angle_gamma                 89.454347
_cell_volume                      1665.26437079

loop_
_atom_site_label
_atom_site_type_symbol
_atom_type_description
_atom_site_fract_x
_atom_site_fract_y
_atom_site_fract_z
_atom_type_partial_charge
O1    O     O_R   0.494400 0.416610 0.413880 -0.520190
O2    O     O_R   0.823920 0.406790 0.585520 -0.512390
O3    O     O_R   0.994250 0.583390 0.586120 -0.549537
C1    C     C_R   0.655957 0.384896 0.613666 0.773830
O4    O     O_R   0.824110 0.405730 0.414490 -0.546337
O5    O     O_R   0.994440 0.582310 0.413870 -0.509720
C2    C     C_R   0.654767 0.381603 0.388159 0.723962
O6    O     O_R   0.494210 0.417690 0.586130 -0.544448
O7    O     O_3   0.660810 0.557940 0.500000 -0.376210
V1    V     V_3+5 0.935650 0.489250 0.500000 1.550100
O8    O     O_R   0.324160 0.593210 0.414480 -0.547997
C3    C     C_R   0.153667 0.616213 0.387627 0.741698
O9    O     O_R   0.323970 0.594270 0.585510 -0.544983
C4    C     C_R   0.154066 0.617240 0.612842 0.665298
V2    V     V_3+5 0.435660 0.510750 0.500000 1.512014
O10   O     O_3   0.160630 0.442060 0.500000 -0.355762
H1    H     H_    0.304181 0.925086 0.518536 0.127325
C5    C     C_R   0.022169 0.563476 0.771912 -0.156363
C6    C     C_R   0.983613 0.530727 0.849470 0.366115
C7    C     C_R   0.025774 0.585685 0.917065 -0.198259
C8    C     C_R   0.093580 0.674258 0.906797 0.207515
C9    C     C_R   0.099042 0.714240 0.828366 0.026485
C10   C     C_R   0.084355 0.654253 0.759816 -0.040789
C11   C     C_R   0.127593 0.809654 0.816092 -0.132039
C12   C     C_R   0.171006 0.840698 0.736303 -0.012661
C13   C     C_R   0.183474 0.777553 0.669824 0.078529
C14   C     C_R   0.140072 0.684226 0.681544 -0.120097
C15   C     C_R   0.204311 0.934323 0.721291 -0.152639
C16   C     C_R   0.252709 0.965238 0.643818 0.409548
C17   C     C_R   0.267274 0.902485 0.579162 -0.200579
C18   C     C_R   0.232369 0.810193 0.591818 -0.190796
H2    H     H_    0.003205 0.516181 0.721712 0.163380
H3    H     H_    0.019654 0.557236 0.977756 0.153016
H4    H     H_    0.193715 0.985032 0.769438 0.118136
H5    H     H_    0.242070 0.764978 0.539460 0.111127
C19   C     C_2   0.983565 0.707572 0.279794 0.412823
C20   C     C_2   0.141116 0.690385 0.327014 -0.265740
H6    H     H_    0.265999 0.734094 0.324196 0.142377
C21   C     C_2   0.978552 0.784174 0.219285 -0.242956
C22   C     C_2   0.131911 0.811344 0.175587 0.221344
H7    H     H_    0.838465 0.815022 0.206804 0.099631
C23   C     C_2   0.779520 0.207683 0.783260 -0.195304
C24   C     C_2   0.613073 0.181302 0.818012 -0.316686
H8    H     H_    0.912809 0.176149 0.804460 0.140175
H9    H     H_    0.476006 0.211128 0.800139 0.136287
C25   C     C_2   0.798617 0.278958 0.718224 0.434957
C26   C     C_2   0.643770 0.315669 0.679163 -0.283415
H10   H     H_    0.499286 0.294368 0.694255 0.102789
C27   C     C_2   0.773021 0.208663 0.214882 -0.082631
C28   C     C_2   0.613870 0.187913 0.171468 -0.266279
H11   H     H_    0.908062 0.173473 0.201709 0.149105
H12   H     H_    0.482389 0.227472 0.180107 0.176436
C29   C     C_2   0.779077 0.284546 0.275728 -0.158600
C30   C     C_2   0.638235 0.304287 0.330049 0.117383
H13   H     H_    0.910032 0.324692 0.276960 0.137255
O11   O     O_R   0.770210 0.079270 0.910680 -0.544011
O12   O     O_R   0.440150 0.091160 0.082270 -0.543994
O13   O     O_R   0.269970 0.914530 0.082860 -0.533782
C31   C     C_R   0.608696 0.114523 0.109278 0.726448
O14   O     O_R   0.440480 0.090100 0.911240 -0.550496
O15   O     O_R   0.270310 0.913460 0.910610 -0.523006
C32   C     C_R   0.608417 0.112080 0.883324 0.757614
O16   O     O_R   0.769870 0.080340 0.082930 -0.546283
O17   O     O_3   0.603660 0.938980 0.996790 -0.356583
V3    V     V_3+5 0.328750 0.007610 0.996740 1.468956
O18   O     O_R   0.940600 0.902510 0.911180 -0.536335
C33   C     C_R   0.111013 0.877806 0.884745 0.761647
O19   O     O_R   0.940270 0.903570 0.082200 -0.545075
C34   C     C_R   0.110759 0.883189 0.111646 0.712556
V4    V     V_3+5 0.828770 0.986010 0.996670 1.469933
O20   O     O_3   0.103730 0.054750 0.996710 -0.381708
O21   O     O_3   0.307850 0.767447 0.187384 -0.640622
H14   H     H_    0.408115 0.794582 0.152668 0.322605
O22   O     O_3   0.981170 0.307530 0.696763 -0.621112
H15   H     H_    0.078181 0.275993 0.731314 0.291093
Br1   Br    Br    0.415591 0.227716 0.344266 -0.577742
O23   O     O_3   0.919656 0.442336 0.857299 -0.637971
H16   H     H_    0.900410 0.429381 0.915950 0.288084
Br2   Br    Br    0.247471 0.717676 0.994913 -0.563640
O24   O     O_3   0.284777 0.057225 0.633408 -0.644755
H17   H     H_    0.317637 0.068108 0.575516 0.304635
O25   O     O_3   0.821406 0.654336 0.288856 -0.633312
H18   H     H_    0.721878 0.674945 0.249322 0.301625

loop_
_geom_bond_atom_site_label_1
_geom_bond_atom_site_label_2
_ccdc_geom_bond_type
C6    C7    A    
C1    O6    A    
C21   H7    S    
O23   H16   S    
C12   C15   A    
C13   C14   A    
C16   C17   A    
C28   C31   S    
C15   C16   A    
O5    C3    A    
C17   C18   A    
O12   C31   A    
V2    O10   S    
O14   C32   A    
C5    C6    A    
C23   C25   S    
C3    C20   S    
C6    O23   S    
C11   C33   S    
O8    V2    S    
V3    O20   S    
O19   C34   A    
C27   H11   S    
C28   H12   S    
V4    O20   S    
O1    V2    S    
O17   V4    S    
C4    C14   S    
O7    V1    S    
O11   C32   A    
O18   C33   A    
C15   H4    S    
C13   C18   A    
O9    C4    A    
H1    C17   S    
C23   H8    S    
C10   C14   A    
C29   H13   S    
C22   C34   S    
C5    C10   A    
C11   C12   A    
O22   H15   S    
C19   O25   S    
C21   C22   D    
O4    C2    A    
O24   H17   S    
C12   C13   A    
C29   C30   D    
O2    C1    A    
C20   H6    S    
O15   C33   A    
O13   V3    S    
C26   H10   S    
O16   V4    S    
C8    Br2   S    
C24   H9    S    
O3    C4    A    
C30   Br1   S    
C7    H3    S    
O14   V3    S    
O25   H18   S    
O6    V2    S    
O11   V4    S    
O9    V2    S    
C18   H5    S    
C5    H2    S    
C23   C24   D    
O2    V1    S    
C25   O22   S    
C25   C26   D    
C19   C20   D    
C22   O21   S    
O1    C2    A    
C19   C21   S    
O12   V3    S    
O21   H14   S    
O5    V1    S    
O8    C3    A    
O13   C34   A    
C31   O16   A    
O17   V3    S    
O7    V2    S    
O4    V1    S    
O3    V1    S    
V1    O10   S    
O18   V4    S    
C16   O24   S    
C27   C29   S    
C9    C11   A    
O15   V3    S    
C7    C8    A    
O19   V4    S    
C27   C28   D    
C9    C10   A    
C2    C30   S    
C8    C9    A    
C24   C32   S    
C1    C26   S    
