data_mof_unit_38648.cif
_audit_creation_date              2012-12-11T16:04:52-0500
_audit_creation_method            fapswitch 2.2
_symmetry_space_group_name_H-M    P1
_symmetry_Int_Tables_number       1
_space_group_crystal_system       triclinic
_cell_length_a                    10.542347
_cell_length_b                    10.602845
_cell_length_c                    16.881075
_cell_angle_alpha                 98.870118
_cell_angle_beta                  98.904161
_cell_angle_gamma                 61.562948
_cell_volume                      1632.22255634

loop_
_atom_site_label
_atom_site_type_symbol
_atom_type_description
_atom_site_fract_x
_atom_site_fract_y
_atom_site_fract_z
_atom_type_partial_charge
C1    C     C_R   0.378292 0.717016 0.385750 0.519254
C2    C     C_3   0.284132 0.737748 0.235110 -0.121880
C3    C     C_3   0.357234 0.780892 0.312080 0.055704
C4    C     C_R   0.397848 0.367181 0.355045 0.516098
C5    C     C_3   0.473232 0.777508 0.266017 -0.128386
C6    C     C_3   0.375094 0.939393 0.254566 -0.135793
C7    C     C_3   0.260327 0.941462 0.302567 -0.108646
C8    C     C_3   0.186453 0.898794 0.224682 -0.114070
C9    C     C_3   0.301620 0.895570 0.177807 0.050464
C10   C     C_3   0.431004 0.234706 0.767927 -0.102623
C11   C     C_3   0.364374 0.382764 0.736638 -0.003689
C12   C     C_3   0.687699 0.390915 0.232142 -0.146274
C13   C     C_3   0.320602 0.321346 0.655294 0.034588
C14   C     C_3   0.384749 0.172404 0.686532 -0.126787
C15   C     C_3   0.235773 0.215256 0.715571 -0.155605
C16   C     C_R   0.716723 0.409786 0.389760 0.525878
C17   C     C_3   0.171625 0.364888 0.682633 -0.132955
C18   C     C_3   0.216831 0.426630 0.765203 -0.098901
C19   C     C_3   0.283100 0.277489 0.796203 0.030420
C20   C     C_1   0.774618 0.364440 0.714664 -0.014835
C21   C     C_1   0.818255 0.326957 0.781323 -0.030908
C22   C     C_1   0.321228 0.846357 0.704994 -0.022241
C23   C     C_3   0.777555 0.371643 0.313618 0.056994
C24   C     C_1   0.284681 0.891512 0.771874 -0.026550
C25   C     C_R   0.949251 0.288522 0.103093 0.522681
C26   C     C_R   0.297037 0.268991 0.124710 0.520089
C27   C     C_R   0.260585 0.953222 0.100294 0.521657
C28   C     C_R   0.352697 0.780131 0.625530 0.563875
C29   C     C_R   0.879718 0.301609 0.861846 0.551751
C30   C     C_R   0.275516 0.250727 0.877152 0.545067
C31   C     C_R   0.246595 0.942552 0.852357 0.541981
C32   C     C_R   0.364246 0.344025 0.583439 0.553578
C33   C     C_R   0.720627 0.409246 0.635734 0.580171
C34   C     C_3   0.891716 0.221962 0.283878 -0.117189
C35   C     C_1   0.354037 0.341187 0.274172 -0.063602
C36   C     C_1   0.323839 0.311901 0.205610 -0.064842
C37   C     C_3   0.803060 0.240777 0.200631 -0.101930
C38   C     C_1   0.430785 0.478896 0.754682 0.198010
C39   C     C_3   0.975990 0.293263 0.258876 -0.148585
C40   C     C_3   0.861151 0.443196 0.289733 -0.101854
C41   C     C_3   0.771629 0.462382 0.207424 -0.113388
C42   C     C_3   0.886304 0.313119 0.177368 0.058691
C43   C     C_3   0.399143 0.735160 0.187612 -0.106252
Cr1   Cr    Cr6+3 0.608340 0.611040 0.520430 1.017261
Cr2   Cr    Cr6+3 0.287650 0.601120 0.489350 1.020766
Cr3   Cr    Cr6+3 0.604040 0.287870 0.490280 1.022671
Cr4   Cr    Cr6+3 0.054020 0.052700 0.970850 1.018494
Cr5   Cr    Cr6+3 0.059230 0.375120 0.993390 1.026942
Cr6   Cr    Cr6+3 0.374950 0.061200 0.992340 1.027717
H1    H     H_    0.568679 0.430842 0.223636 0.098290
H2    H     H_    0.884444 0.527174 0.326777 0.138210
H3    H     H_    0.724338 0.560109 0.174460 0.136683
H4    H     H_    0.247696 0.653894 0.228798 0.121482
H5    H     H_    0.454166 0.653111 0.138293 0.137590
H6    H     H_    0.411657 0.023001 0.260492 0.127569
H7    H     H_    0.068676 0.948057 0.205395 0.120759
H8    H     H_    0.781135 0.157052 0.162284 0.138278
H9    H     H_    0.590392 0.728629 0.286665 0.119178
H10   H     H_    0.205622 0.023447 0.351979 0.129677
H11   H     H_    0.539022 0.182423 0.802294 0.144791
H12   H     H_    0.452842 0.068009 0.653223 0.137739
H13   H     H_    0.177780 0.149700 0.707913 0.100639
H14   H     H_    0.066232 0.417875 0.646042 0.151650
H15   H     H_    0.148528 0.531010 0.798481 0.147416
H16   H     H_    0.937120 0.125583 0.317801 0.128306
H17   H     H_    0.095098 0.252895 0.267606 0.096860
N1    N     N_1   0.482264 0.555530 0.770782 -0.307381
O1    O     O_R   0.751220 0.499230 0.435170 -0.518290
O2    O     O_R   0.412990 0.180750 0.091610 -0.499748
O3    O     O_R   0.366620 0.943130 0.065760 -0.493750
O4    O     O_R   0.477220 0.727600 0.436870 -0.507925
O5    O     O_R   0.160510 0.906330 0.879210 -0.481425
O6    O     O_R   0.930190 0.179050 0.889450 -0.508518
O7    O     O_R   0.909140 0.398170 0.896710 -0.499705
O8    O     O_R   0.186190 0.363460 0.918830 -0.484140
O9    O     O_R   0.401670 0.173200 0.913310 -0.507498
O10   O     O_R   0.356120 0.936130 0.900470 -0.482337
O11   O     O_3   0.162740 0.163010 0.985530 -0.342687
O12   O     O_R   0.297880 0.469080 0.560050 -0.491311
O13   O     O_R   0.258650 0.745120 0.411470 -0.511674
O14   O     O_R   0.297070 0.467240 0.395960 -0.505813
O15   O     O_R   0.488830 0.252610 0.387790 -0.507485
O16   O     O_R   0.724400 0.302390 0.420980 -0.498503
O17   O     O_R   0.752100 0.501210 0.612190 -0.504829
O18   O     O_R   0.478040 0.729440 0.600970 -0.495751
O19   O     O_R   0.259530 0.747110 0.588490 -0.499791
O20   O     O_R   0.489720 0.254590 0.564810 -0.517065
O21   O     O_R   0.725220 0.304230 0.585080 -0.489793
O22   O     O_3   0.500010 0.500010 0.500020 -0.308271
O23   O     O_R   0.171830 0.913880 0.057510 -0.498973
O24   O     O_R   0.940690 0.186050 0.054730 -0.508991
O25   O     O_R   0.920470 0.405720 0.075010 -0.507795
O26   O     O_R   0.196690 0.370460 0.084120 -0.488685

loop_
_geom_bond_atom_site_label_1
_geom_bond_atom_site_label_2
_ccdc_geom_bond_type
C11   C18   S    
C34   C37   S    
C11   C13   S    
C41   C42   S    
C13   C32   S    
C35   C36   T    
C6    H6    S    
C8    H7    S    
C6    C9    S    
C7    C8    S    
Cr3   O22   S    
C15   C19   S    
C12   C23   S    
C1    O4    A    
C5    H9    S    
C27   O23   A    
C33   O21   A    
C3    C7    S    
C5    C6    S    
C29   O6    A    
C23   C40   S    
C12   C37   S    
Cr6   O11   S    
Cr1   O4    S    
C18   C19   S    
Cr5   O11   S    
C37   C42   S    
Cr3   O15   S    
C4    O14   A    
C8    C9    S    
C16   O1    A    
Cr2   O22   S    
C2    C43   S    
C41   H3    S    
C26   O26   A    
C5    C43   S    
C4    C35   S    
Cr6   O2    S    
C13   C14   S    
Cr5   O8    S    
C34   H16   S    
C7    H10   S    
C31   O10   A    
C39   C42   S    
Cr3   O21   S    
Cr2   O14   S    
C9    C43   S    
C25   O24   A    
Cr5   O26   S    
C34   C39   S    
Cr5   O7    S    
Cr4   O6    S    
C10   C14   S    
C39   C40   S    
C29   O7    A    
Cr1   O17   S    
C32   O20   A    
C21   C29   S    
C16   O16   A    
C1    C3    S    
C11   C38   S    
C10   H11   S    
C12   C41   S    
C30   O9    A    
C43   H5    S    
C10   C19   S    
C23   C34   S    
C17   C18   S    
Cr6   O9    S    
Cr2   O12   S    
C38   N1    T    
C27   O3    A    
C20   C33   S    
C26   C36   S    
C40   C41   S    
C16   C23   S    
Cr6   O3    S    
C28   O19   A    
C39   H17   S    
C22   C24   T    
Cr1   O1    S    
Cr1   O18   S    
C9    C27   S    
Cr3   O20   S    
C15   C17   S    
C31   O5    A    
C25   O25   A    
Cr4   O24   S    
C2    C8    S    
C3    C5    S    
C2    H4    S    
C25   C42   S    
C12   H1    S    
C6    C7    S    
C40   H2    S    
C13   C17   S    
Cr2   O19   S    
C24   C31   S    
C17   H14   S    
C32   O12   A    
C30   O8    A    
C14   H12   S    
C18   H15   S    
Cr4   O23   S    
C15   H13   S    
Cr6   O10   S    
C2    C3    S    
Cr2   O13   S    
C33   O17   A    
Cr4   O5    S    
C10   C11   S    
Cr3   O16   S    
C4    O15   A    
C20   C21   T    
Cr5   O25   S    
C28   O18   A    
C26   O2    A    
C14   C15   S    
C1    O13   A    
C22   C28   S    
Cr4   O11   S    
C19   C30   S    
C37   H8    S    
Cr1   O22   S    
