data_mof_unit_50674.cif
_audit_creation_date              2012-12-10T19:03:05-0500
_audit_creation_method            fapswitch 2.2
_symmetry_space_group_name_H-M    P1
_symmetry_Int_Tables_number       1
_space_group_crystal_system       triclinic
_cell_length_a                    10.733908
_cell_length_b                    10.829371
_cell_length_c                    9.550571
_cell_angle_alpha                 90.581373
_cell_angle_beta                  89.909451
_cell_angle_gamma                 90.14303
_cell_volume                      1110.1104796

loop_
_atom_site_label
_atom_site_type_symbol
_atom_type_description
_atom_site_fract_x
_atom_site_fract_y
_atom_site_fract_z
_atom_type_partial_charge
C1    C     C_R   0.496227 0.262459 0.499324 0.788852
C2    C     C_3   0.878300 0.496113 0.499389 0.115879
C3    C     C_3   0.928983 0.618262 0.562953 -0.399178
C4    C     C_3   0.929072 0.481808 0.347750 -0.366356
C5    C     C_R   0.470026 0.065746 0.623176 0.129040
C6    C     C_R   0.481022 0.129692 0.497842 -0.098568
C7    C     C_R   0.473485 0.063300 0.370961 -0.223813
C8    C     C_R   0.474562 0.934487 0.371844 -0.221615
C9    C     C_R   0.483298 0.871182 0.499592 -0.104840
C10   C     C_R   0.471304 0.938605 0.624291 0.126304
C11   C     C_3   0.547544 0.936664 0.754932 -0.493047
C12   C     C_R   0.259983 0.498623 0.499877 0.742574
C13   C     C_3   0.545167 0.076547 0.753876 -0.455118
C14   C     C_R   0.604690 0.532123 0.073909 0.263010
C15   C     C_R   0.400978 0.455983 0.073971 -0.093098
C16   C     C_R   0.400863 0.456207 0.925252 -0.089258
C17   C     C_R   0.605274 0.530514 0.926536 0.260010
C18   C     C_3   0.673584 0.649931 0.921025 -0.519816
C19   C     C_3   0.670515 0.653379 0.079644 -0.501797
C20   C     C_R   0.497271 0.737857 0.500363 0.800562
C21   C     C_R   0.740195 0.498246 0.499778 0.766547
C22   C     C_3   0.071630 0.384705 0.588748 0.122395
C23   C     C_3   0.926787 0.386230 0.586852 -0.370258
C24   C     C_3   0.072489 0.617520 0.562917 -0.432413
C25   C     C_3   0.071585 0.481820 0.347360 -0.369648
C26   C     C_3   0.122025 0.494656 0.499359 0.096001
Cu1   Cu    Cu3+1 0.499990 0.499980 0.640670 0.929408
Cu2   Cu    Cu3+1 0.500010 0.500020 0.359330 0.927264
H1    H     H_    0.103411 0.399564 0.698818 0.123992
H2    H     H_    0.896379 0.559560 0.282644 0.162641
H3    H     H_    0.107736 0.697140 0.501386 0.169216
H4    H     H_    0.894836 0.698127 0.501497 0.161276
H5    H     H_    0.473938 0.110102 0.271273 0.164493
H6    H     H_    0.475268 0.885379 0.272511 0.160908
H7    H     H_    0.494873 0.897602 0.844531 0.195699
H8    H     H_    0.642369 0.898423 0.737012 0.194296
H9    H     H_    0.490754 0.117405 0.841922 0.195269
H10   H     H_    0.638354 0.118821 0.736146 0.195525
H11   H     H_    0.320084 0.421662 0.128876 0.135106
H12   H     H_    0.319849 0.422165 0.869812 0.135028
H13   H     H_    0.769010 0.639048 0.877749 0.183686
H14   H     H_    0.617163 0.722952 0.872795 0.216645
H15   H     H_    0.764540 0.646915 0.126569 0.183281
H16   H     H_    0.611344 0.728747 0.122996 0.210554
H17   H     H_    0.889088 0.298513 0.541991 0.172109
H18   H     H_    0.891798 0.393519 0.696401 0.138303
H19   H     H_    0.106735 0.629828 0.672153 0.167125
H20   H     H_    0.894804 0.630522 0.672078 0.163474
H21   H     H_    0.105431 0.559983 0.282479 0.170373
H22   H     H_    0.105835 0.395080 0.297289 0.168365
H23   H     H_    0.894156 0.394443 0.299256 0.169909
N1    N     N_R   0.500800 0.500930 0.147930 -0.183352
N2    N     N_R   0.500800 0.500890 0.852020 -0.182156
O1    O     O_R   0.500000 0.319640 0.618810 -0.576869
O2    O     O_R   0.500010 0.319680 0.381230 -0.585865
O3    O     O_R   0.317690 0.499960 0.618790 -0.594377
O4    O     O_R   0.317700 0.500000 0.381210 -0.593781
O5    O     O_R   0.499990 0.680320 0.618770 -0.574152
O6    O     O_R   0.500000 0.680360 0.381190 -0.581836
O7    O     O_R   0.682300 0.500000 0.618790 -0.586170
O8    O     O_R   0.682310 0.500040 0.381210 -0.585398
N3    N     N_2   0.117739 0.265402 0.538097 -0.422558
H24   H     H_    0.201903 0.267242 0.486010 0.243685
C27   C     C_3   0.112292 0.165753 0.637857 -0.728032
H25   H     H_    0.137453 0.077581 0.584704 0.234957
H26   H     H_    0.016861 0.156228 0.681613 0.231532
H27   H     H_    0.179464 0.183171 0.724345 0.218078

loop_
_geom_bond_atom_site_label_1
_geom_bond_atom_site_label_2
_ccdc_geom_bond_type
C15   C16   A    
C2    C4    S    
C1    O1    A    
Cu1   N2    S    
C6    C7    A    
C23   H17   S    
C22   H1    S    
C22   N3    S    
C11   C13   S    
C9    C10   A    
C9    C20   S    
C21   O8    A    
C5    C13   S    
C27   H25   S    
Cu1   O3    S    
C2    C21   S    
C11   H7    S    
C4    C25   S    
C3    C24   S    
Cu1   O1    S    
C7    C8    A    
C23   H18   S    
C8    H6    S    
C15   N1    A    
Cu2   O8    S    
C20   O6    A    
Cu2   N1    S    
C14   C17   A    
C15   H11   S    
C13   H10   S    
C12   O3    A    
C16   H12   S    
C5    C6    A    
C12   O4    A    
C14   N1    A    
C11   H8    S    
Cu2   O2    S    
C19   H15   S    
C17   C18   S    
C2    C3    S    
Cu1   O7    S    
C18   H14   S    
C1    O2    A    
C3    H4    S    
C24   C26   S    
C25   H21   S    
C24   H3    S    
C10   C11   S    
C7    H5    S    
C4    H23   S    
C20   O5    A    
C1    C6    S    
C27   H27   S    
C17   N2    A    
C3    H20   S    
C5    C10   A    
C19   H16   S    
C21   O7    A    
C18   C19   S    
C22   C26   S    
Cu2   O6    S    
C2    C23   S    
C25   H22   S    
C16   N2    A    
N3    C27   S    
C25   C26   S    
Cu2   O4    S    
C24   H19   S    
C13   H9    S    
C14   C19   S    
C22   C23   S    
C4    H2    S    
N3    H24   S    
C18   H13   S    
C12   C26   S    
C8    C9    A    
Cu1   Cu2   S    
Cu1   O5    S    
C27   H26   S    
