data_mof_unit_38027.cif
_audit_creation_date              2012-12-10T16:53:06-0500
_audit_creation_method            fapswitch 2.2
_symmetry_space_group_name_H-M    P1
_symmetry_Int_Tables_number       1
_space_group_crystal_system       triclinic
_cell_length_a                    10.752852
_cell_length_b                    10.904895
_cell_length_c                    9.719949
_cell_angle_alpha                 88.500917
_cell_angle_beta                  89.792512
_cell_angle_gamma                 90.442219
_cell_volume                      1139.31644274

loop_
_atom_site_label
_atom_site_type_symbol
_atom_type_description
_atom_site_fract_x
_atom_site_fract_y
_atom_site_fract_z
_atom_type_partial_charge
C1    C     C_R   0.495722 0.265313 0.501695 0.835670
C2    C     C_R   0.064692 0.381027 0.521648 0.091865
C3    C     C_R   0.128970 0.493391 0.500487 -0.084928
C4    C     C_R   0.065248 0.602792 0.476938 -0.196414
C5    C     C_R   0.936740 0.602784 0.476354 -0.202602
C6    C     C_R   0.871009 0.493407 0.499529 -0.086585
C7    C     C_2   0.447332 0.936935 0.392837 0.191152
C8    C     C_2   0.500358 0.867676 0.493708 -0.324023
C9    C     C_2   0.462458 0.070894 0.391993 -0.151907
C10   C     C_2   0.480803 0.133306 0.507108 -0.391233
C11   C     C_2   0.431841 0.425357 0.927605 0.157987
C12   C     C_R   0.262712 0.499140 0.500206 0.778230
C13   C     C_2   0.413379 0.450555 0.078916 -0.083075
C14   C     C_R   0.497465 0.734776 0.498088 0.850290
C15   C     C_R   0.737306 0.499309 0.499774 0.790610
C16   C     C_R   0.127893 0.268809 0.540715 -0.191886
C17   C     C_R   0.061781 0.159004 0.559213 -0.144254
C18   C     C_R   0.932272 0.159168 0.560256 -0.131452
C19   C     C_R   0.868088 0.269044 0.541747 -0.167253
C20   C     C_R   0.933299 0.381092 0.521618 0.094733
Cu1   Cu    Cu3+1 0.500020 0.500020 0.638630 0.926907
Cu2   Cu    Cu3+1 0.499980 0.499980 0.361370 0.935808
H1    H     H_    0.115390 0.688491 0.459630 0.131748
H2    H     H_    0.478256 0.088785 0.608188 0.149574
H3    H     H_    0.531528 0.577670 0.890245 0.188779
H4    H     H_    0.329846 0.417925 0.130900 0.163687
H5    H     H_    0.581436 0.520537 0.104568 0.198792
H6    H     H_    0.228324 0.264955 0.540531 0.123628
H7    H     H_    0.111260 0.073482 0.572936 0.138118
H8    H     H_    0.881321 0.073787 0.574932 0.132061
H9    H     H_    0.767536 0.265366 0.542295 0.128185
H10   H     H_    0.888161 0.688496 0.458748 0.134704
H11   H     H_    0.551683 0.909068 0.576521 0.117540
H12   H     H_    0.455794 0.119413 0.293217 0.170810
N1    N     N_2   0.498640 0.498660 0.846910 -0.300639
N2    N     N_2   0.498610 0.498630 0.153040 -0.298308
O1    O     O_R   0.500020 0.321960 0.617040 -0.605235
O2    O     O_R   0.499980 0.321920 0.382900 -0.566507
O3    O     O_R   0.319670 0.500020 0.617100 -0.585510
O4    O     O_R   0.319630 0.499980 0.382950 -0.577665
O5    O     O_R   0.500020 0.678080 0.617100 -0.582152
O6    O     O_R   0.499980 0.678040 0.382960 -0.561407
O7    O     O_R   0.680370 0.500020 0.617050 -0.568090
O8    O     O_R   0.680330 0.499980 0.382900 -0.572927
C21   C     C_3   0.375949 0.307968 0.871865 -0.311961
C22   C     C_3   0.294534 0.231414 0.973028 -0.448762
C23   C     C_3   0.250525 0.112589 0.908621 -0.839065
H13   H     H_    0.193404 0.133255 0.816236 0.261654
H14   H     H_    0.331351 0.056093 0.878897 0.249532
H15   H     H_    0.192890 0.058965 0.984106 0.248790
H16   H     H_    0.348539 0.207014 0.067030 0.224983
H17   H     H_    0.211312 0.284829 0.002275 0.229566
H18   H     H_    0.318262 0.330200 0.780789 0.235128
H19   H     H_    0.454479 0.248567 0.842407 0.213964
C24   C     C_3   0.373735 0.882900 0.276438 -0.801183
H20   H     H_    0.325919 0.955697 0.215017 0.211305
H21   H     H_    0.436502 0.834150 0.205735 0.246552
H22   H     H_    0.301124 0.818953 0.318043 0.222673

loop_
_geom_bond_atom_site_label_1
_geom_bond_atom_site_label_2
_ccdc_geom_bond_type
C13   N2    D    
C12   O4    A    
C24   H20   S    
C16   H6    S    
C18   H8    S    
C1    O1    A    
C2    C16   A    
Cu2   N2    S    
C9    C10   D    
C23   H13   S    
Cu1   O3    S    
Cu2   O4    S    
C7    C24   S    
C14   O6    A    
C5    H10   S    
C19   H9    S    
C12   O3    A    
C11   N1    D    
C2    C3    A    
C21   H18   S    
C7    C8    D    
C23   H14   S    
Cu1   O7    S    
C21   C22   S    
C11   C13   S    
Cu2   O6    S    
C1    O2    A    
H3    N1    S    
C14   O5    A    
Cu1   O5    S    
C21   H19   S    
C17   C18   A    
C23   H15   S    
C8    H11   S    
C24   H21   S    
C5    C6    A    
H5    N2    S    
C13   H4    S    
Cu1   N1    S    
C11   C21   S    
C15   O7    A    
C3    C4    A    
Cu2   O2    S    
C22   H17   S    
C17   H7    S    
C6    C20   A    
Cu1   O1    S    
C18   C19   A    
C24   H22   S    
C7    C9    S    
C4    H1    S    
C15   O8    A    
C22   C23   S    
C16   C17   A    
C8    C14   S    
C3    C12   S    
C10   H2    S    
C6    C15   S    
Cu1   Cu2   S    
C2    C20   A    
C22   H16   S    
Cu2   O8    S    
C1    C10   S    
C19   C20   A    
C9    H12   S    
C4    C5    A    
