data_mof_unit_58610.cif
_audit_creation_date              2012-12-10T17:07:39-0500
_audit_creation_method            fapswitch 2.2
_symmetry_space_group_name_H-M    P1
_symmetry_Int_Tables_number       1
_space_group_crystal_system       triclinic
_cell_length_a                    19.30966
_cell_length_b                    11.040292
_cell_length_c                    9.808606
_cell_angle_alpha                 111.159475
_cell_angle_beta                  97.634804
_cell_angle_gamma                 91.073767
_cell_volume                      1927.73567036

loop_
_atom_site_label
_atom_site_type_symbol
_atom_type_description
_atom_site_fract_x
_atom_site_fract_y
_atom_site_fract_z
_atom_type_partial_charge
C1    C     C_R   0.494807 0.254102 0.440654 0.939020
C2    C     C_R   0.504981 0.745912 0.559376 0.842321
C3    C     C_2   0.491905 0.114779 0.407208 -0.280614
C4    C     C_2   0.507602 0.885263 0.592880 -0.310098
C5    C     C_2   0.500888 0.069599 0.516667 -0.126049
C6    C     C_2   0.498295 0.930469 0.483456 -0.131615
C7    C     C_2   0.506600 0.509945 0.081232 0.002660
C8    C     C_2   0.497394 0.483913 0.917915 0.011969
C9    C     C_R   0.367407 0.498900 0.501580 0.895350
C10   C     C_R   0.632408 0.498052 0.497445 0.890603
C11   C     C_R   0.255357 0.448970 0.586902 0.452670
C12   C     C_R   0.738954 0.415375 0.376376 0.442474
C13   C     C_R   0.183025 0.457849 0.581592 -0.233733
C14   C     C_R   0.811573 0.426157 0.381628 -0.237314
C15   C     C_R   0.145603 0.518531 0.494922 -0.148352
C16   C     C_R   0.854284 0.519462 0.501626 -0.143808
C17   C     C_R   0.181109 0.571956 0.410624 0.446363
C18   C     C_R   0.824004 0.604044 0.620641 0.447478
C19   C     C_R   0.253605 0.564922 0.417380 -0.271345
C20   C     C_R   0.751347 0.594292 0.615060 -0.276019
C21   C     C_R   0.291412 0.504339 0.504475 -0.232089
C22   C     C_R   0.708350 0.501454 0.494490 -0.229348
C23   C     C_R   0.930125 0.521047 0.500521 0.484960
C24   C     C_R   0.069570 0.519874 0.492766 0.485710
Cu1   Cu    Cu3+1 0.512140 0.521810 0.644910 1.020024
Cu2   Cu    Cu3+1 0.487860 0.478190 0.355090 1.023199
H1    H     H_    0.281091 0.607074 0.353915 0.222892
H2    H     H_    0.727797 0.660030 0.705357 0.219285
H3    H     H_    0.517167 0.951385 0.707782 0.163198
H4    H     H_    0.482522 0.048673 0.292302 0.146532
N1    N     N_R   0.031247 0.408274 0.469921 -0.184262
N2    N     N_R   0.968375 0.632791 0.523263 -0.119130
N3    N     N_R   0.962628 0.408679 0.472690 -0.186014
N4    N     N_R   0.037072 0.632318 0.520060 -0.119473
N5    N     N_2   0.469620 0.445420 0.137370 -0.270288
N6    N     N_2   0.530380 0.554580 0.862630 -0.286333
O1    O     O_R   0.506480 0.332340 0.577400 -0.576553
O2    O     O_R   0.493520 0.667660 0.422600 -0.592997
O3    O     O_R   0.485980 0.295500 0.332650 -0.566147
O4    O     O_R   0.514020 0.704500 0.667350 -0.578715
O5    O     O_R   0.410390 0.518410 0.622410 -0.522999
O6    O     O_R   0.589610 0.481590 0.377590 -0.530240
O7    O     O_R   0.389900 0.481570 0.377660 -0.574006
O8    O     O_R   0.610100 0.518430 0.622340 -0.572539
S1    S     S_3+6 0.297112 0.364559 0.694013 0.018766
O9    O     O_2   0.333112 0.462597 0.837957 -0.299932
O10   O     O_2   0.244007 0.280493 0.725340 -0.242749
O11   O     O_3   0.356066 0.269697 0.603244 -0.559731
H5    H     H_    0.373449 0.220078 0.665603 0.359834
S2    S     S_3+6 0.689518 0.289008 0.224776 0.033100
O12   O     O_2   0.649326 0.346847 0.123930 -0.285039
O13   O     O_2   0.736999 0.193180 0.139503 -0.249500
O14   O     O_3   0.633270 0.210580 0.287016 -0.547090
H6    H     H_    0.605013 0.147118 0.196813 0.368667
H7    H     H_    0.155166 0.416910 0.645649 0.222806
H8    H     H_    0.835486 0.360999 0.291516 0.219626
S3    S     S_3+6 0.136884 0.642447 0.290682 0.065473
O15   O     O_2   0.071332 0.559558 0.205662 -0.239110
O16   O     O_2   0.117805 0.775983 0.381039 -0.223561
O17   O     O_3   0.188799 0.655021 0.170881 -0.505490
H9    H     H_    0.160171 0.694243 0.108246 0.398158
S4    S     S_3+6 0.874867 0.718722 0.780554 0.062902
O18   O     O_2   0.937123 0.656686 0.829556 -0.241225
O19   O     O_2   0.899746 0.832024 0.744728 -0.224823
O20   O     O_3   0.826618 0.772735 0.918601 -0.508917
H10   H     H_    0.858342 0.837556 0.001705 0.402979
H11   H     H_    0.488747 0.864635 0.368362 0.183968
H12   H     H_    0.510279 0.135447 0.631766 0.179575
H13   H     H_    0.461843 0.403140 0.843714 0.189594
H14   H     H_    0.545730 0.585005 0.154639 0.157106
H15   H     H_    0.563543 0.631313 0.935935 0.204715
H16   H     H_    0.433151 0.374121 0.064994 0.223274

loop_
_geom_bond_atom_site_label_1
_geom_bond_atom_site_label_2
_ccdc_geom_bond_type
C17   S3    S    
Cu2   O7    S    
C3    H4    S    
C14   H8    S    
N1    N3    A    
N2    N4    A    
S4    O18   D    
C12   C22   A    
C10   O6    A    
C19   H1    S    
C2    O2    A    
C9    O5    A    
C4    H3    S    
N6    H15   S    
C1    O1    A    
C3    C5    D    
C23   N2    A    
C7    H14   S    
S1    O10   D    
S2    O12   D    
C8    H13   S    
C24   N1    A    
S1    O9    D    
C7    C8    S    
C1    C3    S    
C15   C24   S    
O14   H6    S    
C10   C22   S    
C11   C13   A    
C9    C21   S    
S3    O15   D    
O17   H9    S    
C5    H12   S    
S4    O19   D    
C2    C4    S    
Cu1   O8    S    
C16   C18   A    
C6    H11   S    
C17   C19   A    
C20   C22   A    
N5    H16   S    
C16   C23   S    
C18   C20   A    
C13   C15   A    
Cu1   O4    S    
C5    C6    S    
S3    O16   D    
C14   C16   A    
Cu2   O3    S    
C9    O7    A    
S2    O14   S    
C11   S1    S    
C1    O3    A    
Cu1   N6    S    
C10   O8    A    
C2    O4    A    
Cu2   N5    S    
Cu2   O6    S    
C4    C6    D    
O20   H10   S    
C8    N6    D    
S1    O11   S    
Cu1   O5    S    
S2    O13   D    
C15   C17   A    
O11   H5    S    
S3    O17   S    
C18   S4    S    
C20   H2    S    
S4    O20   S    
Cu1   O1    S    
Cu1   Cu2   S    
C19   C21   A    
C7    N5    D    
C11   C21   A    
Cu2   O2    S    
C23   N3    A    
C12   C14   A    
C12   S2    S    
C13   H7    S    
C24   N4    A    
