data_mof_unit_15160.cif
_audit_creation_date              2012-12-10T19:27:36-0500
_audit_creation_method            fapswitch 2.2
_symmetry_space_group_name_H-M    P1
_symmetry_Int_Tables_number       1
_space_group_crystal_system       triclinic
_cell_length_a                    23.308133
_cell_length_b                    10.674899
_cell_length_c                    9.893935
_cell_angle_alpha                 86.460948
_cell_angle_beta                  89.986998
_cell_angle_gamma                 87.798912
_cell_volume                      2455.21628708

loop_
_atom_site_label
_atom_site_type_symbol
_atom_type_description
_atom_site_fract_x
_atom_site_fract_y
_atom_site_fract_z
_atom_type_partial_charge
C1    C     C_R   0.498489 0.258020 0.504098 0.960366
C2    C     C_R   0.699744 0.590936 0.409151 0.322729
C3    C     C_R   0.247509 0.362947 0.603871 0.095995
C4    C     C_R   0.759787 0.591913 0.399170 0.107824
C5    C     C_R   0.210097 0.427913 0.510223 0.169874
C6    C     C_R   0.792970 0.496353 0.469970 0.173672
C7    C     C_3   0.502404 0.023973 0.631253 0.402766
C8    C     C_3   0.493531 0.977127 0.368715 0.360591
C9    C     C_3   0.547898 0.951700 0.550585 -0.072296
C10   C     C_3   0.447773 0.050220 0.449004 -0.048290
C11   C     C_3   0.500286 0.878179 0.488420 -0.330547
C12   C     C_R   0.500617 0.742344 0.495875 0.965729
C13   C     C_3   0.496009 0.122881 0.511255 -0.317769
C14   C     C_3   0.454469 0.950353 0.568547 0.337641
C15   C     C_3   0.541177 0.050306 0.431138 0.324333
C16   C     C_R   0.389484 0.496107 0.499538 0.931270
C17   C     C_R   0.610509 0.499767 0.499773 0.923357
C18   C     C_3   0.472124 0.407398 0.054233 -0.055666
C19   C     C_3   0.527784 0.592570 0.946299 -0.067473
C20   C     C_3   0.523551 0.398328 0.958938 0.365250
C21   C     C_3   0.476313 0.601579 0.041389 0.367682
C22   C     C_3   0.448531 0.509265 0.951896 0.374338
C23   C     C_R   0.230632 0.509786 0.404598 0.145223
C24   C     C_3   0.551404 0.490369 0.048444 0.361916
C25   C     C_R   0.880829 0.554612 0.569595 0.514848
C26   C     C_R   0.121428 0.337320 0.451867 0.520807
C27   C     C_R   0.883247 0.431686 0.376574 0.549476
C28   C     C_R   0.121431 0.500898 0.604756 0.552313
C29   C     C_R   0.941954 0.400842 0.396276 -0.124876
C30   C     C_R   0.061247 0.506165 0.608900 -0.126038
C31   C     C_R   0.971513 0.461655 0.497541 -0.097128
C32   C     C_R   0.031296 0.440184 0.512699 -0.098605
C33   C     C_R   0.941183 0.544289 0.583143 -0.081441
C34   C     C_R   0.767332 0.401333 0.552431 0.169066
C35   C     C_R   0.061500 0.353981 0.431097 -0.077130
C36   C     C_R   0.971184 0.310316 0.319943 0.382524
C37   C     C_R   0.030931 0.581109 0.699927 0.392071
C38   C     C_R   0.031168 0.290297 0.332060 0.069107
C39   C     C_R   0.971588 0.606710 0.683204 0.067437
C40   C     C_3   0.440046 0.297092 0.117948 -0.372354
C41   C     C_3   0.406492 0.230579 0.013168 -0.593162
C42   C     C_3   0.561191 0.700529 0.883285 -0.366742
C43   C     C_3   0.594306 0.768507 0.987772 -0.582300
C44   C     C_3   0.061358 0.207724 0.230843 -0.298924
C45   C     C_R   0.290079 0.533187 0.397848 0.023527
C46   C     C_3   0.067407 0.070554 0.285350 -0.701465
C47   C     C_3   0.943597 0.707649 0.767272 -0.311251
C48   C     C_3   0.920304 0.652318 0.902000 -0.666306
C49   C     C_3   0.187914 0.575034 0.303285 -0.387989
C50   C     C_3   0.186619 0.508121 0.170940 -0.803345
C51   C     C_3   0.804754 0.292829 0.617381 -0.401511
C52   C     C_3   0.802484 0.176350 0.535256 -0.785435
C53   C     C_3   0.312816 0.625240 0.287629 -0.343520
C54   C     C_3   0.328353 0.748141 0.345840 -0.728916
C55   C     C_3   0.680847 0.322852 0.682725 -0.412358
C56   C     C_R   0.707262 0.407741 0.572439 0.048239
C57   C     C_3   0.686813 0.380179 0.819513 -0.637948
C58   C     C_3   0.224450 0.270715 0.712410 -0.330988
C59   C     C_3   0.222753 0.326006 0.851346 -0.742623
C60   C     C_3   0.788546 0.694285 0.312716 -0.321406
C61   C     C_3   0.790570 0.816085 0.385815 -0.779126
C62   C     C_3   0.607487 0.899372 0.594418 -0.322125
C63   C     C_3   0.641965 0.994512 0.665163 -0.802175
C64   C     C_3   0.392605 0.115037 0.387783 -0.364508
C65   C     C_3   0.337184 0.072838 0.454289 -0.722641
C66   C     C_R   0.327474 0.473514 0.498573 -0.187088
C67   C     C_R   0.673455 0.500442 0.496436 -0.188223
C68   C     C_R   0.306380 0.383912 0.595411 0.323408
Cl1   Cl    Cl    0.932633 0.209627 0.218530 -0.589096
Cl2   Cl    Cl    0.494386 0.963240 0.191325 -0.462865
Cl3   Cl    Cl    0.399598 0.874677 0.666749 -0.498247
Cl4   Cl    Cl    0.598999 0.117641 0.335900 -0.492438
Cl5   Cl    Cl    0.065654 0.633832 0.845302 -0.604599
Cl6   Cl    Cl    0.561319 0.264074 0.904693 -0.501813
Cl7   Cl    Cl    0.435617 0.732013 0.095981 -0.467564
Cl8   Cl    Cl    0.376832 0.535082 0.890756 -0.496260
Cl9   Cl    Cl    0.622544 0.464924 0.112852 -0.513724
Cl10  Cl    Cl    0.354410 0.288984 0.700269 -0.633263
Cl11  Cl    Cl    0.657318 0.707053 0.314812 -0.628940
Cl12  Cl    Cl    0.500861 0.035049 0.809099 -0.456338
H1    H     H_    0.365067 0.282246 0.991020 0.265954
H2    H     H_    0.530466 0.768544 0.830545 0.290690
H3    H     H_    0.088790 0.061948 0.385805 0.279674
H4    H     H_    0.024540 0.029265 0.295994 0.267120
H5    H     H_    0.093241 0.015638 0.213703 0.241039
H6    H     H_    0.037709 0.211550 0.133275 0.228811
H7    H     H_    0.103176 0.244428 0.197981 0.221105
H8    H     H_    0.892057 0.573083 0.886813 0.285891
H9    H     H_    0.956084 0.617145 0.969755 0.267996
H10   H     H_    0.895338 0.726245 0.953281 0.232506
H11   H     H_    0.974742 0.779915 0.789114 0.225421
H12   H     H_    0.431548 0.224128 0.918588 0.341748
H13   H     H_    0.910168 0.764548 0.709200 0.225211
H14   H     H_    0.229956 0.497848 0.125746 0.262902
H15   H     H_    0.169667 0.413079 0.189355 0.266467
H16   H     H_    0.158078 0.562313 0.096873 0.293614
H17   H     H_    0.143532 0.579026 0.343128 0.205903
H18   H     H_    0.197252 0.675676 0.284130 0.216637
H19   H     H_    0.757734 0.147094 0.522684 0.261504
H20   H     H_    0.821276 0.195593 0.433385 0.310721
H21   H     H_    0.827723 0.097462 0.587740 0.246214
H22   H     H_    0.850374 0.316553 0.625816 0.211046
H23   H     H_    0.397001 0.133931 0.051682 0.264336
H24   H     H_    0.792305 0.269545 0.723747 0.222729
H25   H     H_    0.291262 0.785019 0.403894 0.249367
H26   H     H_    0.366403 0.735375 0.413135 0.270689
H27   H     H_    0.338252 0.818223 0.262310 0.282509
H28   H     H_    0.349089 0.583184 0.232166 0.265196
H29   H     H_    0.282050 0.649811 0.204832 0.228411
H30   H     H_    0.730980 0.412142 0.834930 0.243543
H31   H     H_    0.656346 0.462037 0.825590 0.273264
H32   H     H_    0.677874 0.308937 0.902382 0.305534
H33   H     H_    0.635364 0.304389 0.662296 0.250966
H34   H     H_    0.471850 0.229282 0.167118 0.291974
H35   H     H_    0.701794 0.228165 0.689177 0.212341
H36   H     H_    0.265910 0.354374 0.881933 0.299498
H37   H     H_    0.192682 0.409140 0.850096 0.292177
H38   H     H_    0.207598 0.254697 0.928299 0.234371
H39   H     H_    0.180504 0.242510 0.688174 0.211047
H40   H     H_    0.251044 0.181982 0.717590 0.245701
H41   H     H_    0.810604 0.889397 0.318889 0.262938
H42   H     H_    0.816662 0.801104 0.479605 0.268002
H43   H     H_    0.746800 0.850709 0.412747 0.290458
H44   H     H_    0.833102 0.665591 0.285503 0.203511
H45   H     H_    0.409804 0.332240 0.194593 0.205725
H46   H     H_    0.765668 0.712036 0.214554 0.253121
H47   H     H_    0.620038 0.023425 0.758230 0.310551
H48   H     H_    0.684885 0.952261 0.693521 0.243236
H49   H     H_    0.647950 0.078302 0.595817 0.273434
H50   H     H_    0.603620 0.814289 0.661027 0.197540
H51   H     H_    0.631467 0.872556 0.503597 0.270658
H52   H     H_    0.331278 0.973051 0.438876 0.268675
H53   H     H_    0.337524 0.085941 0.564067 0.321901
H54   H     H_    0.300184 0.128526 0.408035 0.240050
H55   H     H_    0.394260 0.217876 0.395759 0.204315
H56   H     H_    0.568082 0.781431 0.079658 0.331563
H57   H     H_    0.390214 0.095979 0.279502 0.232126
H58   H     H_    0.634524 0.714638 0.016469 0.276393
H59   H     H_    0.606150 0.862093 0.943922 0.261667
H60   H     H_    0.592018 0.660986 0.810586 0.204309
N1    N     N_R   0.854193 0.499679 0.467579 -0.346062
N2    N     N_R   0.149506 0.418003 0.526958 -0.344199
N3    N     N_3   0.499960 0.500030 0.863290 -0.182718
N4    N     N_3   0.500040 0.499970 0.136710 -0.184408
O1    O     O_R   0.500000 0.313960 0.616610 -0.547505
O2    O     O_2   0.152361 0.243711 0.398024 -0.592164
O3    O     O_2   0.854505 0.394573 0.268724 -0.484815
O4    O     O_2   0.152268 0.582530 0.670670 -0.482148
O5    O     O_R   0.500000 0.686040 0.383390 -0.547073
O6    O     O_R   0.500030 0.313950 0.383350 -0.617681
O7    O     O_R   0.499970 0.686050 0.616650 -0.612436
O8    O     O_R   0.416140 0.499970 0.616650 -0.494560
O9    O     O_R   0.583860 0.500030 0.383350 -0.498773
O10   O     O_R   0.416170 0.499960 0.383400 -0.663034
O11   O     O_R   0.583830 0.500040 0.616600 -0.656038
O12   O     O_2   0.847815 0.612979 0.660092 -0.589184
Zn1   Zn    Zn3+2 0.499980 0.500010 0.655740 1.063125
Zn2   Zn    Zn3+2 0.500020 0.499990 0.344260 1.061134

loop_
_geom_bond_atom_site_label_1
_geom_bond_atom_site_label_2
_ccdc_geom_bond_type
C66   C68   A    
C55   C56   S    
C34   C56   A    
C23   C45   A    
C27   C29   A    
C14   Cl3   S    
C62   H50   S    
C1    O1    A    
C3    C68   A    
C42   H2    S    
C22   Cl8   S    
C17   O9    A    
C53   C54   S    
C51   H22   S    
C15   Cl4   S    
C29   C36   A    
C34   C51   S    
C33   C39   A    
C54   H27   S    
O7    Zn1   S    
C61   H41   S    
C19   C21   S    
O10   Zn2   S    
C11   C14   S    
C50   H15   S    
C23   C49   S    
C57   H32   S    
O11   Zn1   S    
C18   N4    S    
C43   H58   S    
C12   O7    A    
O9    Zn2   S    
C60   H44   S    
C18   C40   S    
C2    Cl11  S    
C49   H18   S    
C7    C14   S    
C40   H34   S    
C20   C24   S    
C59   H36   S    
C22   N3    S    
C48   H8    S    
C43   H59   S    
C44   H7    S    
O5    Zn2   S    
C65   H54   S    
C19   C42   S    
C46   H5    S    
C64   H55   S    
C45   C53   S    
C59   H37   S    
C48   H10   S    
C21   C22   S    
C25   O12   S    
C20   N3    S    
C44   H6    S    
C62   H51   S    
C58   H40   S    
C44   C46   S    
N3    Zn1   S    
C64   H57   S    
C68   Cl10  S    
C37   C39   A    
C10   C64   S    
C52   H21   S    
C17   C67   S    
C28   O4    S    
C54   H26   S    
C42   H60   S    
C51   C52   S    
C32   C35   A    
C35   C38   A    
C4    C6    A    
C2    C67   A    
C10   C14   S    
C50   H14   S    
C55   H33   S    
C26   O2    S    
C51   H24   S    
C52   H20   S    
C41   H23   S    
C30   C37   A    
C60   C61   S    
C2    C4    A    
C38   C44   S    
C62   C63   S    
O1    Zn1   S    
C24   Cl9   S    
C47   C48   S    
C5    C23   A    
C41   H1    S    
C4    C60   S    
C31   C33   A    
C47   H13   S    
C20   Cl6   S    
C1    O6    A    
C16   O8    A    
C6    N1    S    
C9    C11   S    
C60   H46   S    
C46   H4    S    
C8    C10   S    
C40   C41   S    
C8    C15   S    
C48   H9    S    
C13   C15   S    
C16   O10   A    
C1    C13   S    
C42   C43   S    
N4    Zn2   S    
C17   O11   A    
C65   H52   S    
C36   Cl1   S    
C39   C47   S    
C53   H29   S    
C7    C9    S    
C37   Cl5   S    
O8    Zn1   S    
C19   N3    S    
O6    Zn2   S    
C54   H25   S    
C18   C22   S    
C47   H11   S    
C12   O5    A    
C31   C32   A    
C25   N1    A    
C63   H48   S    
C21   N4    S    
C3    C5    A    
C10   C13   S    
C11   C12   S    
C57   H30   S    
C59   H38   S    
C56   C67   A    
C21   Cl7   S    
C52   H19   S    
C8    Cl2   S    
C9    C62   S    
C61   H43   S    
C64   C65   S    
C55   C57   S    
C19   C24   S    
C58   C59   S    
C28   C30   A    
C29   C31   A    
C30   C32   A    
C53   H28   S    
C50   H16   S    
C5    N2    S    
C57   H31   S    
C55   H35   S    
C24   N4    S    
C8    C11   S    
C40   H45   S    
C36   C38   A    
C58   H39   S    
C27   N1    A    
C18   C20   S    
C63   H49   S    
C9    C15   S    
C43   H56   S    
C65   H53   S    
C49   H17   S    
C46   H3    S    
C3    C58   S    
C6    C34   A    
C26   C35   A    
C7    C13   S    
C41   H12   S    
C28   N2    A    
C27   O3    S    
C49   C50   S    
C45   C66   A    
C61   H42   S    
C16   C66   S    
C26   N2    A    
C63   H47   S    
C25   C33   A    
C7    Cl12  S    
